MODEL 1
REMARK VINA RESULT: -7.007578338      0.000      0.000
REMARK  5 active torsions:
REMARK  status: ('A' for Active; 'I' for Inactive)
REMARK    1  A    between atoms: C3_3  and  C4_4 
REMARK    2  A    between atoms: C4_4  and  C6_7 
REMARK    3  A    between atoms: C6_7  and  C9_10 
REMARK    4  A    between atoms: C9_10  and  O1_11 
REMARK    5  A    between atoms: C9_10  and  C10_13 
ROOT
HETATM    1  C1  UNL     1      -1.987   7.942  15.127  1.00  0.00     0.112 C 
HETATM    2  C2  UNL     1      -3.037   6.956  14.800  1.00  0.00    -0.109 C 
HETATM    3  C3  UNL     1      -3.911   6.162  14.537  1.00  0.00    -0.080 C 
ENDROOT
BRANCH   3   4
HETATM    4  C4  UNL     1      -4.993   5.214  14.220  1.00  0.00     0.106 C 
HETATM    5  C5  UNL     1      -6.043   5.254  15.309  1.00  0.00     0.048 C 
HETATM    6 CL1  UNL     1      -5.763   5.654  12.702  1.00  0.00    -0.105 Cl
BRANCH   4   7
HETATM    7  C6  UNL     1      -4.368   3.842  14.097  1.00  0.00     0.018 C 
HETATM    8  C7  UNL     1      -3.290   3.786  13.069  1.00  0.00     0.021 C 
HETATM    9  C8  UNL     1      -5.424   2.813  13.713  1.00  0.00     0.021 C 
BRANCH   7  10
HETATM   10  C9  UNL     1      -3.856   3.445  15.460  1.00  0.00     0.206 C 
BRANCH  10  11
HETATM   11  O1  UNL     1      -2.468   3.305  15.490  1.00  0.00    -0.386 OA
ATOM     12  H1  UNL     1      -2.105   3.456  16.355  1.00  0.00     0.210 HD
ENDBRANCH  10  11
BRANCH  10  13
HETATM   13  C10 UNL     1      -4.399   2.078  15.850  1.00  0.00     0.187 C 
HETATM   14  N1  UNL     1      -3.663   1.067  15.890  1.00  0.00    -0.228 N 
HETATM   15  O2  UNL     1      -4.195  -0.126  16.243  1.00  0.00    -0.147 OA
ATOM     16  H1  UNL     1      -2.673   1.141  15.659  1.00  0.00     0.197 HD
HETATM   17  S1  UNL     1      -5.757   0.322  16.901  1.00  0.00     0.335 S 
HETATM   18  O3  UNL     1      -5.529   0.517  18.395  1.00  0.00    -0.194 OA
HETATM   19  O4  UNL     1      -5.734   1.896  16.177  1.00  0.00    -0.211 OA
ENDBRANCH  10  13
ENDBRANCH   7  10
ENDBRANCH   4   7
ENDBRANCH   3   4
TORSDOF 5
ENDMDL
MODEL 2
REMARK VINA RESULT: -7.002022769      1.750      2.464
REMARK  5 active torsions:
REMARK  status: ('A' for Active; 'I' for Inactive)
REMARK    1  A    between atoms: C3_3  and  C4_4 
REMARK    2  A    between atoms: C4_4  and  C6_7 
REMARK    3  A    between atoms: C6_7  and  C9_10 
REMARK    4  A    between atoms: C9_10  and  O1_11 
REMARK    5  A    between atoms: C9_10  and  C10_13 
ROOT
HETATM    1  C1  UNL     1      -1.653   8.519  15.830  1.00  0.00     0.112 C 
HETATM    2  C2  UNL     1      -2.408   7.554  15.005  1.00  0.00    -0.109 C 
HETATM    3  C3  UNL     1      -3.021   6.774  14.313  1.00  0.00    -0.080 C 
ENDROOT
BRANCH   3   4
HETATM    4  C4  UNL     1      -3.757   5.836  13.448  1.00  0.00     0.106 C 
HETATM    5  C5  UNL     1      -4.788   6.590  12.637  1.00  0.00     0.048 C 
HETATM    6 CL1  UNL     1      -2.655   5.044  12.331  1.00  0.00    -0.105 Cl
BRANCH   4   7
HETATM    7  C6  UNL     1      -4.400   4.805  14.348  1.00  0.00     0.018 C 
HETATM    8  C7  UNL     1      -5.322   5.406  15.354  1.00  0.00     0.021 C 
HETATM    9  C8  UNL     1      -3.333   4.027  15.109  1.00  0.00     0.021 C 
BRANCH   7  10
HETATM   10  C9  UNL     1      -5.114   3.807  13.469  1.00  0.00     0.206 C 
BRANCH  10  11
HETATM   11  O1  UNL     1      -6.501   3.961  13.501  1.00  0.00    -0.386 OA
ATOM     12  H1  UNL     1      -6.901   3.837  12.648  1.00  0.00     0.210 HD
ENDBRANCH  10  11
BRANCH  10  13
HETATM   13  C10 UNL     1      -4.863   2.390  13.967  1.00  0.00     0.187 C 
HETATM   14  N1  UNL     1      -4.094   1.610  13.364  1.00  0.00    -0.228 N 
HETATM   15  O2  UNL     1      -3.905   0.361  13.847  1.00  0.00    -0.147 OA
ATOM     16  H1  UNL     1      -3.614   1.913  12.516  1.00  0.00     0.197 HD
HETATM   17  S1  UNL     1      -4.593   0.456  15.456  1.00  0.00     0.335 S 
HETATM   18  O3  UNL     1      -3.440   0.847  16.371  1.00  0.00    -0.194 OA
HETATM   19  O4  UNL     1      -5.478   1.906  15.111  1.00  0.00    -0.211 OA
ENDBRANCH  10  13
ENDBRANCH   7  10
ENDBRANCH   4   7
ENDBRANCH   3   4
TORSDOF 5
ENDMDL
MODEL 3
REMARK VINA RESULT: -6.907271780      2.125      3.195
REMARK  5 active torsions:
REMARK  status: ('A' for Active; 'I' for Inactive)
REMARK    1  A    between atoms: C3_3  and  C4_4 
REMARK    2  A    between atoms: C4_4  and  C6_7 
REMARK    3  A    between atoms: C6_7  and  C9_10 
REMARK    4  A    between atoms: C9_10  and  O1_11 
REMARK    5  A    between atoms: C9_10  and  C10_13 
ROOT
HETATM    1  C1  UNL     1      -7.512   7.467  11.449  1.00  0.00     0.112 C 
HETATM    2  C2  UNL     1      -6.340   6.819  12.073  1.00  0.00    -0.109 C 
HETATM    3  C3  UNL     1      -5.376   6.306  12.594  1.00  0.00    -0.080 C 
ENDROOT
BRANCH   3   4
HETATM    4  C4  UNL     1      -4.201   5.701  13.245  1.00  0.00     0.106 C 
HETATM    5  C5  UNL     1      -3.314   5.057  12.202  1.00  0.00     0.048 C 
HETATM    6 CL1  UNL     1      -3.263   6.935  14.074  1.00  0.00    -0.105 Cl
BRANCH   4   7
HETATM    7  C6  UNL     1      -4.712   4.690  14.246  1.00  0.00     0.018 C 
HETATM    8  C7  UNL     1      -5.616   5.290  15.269  1.00  0.00     0.021 C 
HETATM    9  C8  UNL     1      -3.548   4.043  14.985  1.00  0.00     0.021 C 
BRANCH   7  10
HETATM   10  C9  UNL     1      -5.400   3.587  13.478  1.00  0.00     0.206 C 
BRANCH  10  11
HETATM   11  O1  UNL     1      -6.790   3.649  13.581  1.00  0.00    -0.386 OA
ATOM     12  H1  UNL     1      -7.195   4.043  12.817  1.00  0.00     0.210 HD
ENDBRANCH  10  11
BRANCH  10  13
HETATM   13  C10 UNL     1      -5.022   2.229  14.051  1.00  0.00     0.187 C 
HETATM   14  N1  UNL     1      -4.210   1.475  13.471  1.00  0.00    -0.228 N 
HETATM   15  O2  UNL     1      -3.908   0.277  14.023  1.00  0.00    -0.147 OA
ATOM     16  H1  UNL     1      -3.781   1.760  12.591  1.00  0.00     0.197 HD
HETATM   17  S1  UNL     1      -4.555   0.419  15.645  1.00  0.00     0.335 S 
HETATM   18  O3  UNL     1      -3.411   0.956  16.496  1.00  0.00    -0.194 OA
HETATM   19  O4  UNL     1      -5.563   1.771  15.244  1.00  0.00    -0.211 OA
ENDBRANCH  10  13
ENDBRANCH   7  10
ENDBRANCH   4   7
ENDBRANCH   3   4
TORSDOF 5
ENDMDL
MODEL 4
REMARK VINA RESULT: -6.825387083      1.514      2.181
REMARK  5 active torsions:
REMARK  status: ('A' for Active; 'I' for Inactive)
REMARK    1  A    between atoms: C3_3  and  C4_4 
REMARK    2  A    between atoms: C4_4  and  C6_7 
REMARK    3  A    between atoms: C6_7  and  C9_10 
REMARK    4  A    between atoms: C9_10  and  O1_11 
REMARK    5  A    between atoms: C9_10  and  C10_13 
ROOT
HETATM    1  C1  UNL     1      -6.751   6.975  11.097  1.00  0.00     0.112 C 
HETATM    2  C2  UNL     1      -6.177   6.354  12.308  1.00  0.00    -0.109 C 
HETATM    3  C3  UNL     1      -5.713   5.862  13.312  1.00  0.00    -0.080 C 
ENDROOT
BRANCH   3   4
HETATM    4  C4  UNL     1      -5.162   5.281  14.547  1.00  0.00     0.106 C 
HETATM    5  C5  UNL     1      -3.981   6.104  15.016  1.00  0.00     0.048 C 
HETATM    6 CL1  UNL     1      -6.374   5.292  15.820  1.00  0.00    -0.105 Cl
BRANCH   4   7
HETATM    7  C6  UNL     1      -4.762   3.856  14.236  1.00  0.00     0.018 C 
HETATM    8  C7  UNL     1      -3.812   3.757  13.090  1.00  0.00     0.021 C 
HETATM    9  C8  UNL     1      -5.991   3.026  13.887  1.00  0.00     0.021 C 
BRANCH   7  10
HETATM   10  C9  UNL     1      -4.179   3.255  15.492  1.00  0.00     0.206 C 
BRANCH  10  11
HETATM   11  O1  UNL     1      -2.835   2.911  15.347  1.00  0.00    -0.386 OA
ATOM     12  H1  UNL     1      -2.248   3.611  15.610  1.00  0.00     0.210 HD
ENDBRANCH  10  11
BRANCH  10  13
HETATM   13  C10 UNL     1      -4.887   1.951  15.831  1.00  0.00     0.187 C 
HETATM   14  N1  UNL     1      -4.454   0.848  15.433  1.00  0.00    -0.228 N 
HETATM   15  O2  UNL     1      -5.120  -0.283  15.762  1.00  0.00    -0.147 OA
ATOM     16  H1  UNL     1      -3.607   0.800  14.867  1.00  0.00     0.197 HD
HETATM   17  S1  UNL     1      -6.219   0.261  17.014  1.00  0.00     0.335 S 
HETATM   18  O3  UNL     1      -5.477   0.052  18.328  1.00  0.00    -0.194 OA
HETATM   19  O4  UNL     1      -6.044   1.934  16.596  1.00  0.00    -0.211 OA
ENDBRANCH  10  13
ENDBRANCH   7  10
ENDBRANCH   4   7
ENDBRANCH   3   4
TORSDOF 5
ENDMDL
MODEL 5
REMARK VINA RESULT: -6.638310765      0.948      1.429
REMARK  5 active torsions:
REMARK  status: ('A' for Active; 'I' for Inactive)
REMARK    1  A    between atoms: C3_3  and  C4_4 
REMARK    2  A    between atoms: C4_4  and  C6_7 
REMARK    3  A    between atoms: C6_7  and  C9_10 
REMARK    4  A    between atoms: C9_10  and  O1_11 
REMARK    5  A    between atoms: C9_10  and  C10_13 
ROOT
HETATM    1  C1  UNL     1      -2.034   8.076  15.447  1.00  0.00     0.112 C 
HETATM    2  C2  UNL     1      -3.019   7.072  14.995  1.00  0.00    -0.109 C 
HETATM    3  C3  UNL     1      -3.839   6.263  14.624  1.00  0.00    -0.080 C 
ENDROOT
BRANCH   3   4
HETATM    4  C4  UNL     1      -4.855   5.299  14.167  1.00  0.00     0.106 C 
HETATM    5  C5  UNL     1      -6.003   5.260  15.151  1.00  0.00     0.048 C 
HETATM    6 CL1  UNL     1      -5.493   5.784  12.602  1.00  0.00    -0.105 Cl
BRANCH   4   7
HETATM    7  C6  UNL     1      -4.175   3.954  14.046  1.00  0.00     0.018 C 
HETATM    8  C7  UNL     1      -3.058   3.953  13.059  1.00  0.00     0.021 C 
HETATM    9  C8  UNL     1      -5.177   2.893  13.608  1.00  0.00     0.021 C 
BRANCH   7  10
HETATM   10  C9  UNL     1      -3.700   3.553  15.422  1.00  0.00     0.206 C 
BRANCH  10  11
HETATM   11  O1  UNL     1      -2.312   3.421  15.491  1.00  0.00    -0.386 OA
ATOM     12  H1  UNL     1      -1.856   4.172  15.131  1.00  0.00     0.210 HD
ENDBRANCH  10  11
BRANCH  10  13
HETATM   13  C10 UNL     1      -4.246   2.181  15.790  1.00  0.00     0.187 C 
HETATM   14  N1  UNL     1      -5.451   2.009  16.074  1.00  0.00    -0.228 N 
HETATM   15  O2  UNL     1      -5.887   0.769  16.395  1.00  0.00    -0.147 OA
ATOM     16  H1  UNL     1      -6.100   2.796  16.064  1.00  0.00     0.197 HD
HETATM   17  S1  UNL     1      -4.552  -0.254  15.901  1.00  0.00     0.335 S 
HETATM   18  O3  UNL     1      -4.858  -0.658  14.464  1.00  0.00    -0.194 OA
HETATM   19  O4  UNL     1      -3.427   1.062  15.827  1.00  0.00    -0.211 OA
ENDBRANCH  10  13
ENDBRANCH   7  10
ENDBRANCH   4   7
ENDBRANCH   3   4
TORSDOF 5
ENDMDL
