MODEL 1
REMARK VINA RESULT: -6.781150033      0.000      0.000
REMARK  5 active torsions:
REMARK  status: ('A' for Active; 'I' for Inactive)
REMARK    1  A    between atoms: O1_1  and  C1_3 
REMARK    2  A    between atoms: C1_3  and  C2_4 
REMARK    3  A    between atoms: N1_8  and  C6_9 
REMARK    4  A    between atoms: C9_12  and  C10_13 
REMARK    5  A    between atoms: C10_13  and  N2_14 
ROOT
HETATM    1  C6  UNL     1      -4.860   3.475  14.909  1.00  0.00     0.223 C 
HETATM    2  C7  UNL     1      -5.536   4.787  14.691  1.00  0.00     0.036 C 
HETATM    3  C8  UNL     1      -4.647   5.598  13.771  1.00  0.00     0.008 C 
HETATM    4  C9  UNL     1      -3.382   4.915  13.382  1.00  0.00     0.006 C 
HETATM    5  C13 UNL     1      -2.596   4.304  14.487  1.00  0.00     0.008 C 
HETATM    6  C14 UNL     1      -3.514   3.721  15.529  1.00  0.00     0.036 C 
ENDROOT
BRANCH   1   7
HETATM    7  N1  UNL     1      -5.652   2.494  15.579  1.00  0.00     0.099 N 
HETATM    8  C2  UNL     1      -5.002   1.501  16.331  1.00  0.00     0.246 C 
HETATM    9  C3  UNL     1      -6.082   1.006  17.299  1.00  0.00     0.040 C 
HETATM   10  C4  UNL     1      -7.289   1.864  17.059  1.00  0.00     0.032 C 
HETATM   11  C5  UNL     1      -6.723   3.081  16.360  1.00  0.00     0.273 C 
BRANCH   8  12
HETATM   12  C1  UNL     1      -4.538   0.278  15.587  1.00  0.00     0.199 C 
BRANCH  12  13
HETATM   13  O1  UNL     1      -5.308  -0.803  16.089  1.00  0.00    -0.399 OA
ATOM     14  H1  UNL     1      -4.968  -1.585  15.670  1.00  0.00     0.209 HD
ENDBRANCH  12  13
ENDBRANCH   8  12
ENDBRANCH   1   7
BRANCH   4  15
HETATM   15  C10 UNL     1      -2.499   5.954  12.713  1.00  0.00     0.154 C 
BRANCH  15  16
HETATM   16  N2  UNL     1      -1.298   5.393  12.131  1.00  0.00    -0.287 N 
HETATM   17  C11 UNL     1      -1.229   4.511  11.143  1.00  0.00     0.130 A 
HETATM   18  C12 UNL     1       0.105   4.261  10.914  1.00  0.00     0.127 A 
HETATM   19  N3  UNL     1       0.809   5.006  11.776  1.00  0.00    -0.296 N 
HETATM   20  N4  UNL     1      -0.041   5.682  12.504  1.00  0.00    -0.241 N 
ATOM     21  H3  UNL     1       1.826   5.039  11.852  1.00  0.00     0.187 HD
ATOM     22  H4  UNL     1       0.214   6.334  13.246  1.00  0.00     0.208 HD
ENDBRANCH  15  16
ENDBRANCH   4  15
TORSDOF 5
ENDMDL
MODEL 2
REMARK VINA RESULT: -6.767764950      1.138      1.501
REMARK  5 active torsions:
REMARK  status: ('A' for Active; 'I' for Inactive)
REMARK    1  A    between atoms: O1_1  and  C1_3 
REMARK    2  A    between atoms: C1_3  and  C2_4 
REMARK    3  A    between atoms: N1_8  and  C6_9 
REMARK    4  A    between atoms: C9_12  and  C10_13 
REMARK    5  A    between atoms: C10_13  and  N2_14 
ROOT
HETATM    1  C6  UNL     1      -5.272   3.089  15.113  1.00  0.00     0.223 C 
HETATM    2  C7  UNL     1      -5.062   2.897  13.649  1.00  0.00     0.036 C 
HETATM    3  C8  UNL     1      -4.260   4.084  13.156  1.00  0.00     0.008 C 
HETATM    4  C9  UNL     1      -3.947   5.092  14.207  1.00  0.00     0.006 C 
HETATM    5  C13 UNL     1      -5.083   5.529  15.061  1.00  0.00     0.008 C 
HETATM    6  C14 UNL     1      -6.015   4.376  15.332  1.00  0.00     0.036 C 
ENDROOT
BRANCH   1   7
HETATM    7  N1  UNL     1      -5.826   1.961  15.794  1.00  0.00     0.099 N 
HETATM    8  C2  UNL     1      -4.981   1.179  16.600  1.00  0.00     0.246 C 
HETATM    9  C3  UNL     1      -5.943   0.461  17.552  1.00  0.00     0.040 C 
HETATM   10  C4  UNL     1      -7.313   0.990  17.246  1.00  0.00     0.032 C 
HETATM   11  C5  UNL     1      -7.035   2.289  16.522  1.00  0.00     0.273 C 
BRANCH   8  12
HETATM   12  C1  UNL     1      -4.206   0.087  15.913  1.00  0.00     0.199 C 
BRANCH  12  13
HETATM   13  O1  UNL     1      -5.062  -0.430  14.907  1.00  0.00    -0.399 OA
ATOM     14  H1  UNL     1      -5.864  -0.684  15.348  1.00  0.00     0.209 HD
ENDBRANCH  12  13
ENDBRANCH   8  12
ENDBRANCH   1   7
BRANCH   4  15
HETATM   15  C10 UNL     1      -3.405   6.323  13.502  1.00  0.00     0.154 C 
BRANCH  15  16
HETATM   16  N2  UNL     1      -2.147   6.087  12.828  1.00  0.00    -0.287 N 
HETATM   17  C11 UNL     1      -1.824   6.448  11.593  1.00  0.00     0.130 A 
HETATM   18  C12 UNL     1      -0.534   6.023  11.369  1.00  0.00     0.127 A 
HETATM   19  N3  UNL     1      -0.111   5.412  12.484  1.00  0.00    -0.296 N 
HETATM   20  N4  UNL     1      -1.085   5.455  13.355  1.00  0.00    -0.241 N 
ATOM     21  H3  UNL     1       0.806   4.990  12.628  1.00  0.00     0.187 HD
ATOM     22  H4  UNL     1      -1.045   5.066  14.297  1.00  0.00     0.208 HD
ENDBRANCH  15  16
ENDBRANCH   4  15
TORSDOF 5
ENDMDL
MODEL 3
REMARK VINA RESULT: -6.755215475      2.738      3.363
REMARK  5 active torsions:
REMARK  status: ('A' for Active; 'I' for Inactive)
REMARK    1  A    between atoms: O1_1  and  C1_3 
REMARK    2  A    between atoms: C1_3  and  C2_4 
REMARK    3  A    between atoms: N1_8  and  C6_9 
REMARK    4  A    between atoms: C9_12  and  C10_13 
REMARK    5  A    between atoms: C10_13  and  N2_14 
ROOT
HETATM    1  C6  UNL     1      -5.630   3.315  15.149  1.00  0.00     0.223 C 
HETATM    2  C7  UNL     1      -6.467   4.512  15.448  1.00  0.00     0.036 C 
HETATM    3  C8  UNL     1      -6.097   5.578  14.439  1.00  0.00     0.008 C 
HETATM    4  C9  UNL     1      -5.021   5.177  13.490  1.00  0.00     0.006 C 
HETATM    5  C13 UNL     1      -3.808   4.561  14.091  1.00  0.00     0.008 C 
HETATM    6  C14 UNL     1      -4.181   3.696  15.266  1.00  0.00     0.036 C 
ENDROOT
BRANCH   1   7
HETATM    7  N1  UNL     1      -5.992   2.133  15.864  1.00  0.00     0.099 N 
HETATM    8  C2  UNL     1      -4.986   1.413  16.531  1.00  0.00     0.246 C 
HETATM    9  C3  UNL     1      -5.751   0.598  17.579  1.00  0.00     0.040 C 
HETATM   10  C4  UNL     1      -7.189   1.011  17.469  1.00  0.00     0.032 C 
HETATM   11  C5  UNL     1      -7.118   2.342  16.752  1.00  0.00     0.273 C 
BRANCH   8  12
HETATM   12  C1  UNL     1      -4.219   0.404  15.719  1.00  0.00     0.199 C 
BRANCH  12  13
HETATM   13  O1  UNL     1      -4.991  -0.787  15.742  1.00  0.00    -0.399 OA
ATOM     14  H1  UNL     1      -4.386  -1.488  15.953  1.00  0.00     0.209 HD
ENDBRANCH  12  13
ENDBRANCH   8  12
ENDBRANCH   1   7
BRANCH   4  15
HETATM   15  C10 UNL     1      -4.581   6.430  12.753  1.00  0.00     0.154 C 
BRANCH  15  16
HETATM   16  N2  UNL     1      -5.361   6.696  11.564  1.00  0.00    -0.287 N 
HETATM   17  C11 UNL     1      -5.133   6.233  10.342  1.00  0.00     0.130 A 
HETATM   18  C12 UNL     1      -6.122   6.737   9.526  1.00  0.00     0.127 A 
HETATM   19  N3  UNL     1      -6.924   7.495  10.285  1.00  0.00    -0.296 N 
HETATM   20  N4  UNL     1      -6.460   7.466  11.507  1.00  0.00    -0.241 N 
ATOM     21  H3  UNL     1      -7.748   8.004   9.966  1.00  0.00     0.187 HD
ATOM     22  H4  UNL     1      -6.873   7.955  12.301  1.00  0.00     0.208 HD
ENDBRANCH  15  16
ENDBRANCH   4  15
TORSDOF 5
ENDMDL
MODEL 4
REMARK VINA RESULT: -6.712827526      2.343      2.803
REMARK  5 active torsions:
REMARK  status: ('A' for Active; 'I' for Inactive)
REMARK    1  A    between atoms: O1_1  and  C1_3 
REMARK    2  A    between atoms: C1_3  and  C2_4 
REMARK    3  A    between atoms: N1_8  and  C6_9 
REMARK    4  A    between atoms: C9_12  and  C10_13 
REMARK    5  A    between atoms: C10_13  and  N2_14 
ROOT
HETATM    1  C6  UNL     1      -5.464   3.129  15.070  1.00  0.00     0.223 C 
HETATM    2  C7  UNL     1      -4.998   2.824  13.687  1.00  0.00     0.036 C 
HETATM    3  C8  UNL     1      -4.359   4.086  13.144  1.00  0.00     0.008 C 
HETATM    4  C9  UNL     1      -4.399   5.245  14.079  1.00  0.00     0.006 C 
HETATM    5  C13 UNL     1      -5.713   5.538  14.710  1.00  0.00     0.008 C 
HETATM    6  C14 UNL     1      -6.452   4.259  15.011  1.00  0.00     0.036 C 
ENDROOT
BRANCH   1   7
HETATM    7  N1  UNL     1      -5.903   1.996  15.821  1.00  0.00     0.099 N 
HETATM    8  C2  UNL     1      -4.975   1.330  16.640  1.00  0.00     0.246 C 
HETATM    9  C3  UNL     1      -5.849   0.583  17.653  1.00  0.00     0.040 C 
HETATM   10  C4  UNL     1      -7.266   0.979  17.360  1.00  0.00     0.032 C 
HETATM   11  C5  UNL     1      -7.118   2.258  16.566  1.00  0.00     0.273 C 
BRANCH   8  12
HETATM   12  C1  UNL     1      -4.126   0.273  15.986  1.00  0.00     0.199 C 
BRANCH  12  13
HETATM   13  O1  UNL     1      -5.021  -0.557  15.262  1.00  0.00    -0.399 OA
ATOM     14  H1  UNL     1      -5.862  -0.116  15.280  1.00  0.00     0.209 HD
ENDBRANCH  12  13
ENDBRANCH   8  12
ENDBRANCH   1   7
BRANCH   4  15
HETATM   15  C10 UNL     1      -3.987   6.474  13.289  1.00  0.00     0.154 C 
BRANCH  15  16
HETATM   16  N2  UNL     1      -2.996   7.282  13.967  1.00  0.00    -0.287 N 
HETATM   17  C11 UNL     1      -2.035   8.003  13.404  1.00  0.00     0.130 A 
HETATM   18  C12 UNL     1      -1.332   8.607  14.421  1.00  0.00     0.127 A 
HETATM   19  N3  UNL     1      -1.893   8.232  15.578  1.00  0.00    -0.296 N 
HETATM   20  N4  UNL     1      -2.892   7.436  15.297  1.00  0.00    -0.241 N 
ATOM     21  H3  UNL     1      -1.594   8.516  16.511  1.00  0.00     0.187 HD
ATOM     22  H4  UNL     1      -3.501   6.997  15.986  1.00  0.00     0.208 HD
ENDBRANCH  15  16
ENDBRANCH   4  15
TORSDOF 5
ENDMDL
MODEL 5
REMARK VINA RESULT: -6.635007170      1.062      1.358
REMARK  5 active torsions:
REMARK  status: ('A' for Active; 'I' for Inactive)
REMARK    1  A    between atoms: O1_1  and  C1_3 
REMARK    2  A    between atoms: C1_3  and  C2_4 
REMARK    3  A    between atoms: N1_8  and  C6_9 
REMARK    4  A    between atoms: C9_12  and  C10_13 
REMARK    5  A    between atoms: C10_13  and  N2_14 
ROOT
HETATM    1  C6  UNL     1      -5.088   3.378  14.957  1.00  0.00     0.223 C 
HETATM    2  C7  UNL     1      -5.194   2.944  13.535  1.00  0.00     0.036 C 
HETATM    3  C8  UNL     1      -4.112   3.671  12.765  1.00  0.00     0.008 C 
HETATM    4  C9  UNL     1      -3.298   4.608  13.589  1.00  0.00     0.006 C 
HETATM    5  C13 UNL     1      -4.053   5.542  14.465  1.00  0.00     0.008 C 
HETATM    6  C14 UNL     1      -5.278   4.867  15.024  1.00  0.00     0.036 C 
ENDROOT
BRANCH   1   7
HETATM    7  N1  UNL     1      -5.891   2.635  15.875  1.00  0.00     0.099 N 
HETATM    8  C2  UNL     1      -5.257   1.739  16.753  1.00  0.00     0.246 C 
HETATM    9  C3  UNL     1      -6.270   1.558  17.888  1.00  0.00     0.040 C 
HETATM   10  C4  UNL     1      -7.413   2.480  17.585  1.00  0.00     0.032 C 
HETATM   11  C5  UNL     1      -6.816   3.473  16.611  1.00  0.00     0.273 C 
BRANCH   8  12
HETATM   12  C1  UNL     1      -4.986   0.354  16.232  1.00  0.00     0.199 C 
BRANCH  12  13
HETATM   13  O1  UNL     1      -3.584   0.278  16.027  1.00  0.00    -0.399 OA
ATOM     14  H1  UNL     1      -3.289  -0.490  16.502  1.00  0.00     0.209 HD
ENDBRANCH  12  13
ENDBRANCH   8  12
ENDBRANCH   1   7
BRANCH   4  15
HETATM   15  C10 UNL     1      -2.473   5.449  12.629  1.00  0.00     0.154 C 
BRANCH  15  16
HETATM   16  N2  UNL     1      -1.307   4.757  12.123  1.00  0.00    -0.287 N 
HETATM   17  C11 UNL     1      -0.549   5.118  11.097  1.00  0.00     0.130 A 
HETATM   18  C12 UNL     1       0.446   4.174  10.973  1.00  0.00     0.127 A 
HETATM   19  N3  UNL     1       0.259   3.263  11.937  1.00  0.00    -0.296 N 
HETATM   20  N4  UNL     1      -0.796   3.619  12.623  1.00  0.00    -0.241 N 
ATOM     21  H3  UNL     1       0.835   2.438  12.105  1.00  0.00     0.187 HD
ATOM     22  H4  UNL     1      -1.174   3.109  13.421  1.00  0.00     0.208 HD
ENDBRANCH  15  16
ENDBRANCH   4  15
TORSDOF 5
ENDMDL
