MODEL 1
REMARK VINA RESULT: -7.422038877      0.000      0.000
REMARK  6 active torsions:
REMARK  status: ('A' for Active; 'I' for Inactive)
REMARK    1  A    between atoms: C2_2  and  O2_4 
REMARK    2  A    between atoms: O2_4  and  C3_5 
REMARK    3  A    between atoms: C4_6  and  O3_7 
REMARK    4  A    between atoms: O3_7  and  C5_8 
REMARK    5  A    between atoms: C5_8  and  C6_10 
REMARK    6  A    between atoms: C11_15  and  O5_16 
ROOT
HETATM    1  C3  UNL     1      -4.259   2.957  13.015  1.00  0.00     0.167 C 
HETATM    2  C4  UNL     1      -4.887   2.609  14.362  1.00  0.00     0.164 C 
HETATM    3  C10 UNL     1      -4.653   3.893  15.122  1.00  0.00     0.067 C 
HETATM    4  C11 UNL     1      -3.183   4.151  14.833  1.00  0.00     0.127 C 
HETATM    5  C12 UNL     1      -3.015   3.698  13.398  1.00  0.00     0.042 C 
HETATM    6  C13 UNL     1      -2.925   4.937  12.523  1.00  0.00     0.015 C 
ENDROOT
BRANCH   2   7
HETATM    7  O3  UNL     1      -4.178   1.522  14.885  1.00  0.00    -0.310 OA
BRANCH   7   8
HETATM    8  C5  UNL     1      -4.713   0.646  15.847  1.00  0.00     0.283 C 
HETATM    9  O4  UNL     1      -4.932  -0.519  15.428  1.00  0.00    -0.260 OA
BRANCH   8  10
HETATM   10  C6  UNL     1      -4.980   1.078  17.203  1.00  0.00     0.084 C 
HETATM   11  C7  UNL     1      -6.179   1.357  17.666  1.00  0.00    -0.082 C 
HETATM   12  C8  UNL     1      -7.378   1.247  16.808  1.00  0.00     0.043 C 
HETATM   13  C9  UNL     1      -6.346   1.794  19.078  1.00  0.00     0.043 C 
ENDBRANCH   8  10
ENDBRANCH   7   8
ENDBRANCH   2   7
BRANCH   1  14
HETATM   14  O2  UNL     1      -4.012   1.813  12.243  1.00  0.00    -0.313 OA
BRANCH  14  15
HETATM   15  C2  UNL     1      -5.035   1.243  11.501  1.00  0.00     0.255 C 
HETATM   16  C1  UNL     1      -5.043  -0.189  11.109  1.00  0.00     0.126 C 
HETATM   17  O1  UNL     1      -5.987   1.990  11.157  1.00  0.00    -0.266 OA
ENDBRANCH  14  15
ENDBRANCH   1  14
BRANCH   4  18
HETATM   18  O5  UNL     1      -2.379   3.401  15.688  1.00  0.00    -0.395 OA
ATOM     19  H5  UNL     1      -1.813   2.823  15.191  1.00  0.00     0.210 HD
ENDBRANCH   4  18
TORSDOF 6
ENDMDL
MODEL 2
REMARK VINA RESULT: -7.355029999      0.890      1.212
REMARK  6 active torsions:
REMARK  status: ('A' for Active; 'I' for Inactive)
REMARK    1  A    between atoms: C2_2  and  O2_4 
REMARK    2  A    between atoms: O2_4  and  C3_5 
REMARK    3  A    between atoms: C4_6  and  O3_7 
REMARK    4  A    between atoms: O3_7  and  C5_8 
REMARK    5  A    between atoms: C5_8  and  C6_10 
REMARK    6  A    between atoms: C11_15  and  O5_16 
ROOT
HETATM    1  C3  UNL     1      -4.123   3.278  13.338  1.00  0.00     0.167 C 
HETATM    2  C4  UNL     1      -4.402   3.401  14.833  1.00  0.00     0.164 C 
HETATM    3  C10 UNL     1      -3.787   4.749  15.125  1.00  0.00     0.067 C 
HETATM    4  C11 UNL     1      -2.430   4.613  14.450  1.00  0.00     0.127 C 
HETATM    5  C12 UNL     1      -2.728   3.808  13.203  1.00  0.00     0.042 C 
HETATM    6  C13 UNL     1      -2.705   4.757  12.017  1.00  0.00     0.015 C 
ENDROOT
BRANCH   2   7
HETATM    7  O3  UNL     1      -3.741   2.344  15.469  1.00  0.00    -0.310 OA
BRANCH   7   8
HETATM    8  C5  UNL     1      -4.386   1.155  15.854  1.00  0.00     0.283 C 
HETATM    9  O4  UNL     1      -3.610   0.200  16.114  1.00  0.00    -0.260 OA
BRANCH   8  10
HETATM   10  C6  UNL     1      -5.828   1.065  15.938  1.00  0.00     0.084 C 
HETATM   11  C7  UNL     1      -6.515   1.227  17.048  1.00  0.00    -0.082 C 
HETATM   12  C8  UNL     1      -5.842   1.522  18.331  1.00  0.00     0.043 C 
HETATM   13  C9  UNL     1      -7.998   1.114  17.025  1.00  0.00     0.043 C 
ENDBRANCH   8  10
ENDBRANCH   7   8
ENDBRANCH   2   7
BRANCH   1  14
HETATM   14  O2  UNL     1      -4.264   1.958  12.886  1.00  0.00    -0.313 OA
BRANCH  14  15
HETATM   15  C2  UNL     1      -4.932   1.699  11.699  1.00  0.00     0.255 C 
HETATM   16  C1  UNL     1      -5.055   0.335  11.125  1.00  0.00     0.126 C 
HETATM   17  O1  UNL     1      -5.448   2.678  11.099  1.00  0.00    -0.266 OA
ENDBRANCH  14  15
ENDBRANCH   1  14
BRANCH   4  18
HETATM   18  O5  UNL     1      -1.540   3.936  15.279  1.00  0.00    -0.395 OA
ATOM     19  H5  UNL     1      -1.997   3.565  16.025  1.00  0.00     0.210 HD
ENDBRANCH   4  18
TORSDOF 6
ENDMDL
MODEL 3
REMARK VINA RESULT: -6.811895717      1.471      1.729
REMARK  6 active torsions:
REMARK  status: ('A' for Active; 'I' for Inactive)
REMARK    1  A    between atoms: C2_2  and  O2_4 
REMARK    2  A    between atoms: O2_4  and  C3_5 
REMARK    3  A    between atoms: C4_6  and  O3_7 
REMARK    4  A    between atoms: O3_7  and  C5_8 
REMARK    5  A    between atoms: C5_8  and  C6_10 
REMARK    6  A    between atoms: C11_15  and  O5_16 
ROOT
HETATM    1  C3  UNL     1      -3.509   4.077  12.963  1.00  0.00     0.167 C 
HETATM    2  C4  UNL     1      -4.171   3.622  14.260  1.00  0.00     0.164 C 
HETATM    3  C10 UNL     1      -3.684   4.688  15.214  1.00  0.00     0.067 C 
HETATM    4  C11 UNL     1      -2.196   4.714  14.901  1.00  0.00     0.127 C 
HETATM    5  C12 UNL     1      -2.140   4.495  13.404  1.00  0.00     0.042 C 
HETATM    6  C13 UNL     1      -1.829   5.829  12.747  1.00  0.00     0.015 C 
ENDROOT
BRANCH   2   7
HETATM    7  O3  UNL     1      -3.676   2.348  14.558  1.00  0.00    -0.310 OA
BRANCH   7   8
HETATM    8  C5  UNL     1      -4.480   1.308  15.060  1.00  0.00     0.283 C 
HETATM    9  O4  UNL     1      -4.863   0.480  14.195  1.00  0.00    -0.260 OA
BRANCH   8  10
HETATM   10  C6  UNL     1      -4.823   1.223  16.464  1.00  0.00     0.084 C 
HETATM   11  C7  UNL     1      -5.892   1.772  16.997  1.00  0.00    -0.082 C 
HETATM   12  C8  UNL     1      -6.851   2.541  16.174  1.00  0.00     0.043 C 
HETATM   13  C9  UNL     1      -6.154   1.625  18.454  1.00  0.00     0.043 C 
ENDBRANCH   8  10
ENDBRANCH   7   8
ENDBRANCH   2   7
BRANCH   1  14
HETATM   14  O2  UNL     1      -3.497   3.060  11.998  1.00  0.00    -0.313 OA
BRANCH  14  15
HETATM   15  C2  UNL     1      -4.060   3.281  10.750  1.00  0.00     0.255 C 
HETATM   16  C1  UNL     1      -3.740   4.472   9.922  1.00  0.00     0.126 C 
HETATM   17  O1  UNL     1      -4.874   2.423  10.321  1.00  0.00    -0.266 OA
ENDBRANCH  14  15
ENDBRANCH   1  14
BRANCH   4  18
HETATM   18  O5  UNL     1      -1.538   3.691  15.578  1.00  0.00    -0.395 OA
ATOM     19  H5  UNL     1      -1.432   3.913  16.495  1.00  0.00     0.210 HD
ENDBRANCH   4  18
TORSDOF 6
ENDMDL
MODEL 4
REMARK VINA RESULT: -6.385209849      1.721      5.071
REMARK  6 active torsions:
REMARK  status: ('A' for Active; 'I' for Inactive)
REMARK    1  A    between atoms: C2_2  and  O2_4 
REMARK    2  A    between atoms: O2_4  and  C3_5 
REMARK    3  A    between atoms: C4_6  and  O3_7 
REMARK    4  A    between atoms: O3_7  and  C5_8 
REMARK    5  A    between atoms: C5_8  and  C6_10 
REMARK    6  A    between atoms: C11_15  and  O5_16 
ROOT
HETATM    1  C3  UNL     1      -4.257   2.204  16.146  1.00  0.00     0.167 C 
HETATM    2  C4  UNL     1      -3.837   3.415  15.317  1.00  0.00     0.164 C 
HETATM    3  C10 UNL     1      -4.942   4.387  15.656  1.00  0.00     0.067 C 
HETATM    4  C11 UNL     1      -6.176   3.520  15.457  1.00  0.00     0.127 C 
HETATM    5  C12 UNL     1      -5.743   2.158  15.957  1.00  0.00     0.042 C 
HETATM    6  C13 UNL     1      -6.377   1.936  17.319  1.00  0.00     0.015 C 
ENDROOT
BRANCH   2   7
HETATM    7  O3  UNL     1      -3.840   3.022  13.973  1.00  0.00    -0.310 OA
BRANCH   7   8
HETATM    8  C5  UNL     1      -3.191   3.749  12.959  1.00  0.00     0.283 C 
HETATM    9  O4  UNL     1      -2.007   3.389  12.735  1.00  0.00    -0.260 OA
BRANCH   8  10
HETATM   10  C6  UNL     1      -3.855   4.819  12.247  1.00  0.00     0.084 C 
HETATM   11  C7  UNL     1      -3.700   6.096  12.519  1.00  0.00    -0.082 C 
HETATM   12  C8  UNL     1      -2.805   6.545  13.608  1.00  0.00     0.043 C 
HETATM   13  C9  UNL     1      -4.431   7.119  11.725  1.00  0.00     0.043 C 
ENDBRANCH   8  10
ENDBRANCH   7   8
ENDBRANCH   2   7
BRANCH   1  14
HETATM   14  O2  UNL     1      -3.606   1.034  15.730  1.00  0.00    -0.313 OA
BRANCH  14  15
HETATM   15  C2  UNL     1      -4.319   0.036  15.083  1.00  0.00     0.255 C 
HETATM   16  C1  UNL     1      -4.371  -0.086  13.604  1.00  0.00     0.126 C 
HETATM   17  O1  UNL     1      -4.941  -0.790  15.801  1.00  0.00    -0.266 OA
ENDBRANCH  14  15
ENDBRANCH   1  14
BRANCH   4  18
HETATM   18  O5  UNL     1      -6.522   3.468  14.109  1.00  0.00    -0.395 OA
ATOM     19  H5  UNL     1      -7.353   3.905  13.962  1.00  0.00     0.210 HD
ENDBRANCH   4  18
TORSDOF 6
ENDMDL
MODEL 5
REMARK VINA RESULT: -6.342793950      1.797      2.564
REMARK  6 active torsions:
REMARK  status: ('A' for Active; 'I' for Inactive)
REMARK    1  A    between atoms: C2_2  and  O2_4 
REMARK    2  A    between atoms: O2_4  and  C3_5 
REMARK    3  A    between atoms: C4_6  and  O3_7 
REMARK    4  A    between atoms: O3_7  and  C5_8 
REMARK    5  A    between atoms: C5_8  and  C6_10 
REMARK    6  A    between atoms: C11_15  and  O5_16 
ROOT
HETATM    1  C3  UNL     1      -3.112   4.667  12.649  1.00  0.00     0.167 C 
HETATM    2  C4  UNL     1      -3.991   4.070  13.743  1.00  0.00     0.164 C 
HETATM    3  C10 UNL     1      -3.589   4.922  14.924  1.00  0.00     0.067 C 
HETATM    4  C11 UNL     1      -2.072   4.868  14.832  1.00  0.00     0.127 C 
HETATM    5  C12 UNL     1      -1.802   4.889  13.342  1.00  0.00     0.042 C 
HETATM    6  C13 UNL     1      -1.311   6.279  12.974  1.00  0.00     0.015 C 
ENDROOT
BRANCH   2   7
HETATM    7  O3  UNL     1      -3.627   2.726  13.884  1.00  0.00    -0.310 OA
BRANCH   7   8
HETATM    8  C5  UNL     1      -4.552   1.705  14.168  1.00  0.00     0.283 C 
HETATM    9  O4  UNL     1      -5.142   1.240  13.160  1.00  0.00    -0.260 OA
BRANCH   8  10
HETATM   10  C6  UNL     1      -4.786   1.245  15.521  1.00  0.00     0.084 C 
HETATM   11  C7  UNL     1      -5.686   1.758  16.330  1.00  0.00    -0.082 C 
HETATM   12  C8  UNL     1      -6.552   2.878  15.902  1.00  0.00     0.043 C 
HETATM   13  C9  UNL     1      -5.846   1.212  17.704  1.00  0.00     0.043 C 
ENDBRANCH   8  10
ENDBRANCH   7   8
ENDBRANCH   2   7
BRANCH   1  14
HETATM   14  O2  UNL     1      -3.016   3.821  11.535  1.00  0.00    -0.313 OA
BRANCH  14  15
HETATM   15  C2  UNL     1      -3.227   4.326  10.261  1.00  0.00     0.255 C 
HETATM   16  C1  UNL     1      -4.218   5.393   9.971  1.00  0.00     0.126 C 
HETATM   17  O1  UNL     1      -2.536   3.845   9.325  1.00  0.00    -0.266 OA
ENDBRANCH  14  15
ENDBRANCH   1  14
BRANCH   4  18
HETATM   18  O5  UNL     1      -1.590   3.696  15.409  1.00  0.00    -0.395 OA
ATOM     19  H5  UNL     1      -0.864   3.351  14.903  1.00  0.00     0.210 HD
ENDBRANCH   4  18
TORSDOF 6
ENDMDL
