MODEL 1
REMARK VINA RESULT: -6.987541117      0.000      0.000
REMARK  7 active torsions:
REMARK  status: ('A' for Active; 'I' for Inactive)
REMARK    1  A    between atoms: N1_6  and  C6_7 
REMARK    2  A    between atoms: C6_7  and  O1_8 
REMARK    3  A    between atoms: C6_7  and  O3_12 
REMARK    4  A    between atoms: O1_8  and  C7_9 
REMARK    5  A    between atoms: C7_9  and  O2_10 
REMARK    6  A    between atoms: O3_12  and  C8_13 
REMARK    7  A    between atoms: C8_13  and  C9_15 
ROOT
HETATM    1  C6  UNL     1      -4.573   2.254  14.242  1.00  0.00     0.517 C 
ENDROOT
BRANCH   1   2
HETATM    2  N1  UNL     1      -4.297   3.638  13.990  1.00  0.00     0.149 N 
HETATM    3  C5  UNL     1      -3.819   4.347  15.126  1.00  0.00     0.233 C 
HETATM    4  C2  UNL     1      -3.351   5.667  14.490  1.00  0.00     0.021 C 
HETATM    5  C4  UNL     1      -2.316   4.034  15.204  1.00  0.00     0.043 C 
HETATM    6  C1  UNL     1      -4.341   6.265  13.529  1.00  0.00     0.012 C 
HETATM    7  C3  UNL     1      -2.326   4.748  13.843  1.00  0.00     0.022 C 
HETATM    8  C13 UNL     1      -3.205   3.824  13.050  1.00  0.00     0.284 C 
ENDBRANCH   1   2
BRANCH   1   9
HETATM    9  O1  UNL     1      -3.760   1.410  13.479  1.00  0.00    -0.312 OA
BRANCH   9  10
HETATM   10  C7  UNL     1      -4.458   0.554  12.668  1.00  0.00     0.340 C 
BRANCH  10  11
HETATM   11  O2  UNL     1      -4.494  -0.689  13.298  1.00  0.00    -0.377 OA
ATOM     12  H2  UNL     1      -3.935  -1.278  12.804  1.00  0.00     0.212 HD
ENDBRANCH  10  11
ENDBRANCH   9  10
ENDBRANCH   1   9
BRANCH   1  13
HETATM   13  O3  UNL     1      -4.508   1.925  15.615  1.00  0.00    -0.262 OA
BRANCH  13  14
HETATM   14  C8  UNL     1      -5.462   1.137  16.242  1.00  0.00     0.270 C 
HETATM   15  O4  UNL     1      -5.412  -0.101  16.019  1.00  0.00    -0.264 OA
BRANCH  14  16
HETATM   16  C9  UNL     1      -6.503   1.732  17.143  1.00  0.00     0.037 C 
HETATM   17  C10 UNL     1      -6.857   3.143  16.706  1.00  0.00     0.025 C 
HETATM   18  C11 UNL     1      -6.091   1.701  18.579  1.00  0.00     0.025 C 
HETATM   19  C12 UNL     1      -7.755   0.898  16.980  1.00  0.00     0.025 C 
ENDBRANCH  14  16
ENDBRANCH  13  14
ENDBRANCH   1  13
TORSDOF 7
ENDMDL
MODEL 2
REMARK VINA RESULT: -6.907080078      0.740      1.371
REMARK  7 active torsions:
REMARK  status: ('A' for Active; 'I' for Inactive)
REMARK    1  A    between atoms: N1_6  and  C6_7 
REMARK    2  A    between atoms: C6_7  and  O1_8 
REMARK    3  A    between atoms: C6_7  and  O3_12 
REMARK    4  A    between atoms: O1_8  and  C7_9 
REMARK    5  A    between atoms: C7_9  and  O2_10 
REMARK    6  A    between atoms: O3_12  and  C8_13 
REMARK    7  A    between atoms: C8_13  and  C9_15 
ROOT
HETATM    1  C6  UNL     1      -4.443   2.281  14.370  1.00  0.00     0.517 C 
ENDROOT
BRANCH   1   2
HETATM    2  N1  UNL     1      -3.819   3.537  14.075  1.00  0.00     0.149 N 
HETATM    3  C5  UNL     1      -4.643   4.432  13.338  1.00  0.00     0.233 C 
HETATM    4  C2  UNL     1      -3.840   5.739  13.434  1.00  0.00     0.021 C 
HETATM    5  C4  UNL     1      -5.558   5.100  14.376  1.00  0.00     0.043 C 
HETATM    6  C1  UNL     1      -2.373   5.578  13.147  1.00  0.00     0.012 C 
HETATM    7  C3  UNL     1      -4.209   5.611  14.904  1.00  0.00     0.022 C 
HETATM    8  C13 UNL     1      -3.544   4.316  15.271  1.00  0.00     0.284 C 
ENDBRANCH   1   2
BRANCH   1   9
HETATM    9  O1  UNL     1      -3.850   1.225  13.673  1.00  0.00    -0.312 OA
BRANCH   9  10
HETATM   10  C7  UNL     1      -4.570   0.806  12.585  1.00  0.00     0.340 C 
BRANCH  10  11
HETATM   11  O2  UNL     1      -4.545  -0.587  12.573  1.00  0.00    -0.377 OA
ATOM     12  H2  UNL     1      -5.440  -0.891  12.472  1.00  0.00     0.212 HD
ENDBRANCH  10  11
ENDBRANCH   9  10
ENDBRANCH   1   9
BRANCH   1  13
HETATM   13  O3  UNL     1      -4.500   2.012  15.757  1.00  0.00    -0.262 OA
BRANCH  13  14
HETATM   14  C8  UNL     1      -5.465   1.190  16.321  1.00  0.00     0.270 C 
HETATM   15  O4  UNL     1      -5.407  -0.034  16.034  1.00  0.00    -0.264 OA
BRANCH  14  16
HETATM   16  C9  UNL     1      -6.527   1.734  17.230  1.00  0.00     0.037 C 
HETATM   17  C10 UNL     1      -6.913   3.148  16.828  1.00  0.00     0.025 C 
HETATM   18  C11 UNL     1      -6.125   1.674  18.668  1.00  0.00     0.025 C 
HETATM   19  C12 UNL     1      -7.757   0.874  17.034  1.00  0.00     0.025 C 
ENDBRANCH  14  16
ENDBRANCH  13  14
ENDBRANCH   1  13
TORSDOF 7
ENDMDL
MODEL 3
REMARK VINA RESULT: -6.863322924      0.736      1.685
REMARK  7 active torsions:
REMARK  status: ('A' for Active; 'I' for Inactive)
REMARK    1  A    between atoms: N1_6  and  C6_7 
REMARK    2  A    between atoms: C6_7  and  O1_8 
REMARK    3  A    between atoms: C6_7  and  O3_12 
REMARK    4  A    between atoms: O1_8  and  C7_9 
REMARK    5  A    between atoms: C7_9  and  O2_10 
REMARK    6  A    between atoms: O3_12  and  C8_13 
REMARK    7  A    between atoms: C8_13  and  C9_15 
ROOT
HETATM    1  C6  UNL     1      -4.446   2.284  14.335  1.00  0.00     0.517 C 
ENDROOT
BRANCH   1   2
HETATM    2  N1  UNL     1      -3.801   3.530  14.043  1.00  0.00     0.149 N 
HETATM    3  C5  UNL     1      -4.621   4.454  13.337  1.00  0.00     0.233 C 
HETATM    4  C2  UNL     1      -3.787   5.742  13.434  1.00  0.00     0.021 C 
HETATM    5  C4  UNL     1      -5.498   5.126  14.405  1.00  0.00     0.043 C 
HETATM    6  C1  UNL     1      -2.331   5.553  13.112  1.00  0.00     0.012 C 
HETATM    7  C3  UNL     1      -4.127   5.600  14.910  1.00  0.00     0.022 C 
HETATM    8  C13 UNL     1      -3.483   4.285  15.243  1.00  0.00     0.284 C 
ENDBRANCH   1   2
BRANCH   1   9
HETATM    9  O1  UNL     1      -3.867   1.219  13.638  1.00  0.00    -0.312 OA
BRANCH   9  10
HETATM   10  C7  UNL     1      -4.581   0.826  12.537  1.00  0.00     0.340 C 
BRANCH  10  11
HETATM   11  O2  UNL     1      -4.569  -0.568  12.501  1.00  0.00    -0.377 OA
ATOM     12  H2  UNL     1      -5.194  -0.878  13.146  1.00  0.00     0.212 HD
ENDBRANCH  10  11
ENDBRANCH   9  10
ENDBRANCH   1   9
BRANCH   1  13
HETATM   13  O3  UNL     1      -4.513   2.015  15.721  1.00  0.00    -0.262 OA
BRANCH  13  14
HETATM   14  C8  UNL     1      -5.473   1.182  16.276  1.00  0.00     0.270 C 
HETATM   15  O4  UNL     1      -5.380  -0.046  16.016  1.00  0.00    -0.264 OA
BRANCH  14  16
HETATM   16  C9  UNL     1      -6.571   1.720  17.146  1.00  0.00     0.037 C 
HETATM   17  C10 UNL     1      -7.813   0.851  17.051  1.00  0.00     0.025 C 
HETATM   18  C11 UNL     1      -6.889   3.147  16.835  1.00  0.00     0.025 C 
HETATM   19  C12 UNL     1      -6.084   1.632  18.576  1.00  0.00     0.025 C 
ENDBRANCH  14  16
ENDBRANCH  13  14
ENDBRANCH   1  13
TORSDOF 7
ENDMDL
MODEL 4
REMARK VINA RESULT: -6.816495818      0.734      1.697
REMARK  7 active torsions:
REMARK  status: ('A' for Active; 'I' for Inactive)
REMARK    1  A    between atoms: N1_6  and  C6_7 
REMARK    2  A    between atoms: C6_7  and  O1_8 
REMARK    3  A    between atoms: C6_7  and  O3_12 
REMARK    4  A    between atoms: O1_8  and  C7_9 
REMARK    5  A    between atoms: C7_9  and  O2_10 
REMARK    6  A    between atoms: O3_12  and  C8_13 
REMARK    7  A    between atoms: C8_13  and  C9_15 
ROOT
HETATM    1  C6  UNL     1      -4.451   2.276  14.372  1.00  0.00     0.517 C 
ENDROOT
BRANCH   1   2
HETATM    2  N1  UNL     1      -3.813   3.525  14.077  1.00  0.00     0.149 N 
HETATM    3  C5  UNL     1      -4.624   4.428  13.337  1.00  0.00     0.233 C 
HETATM    4  C2  UNL     1      -3.808   5.727  13.435  1.00  0.00     0.021 C 
HETATM    5  C4  UNL     1      -5.535   5.107  14.372  1.00  0.00     0.043 C 
HETATM    6  C1  UNL     1      -2.342   5.549  13.151  1.00  0.00     0.012 C 
HETATM    7  C3  UNL     1      -4.182   5.604  14.903  1.00  0.00     0.022 C 
HETATM    8  C13 UNL     1      -3.533   4.301  15.273  1.00  0.00     0.284 C 
ENDBRANCH   1   2
BRANCH   1   9
HETATM    9  O1  UNL     1      -3.852   1.209  13.695  1.00  0.00    -0.312 OA
BRANCH   9  10
HETATM   10  C7  UNL     1      -4.547   0.796  12.589  1.00  0.00     0.340 C 
BRANCH  10  11
HETATM   11  O2  UNL     1      -4.529  -0.597  12.574  1.00  0.00    -0.377 OA
ATOM     12  H2  UNL     1      -5.167  -0.900  13.209  1.00  0.00     0.212 HD
ENDBRANCH  10  11
ENDBRANCH   9  10
ENDBRANCH   1   9
BRANCH   1  13
HETATM   13  O3  UNL     1      -4.536   2.020  15.760  1.00  0.00    -0.262 OA
BRANCH  13  14
HETATM   14  C8  UNL     1      -5.473   1.155  16.305  1.00  0.00     0.270 C 
HETATM   15  O4  UNL     1      -5.364  -0.063  16.007  1.00  0.00    -0.264 OA
BRANCH  14  16
HETATM   16  C9  UNL     1      -6.567   1.649  17.207  1.00  0.00     0.037 C 
HETATM   17  C10 UNL     1      -6.107   1.670  18.654  1.00  0.00     0.025 C 
HETATM   18  C11 UNL     1      -7.825   0.857  17.053  1.00  0.00     0.025 C 
HETATM   19  C12 UNL     1      -6.846   3.084  16.816  1.00  0.00     0.025 C 
ENDBRANCH  14  16
ENDBRANCH  13  14
ENDBRANCH   1  13
TORSDOF 7
ENDMDL
MODEL 5
REMARK VINA RESULT: -6.592221153      0.824      1.430
REMARK  7 active torsions:
REMARK  status: ('A' for Active; 'I' for Inactive)
REMARK    1  A    between atoms: N1_6  and  C6_7 
REMARK    2  A    between atoms: C6_7  and  O1_8 
REMARK    3  A    between atoms: C6_7  and  O3_12 
REMARK    4  A    between atoms: O1_8  and  C7_9 
REMARK    5  A    between atoms: C7_9  and  O2_10 
REMARK    6  A    between atoms: O3_12  and  C8_13 
REMARK    7  A    between atoms: C8_13  and  C9_15 
ROOT
HETATM    1  C6  UNL     1      -4.559   2.583  14.568  1.00  0.00     0.517 C 
ENDROOT
BRANCH   1   2
HETATM    2  N1  UNL     1      -4.266   3.985  14.565  1.00  0.00     0.149 N 
HETATM    3  C5  UNL     1      -3.403   4.393  13.511  1.00  0.00     0.233 C 
HETATM    4  C2  UNL     1      -3.516   5.924  13.595  1.00  0.00     0.021 C 
HETATM    5  C4  UNL     1      -4.305   4.551  12.277  1.00  0.00     0.043 C 
HETATM    6  C1  UNL     1      -3.390   6.469  14.991  1.00  0.00     0.012 C 
HETATM    7  C3  UNL     1      -4.944   5.632  13.162  1.00  0.00     0.022 C 
HETATM    8  C13 UNL     1      -5.443   4.798  14.306  1.00  0.00     0.284 C 
ENDBRANCH   1   2
BRANCH   1   9
HETATM    9  O1  UNL     1      -3.765   1.880  13.656  1.00  0.00    -0.312 OA
BRANCH   9  10
HETATM   10  C7  UNL     1      -4.471   1.017  12.859  1.00  0.00     0.340 C 
BRANCH  10  11
HETATM   11  O2  UNL     1      -4.450  -0.236  13.470  1.00  0.00    -0.377 OA
ATOM     12  H2  UNL     1      -5.017  -0.810  12.969  1.00  0.00     0.212 HD
ENDBRANCH  10  11
ENDBRANCH   9  10
ENDBRANCH   1   9
BRANCH   1  13
HETATM   13  O3  UNL     1      -4.484   2.012  15.859  1.00  0.00    -0.262 OA
BRANCH  13  14
HETATM   14  C8  UNL     1      -5.479   1.194  16.375  1.00  0.00     0.270 C 
HETATM   15  O4  UNL     1      -5.448  -0.020  16.039  1.00  0.00    -0.264 OA
BRANCH  14  16
HETATM   16  C9  UNL     1      -6.541   1.729  17.289  1.00  0.00     0.037 C 
HETATM   17  C10 UNL     1      -6.949   3.135  16.881  1.00  0.00     0.025 C 
HETATM   18  C11 UNL     1      -6.126   1.684  18.724  1.00  0.00     0.025 C 
HETATM   19  C12 UNL     1      -7.761   0.851  17.109  1.00  0.00     0.025 C 
ENDBRANCH  14  16
ENDBRANCH  13  14
ENDBRANCH   1  13
TORSDOF 7
ENDMDL
