MODEL 1
REMARK VINA RESULT: -6.770635082      0.000      0.000
REMARK  6 active torsions:
REMARK  status: ('A' for Active; 'I' for Inactive)
REMARK    1  A    between atoms: O1_2  and  C2_3 
REMARK    2  A    between atoms: C2_3  and  C3_4 
REMARK    3  A    between atoms: C4_5  and  C5_6 
REMARK    4  A    between atoms: C5_6  and  O2_7 
REMARK    5  A    between atoms: O2_7  and  C6_8 
REMARK    6  A    between atoms: C6_8  and  C7_10 
ROOT
HETATM    1  C7  UNL     1      -3.634   2.937  13.056  1.00  0.00     0.195 C 
HETATM    2  C8  UNL     1      -4.461   4.008  13.657  1.00  0.00     0.038 C 
HETATM    3  C9  UNL     1      -3.732   4.915  14.636  1.00  0.00    -0.001 C 
HETATM    4  C10 UNL     1      -2.254   4.575  14.743  1.00  0.00     0.029 C 
HETATM    5  C11 UNL     1      -2.064   5.398  13.486  1.00  0.00     0.103 C 
HETATM    6  N1  UNL     1      -2.201   4.607  12.314  1.00  0.00    -0.142 NA
HETATM    7  N2  UNL     1      -2.351   3.222  12.564  1.00  0.00    -0.133 NA
HETATM    8  C12 UNL     1      -3.295   6.187  13.899  1.00  0.00    -0.025 C 
HETATM    9  C13 UNL     1      -2.921   7.268  14.896  1.00  0.00     0.017 C 
HETATM   10  C14 UNL     1      -4.196   6.655  12.815  1.00  0.00     0.017 C 
ENDROOT
BRANCH   1  11
HETATM   11  C6  UNL     1      -4.504   2.382  11.935  1.00  0.00     0.280 C 
HETATM   12  O3  UNL     1      -5.038   3.076  11.058  1.00  0.00    -0.263 OA
BRANCH  11  13
HETATM   13  O2  UNL     1      -4.696   1.013  11.907  1.00  0.00    -0.308 OA
BRANCH  13  14
HETATM   14  C5  UNL     1      -4.248   0.077  12.769  1.00  0.00     0.272 C 
BRANCH  14  15
HETATM   15  C4  UNL     1      -4.496   0.132  14.151  1.00  0.00    -0.078 C 
HETATM   16  C3  UNL     1      -4.805   0.267  15.305  1.00  0.00    -0.078 C 
BRANCH  16  17
HETATM   17  C2  UNL     1      -5.259   0.531  16.711  1.00  0.00     0.260 C 
BRANCH  17  18
HETATM   18  O1  UNL     1      -6.526   0.039  16.792  1.00  0.00    -0.384 OA
HETATM   19  C1  UNL     1      -7.497   0.986  17.138  1.00  0.00     0.202 C 
ENDBRANCH  17  18
ENDBRANCH  16  17
ENDBRANCH  14  15
ENDBRANCH  13  14
ENDBRANCH  11  13
ENDBRANCH   1  11
TORSDOF 6
ENDMDL
MODEL 2
REMARK VINA RESULT: -6.751944936      1.265      1.735
REMARK  6 active torsions:
REMARK  status: ('A' for Active; 'I' for Inactive)
REMARK    1  A    between atoms: O1_2  and  C2_3 
REMARK    2  A    between atoms: C2_3  and  C3_4 
REMARK    3  A    between atoms: C4_5  and  C5_6 
REMARK    4  A    between atoms: C5_6  and  O2_7 
REMARK    5  A    between atoms: O2_7  and  C6_8 
REMARK    6  A    between atoms: C6_8  and  C7_10 
ROOT
HETATM    1  C7  UNL     1      -3.952   3.516  11.746  1.00  0.00     0.195 C 
HETATM    2  C8  UNL     1      -3.169   3.682  12.992  1.00  0.00     0.038 C 
HETATM    3  C9  UNL     1      -2.632   5.084  13.237  1.00  0.00    -0.001 C 
HETATM    4  C10 UNL     1      -3.082   6.066  12.167  1.00  0.00     0.029 C 
HETATM    5  C11 UNL     1      -4.378   6.181  12.942  1.00  0.00     0.103 C 
HETATM    6  N1  UNL     1      -5.332   5.219  12.516  1.00  0.00    -0.142 NA
HETATM    7  N2  UNL     1      -4.928   4.460  11.391  1.00  0.00    -0.133 NA
HETATM    8  C12 UNL     1      -3.585   5.818  14.188  1.00  0.00    -0.025 C 
HETATM    9  C13 UNL     1      -2.908   7.049  14.760  1.00  0.00     0.017 C 
HETATM   10  C14 UNL     1      -4.267   4.979  15.205  1.00  0.00     0.017 C 
ENDROOT
BRANCH   1  11
HETATM   11  C6  UNL     1      -4.594   2.142  11.892  1.00  0.00     0.280 C 
HETATM   12  O3  UNL     1      -5.729   1.856  11.488  1.00  0.00    -0.263 OA
BRANCH  11  13
HETATM   13  O2  UNL     1      -3.844   1.162  12.516  1.00  0.00    -0.308 OA
BRANCH  13  14
HETATM   14  C5  UNL     1      -4.251   0.195  13.364  1.00  0.00     0.272 C 
BRANCH  14  15
HETATM   15  C4  UNL     1      -4.604   0.451  14.700  1.00  0.00    -0.078 C 
HETATM   16  C3  UNL     1      -4.965   0.548  15.843  1.00  0.00    -0.078 C 
BRANCH  16  17
HETATM   17  C2  UNL     1      -5.483   0.571  17.251  1.00  0.00     0.260 C 
BRANCH  17  18
HETATM   18  O1  UNL     1      -6.752   0.083  17.191  1.00  0.00    -0.384 OA
HETATM   19  C1  UNL     1      -7.742   1.054  17.004  1.00  0.00     0.202 C 
ENDBRANCH  17  18
ENDBRANCH  16  17
ENDBRANCH  14  15
ENDBRANCH  13  14
ENDBRANCH  11  13
ENDBRANCH   1  11
TORSDOF 6
ENDMDL
MODEL 3
REMARK VINA RESULT: -6.559887746      1.298      1.434
REMARK  6 active torsions:
REMARK  status: ('A' for Active; 'I' for Inactive)
REMARK    1  A    between atoms: O1_2  and  C2_3 
REMARK    2  A    between atoms: C2_3  and  C3_4 
REMARK    3  A    between atoms: C4_5  and  C5_6 
REMARK    4  A    between atoms: C5_6  and  O2_7 
REMARK    5  A    between atoms: O2_7  and  C6_8 
REMARK    6  A    between atoms: C6_8  and  C7_10 
ROOT
HETATM    1  C7  UNL     1      -3.906   3.571  12.754  1.00  0.00     0.195 C 
HETATM    2  C8  UNL     1      -4.525   4.856  13.148  1.00  0.00     0.038 C 
HETATM    3  C9  UNL     1      -3.902   5.528  14.362  1.00  0.00    -0.001 C 
HETATM    4  C10 UNL     1      -2.697   4.763  14.887  1.00  0.00     0.029 C 
HETATM    5  C11 UNL     1      -1.896   5.458  13.807  1.00  0.00     0.103 C 
HETATM    6  N1  UNL     1      -1.890   4.714  12.596  1.00  0.00    -0.142 NA
HETATM    7  N2  UNL     1      -2.510   3.445  12.694  1.00  0.00    -0.133 NA
HETATM    8  C12 UNL     1      -2.906   6.591  13.881  1.00  0.00    -0.025 C 
HETATM    9  C13 UNL     1      -2.558   7.535  15.016  1.00  0.00     0.017 C 
HETATM   10  C14 UNL     1      -3.249   7.279  12.610  1.00  0.00     0.017 C 
ENDROOT
BRANCH   1  11
HETATM   11  C6  UNL     1      -4.510   3.273  11.386  1.00  0.00     0.280 C 
HETATM   12  O3  UNL     1      -4.353   3.986  10.386  1.00  0.00    -0.263 OA
BRANCH  11  13
HETATM   13  O2  UNL     1      -5.276   2.128  11.273  1.00  0.00    -0.308 OA
BRANCH  13  14
HETATM   14  C5  UNL     1      -4.931   0.849  11.532  1.00  0.00     0.272 C 
BRANCH  14  15
HETATM   15  C4  UNL     1      -4.587   0.397  12.817  1.00  0.00    -0.078 C 
HETATM   16  C3  UNL     1      -4.405   0.071  13.960  1.00  0.00    -0.078 C 
BRANCH  16  17
HETATM   17  C2  UNL     1      -4.269  -0.262  15.417  1.00  0.00     0.260 C 
BRANCH  17  18
HETATM   18  O1  UNL     1      -3.649   0.807  15.988  1.00  0.00    -0.384 OA
HETATM   19  C1  UNL     1      -4.499   1.871  16.306  1.00  0.00     0.202 C 
ENDBRANCH  17  18
ENDBRANCH  16  17
ENDBRANCH  14  15
ENDBRANCH  13  14
ENDBRANCH  11  13
ENDBRANCH   1  11
TORSDOF 6
ENDMDL
MODEL 4
REMARK VINA RESULT: -6.526404031      1.528      1.860
REMARK  6 active torsions:
REMARK  status: ('A' for Active; 'I' for Inactive)
REMARK    1  A    between atoms: O1_2  and  C2_3 
REMARK    2  A    between atoms: C2_3  and  C3_4 
REMARK    3  A    between atoms: C4_5  and  C5_6 
REMARK    4  A    between atoms: C5_6  and  O2_7 
REMARK    5  A    between atoms: O2_7  and  C6_8 
REMARK    6  A    between atoms: C6_8  and  C7_10 
ROOT
HETATM    1  C7  UNL     1      -3.947   2.740  11.323  1.00  0.00     0.195 C 
HETATM    2  C8  UNL     1      -3.748   3.340  12.662  1.00  0.00     0.038 C 
HETATM    3  C9  UNL     1      -3.012   4.671  12.671  1.00  0.00    -0.001 C 
HETATM    4  C10 UNL     1      -2.692   5.160  11.267  1.00  0.00     0.029 C 
HETATM    5  C11 UNL     1      -4.111   5.685  11.220  1.00  0.00     0.103 C 
HETATM    6  N1  UNL     1      -5.015   4.712  10.717  1.00  0.00    -0.142 NA
HETATM    7  N2  UNL     1      -4.393   3.529  10.251  1.00  0.00    -0.133 NA
HETATM    8  C12 UNL     1      -4.044   5.805  12.734  1.00  0.00    -0.025 C 
HETATM    9  C13 UNL     1      -3.370   7.104  13.132  1.00  0.00     0.017 C 
HETATM   10  C14 UNL     1      -5.287   5.514  13.493  1.00  0.00     0.017 C 
ENDROOT
BRANCH   1  11
HETATM   11  C6  UNL     1      -4.931   1.602  11.569  1.00  0.00     0.280 C 
HETATM   12  O3  UNL     1      -6.147   1.758  11.744  1.00  0.00    -0.263 OA
BRANCH  11  13
HETATM   13  O2  UNL     1      -4.415   0.320  11.593  1.00  0.00    -0.308 OA
BRANCH  13  14
HETATM   14  C5  UNL     1      -4.236  -0.502  12.647  1.00  0.00     0.272 C 
BRANCH  14  15
HETATM   15  C4  UNL     1      -4.411  -0.085  13.978  1.00  0.00    -0.078 C 
HETATM   16  C3  UNL     1      -4.693   0.281  15.088  1.00  0.00    -0.078 C 
BRANCH  16  17
HETATM   17  C2  UNL     1      -5.156   0.764  16.431  1.00  0.00     0.260 C 
BRANCH  17  18
HETATM   18  O1  UNL     1      -6.275   0.047  16.721  1.00  0.00    -0.384 OA
HETATM   19  C1  UNL     1      -7.353   0.810  17.185  1.00  0.00     0.202 C 
ENDBRANCH  17  18
ENDBRANCH  16  17
ENDBRANCH  14  15
ENDBRANCH  13  14
ENDBRANCH  11  13
ENDBRANCH   1  11
TORSDOF 6
ENDMDL
MODEL 5
REMARK VINA RESULT: -6.444056464      2.536      3.692
REMARK  6 active torsions:
REMARK  status: ('A' for Active; 'I' for Inactive)
REMARK    1  A    between atoms: O1_2  and  C2_3 
REMARK    2  A    between atoms: C2_3  and  C3_4 
REMARK    3  A    between atoms: C4_5  and  C5_6 
REMARK    4  A    between atoms: C5_6  and  O2_7 
REMARK    5  A    between atoms: O2_7  and  C6_8 
REMARK    6  A    between atoms: C6_8  and  C7_10 
ROOT
HETATM    1  C7  UNL     1      -4.364   5.248  11.626  1.00  0.00     0.195 C 
HETATM    2  C8  UNL     1      -4.813   6.482  12.310  1.00  0.00     0.038 C 
HETATM    3  C9  UNL     1      -4.851   7.728  11.437  1.00  0.00    -0.001 C 
HETATM    4  C10 UNL     1      -4.485   7.428   9.992  1.00  0.00     0.029 C 
HETATM    5  C11 UNL     1      -5.920   6.981   9.813  1.00  0.00     0.103 C 
HETATM    6  N1  UNL     1      -6.079   5.598  10.100  1.00  0.00    -0.142 NA
HETATM    7  N2  UNL     1      -4.866   4.917  10.358  1.00  0.00    -0.133 NA
HETATM    8  C12 UNL     1      -6.286   7.936  10.937  1.00  0.00    -0.025 C 
HETATM    9  C13 UNL     1      -6.454   9.344  10.400  1.00  0.00     0.017 C 
HETATM   10  C14 UNL     1      -7.368   7.512  11.862  1.00  0.00     0.017 C 
ENDROOT
BRANCH   1  11
HETATM   11  C6  UNL     1      -4.690   4.137  12.616  1.00  0.00     0.280 C 
HETATM   12  O3  UNL     1      -5.052   2.998  12.292  1.00  0.00    -0.263 OA
BRANCH  11  13
HETATM   13  O2  UNL     1      -4.563   4.436  13.960  1.00  0.00    -0.308 OA
BRANCH  13  14
HETATM   14  C5  UNL     1      -3.854   3.789  14.909  1.00  0.00     0.272 C 
BRANCH  14  15
HETATM   15  C4  UNL     1      -4.400   2.768  15.705  1.00  0.00    -0.078 C 
HETATM   16  C3  UNL     1      -4.821   1.807  16.293  1.00  0.00    -0.078 C 
BRANCH  16  17
HETATM   17  C2  UNL     1      -5.321   0.543  16.928  1.00  0.00     0.260 C 
BRANCH  17  18
HETATM   18  O1  UNL     1      -6.570   0.342  16.427  1.00  0.00    -0.384 OA
HETATM   19  C1  UNL     1      -7.590   0.999  17.122  1.00  0.00     0.202 C 
ENDBRANCH  17  18
ENDBRANCH  16  17
ENDBRANCH  14  15
ENDBRANCH  13  14
ENDBRANCH  11  13
ENDBRANCH   1  11
TORSDOF 6
ENDMDL
