MODEL 1
REMARK VINA RESULT: -7.528667466      0.000      0.000
REMARK  5 active torsions:
REMARK  status: ('A' for Active; 'I' for Inactive)
REMARK    1  A    between atoms: C4_6  and  C6_9 
REMARK    2  A    between atoms: C6_9  and  O1_10 
REMARK    3  A    between atoms: C6_9  and  N4_12 
REMARK    4  A    between atoms: N4_12  and  N5_14 
REMARK    5  A    between atoms: C7_16  and  C8_17 
ROOT
HETATM    1  N1  UNL     1      -5.438   5.849  12.407  1.00  0.00    -0.191 NA
HETATM    2  C1  UNL     1      -4.389   5.351  12.186  1.00  0.00     0.112 C 
HETATM    3  C2  UNL     1      -3.160   4.754  11.869  1.00  0.00     0.149 C 
HETATM    4  C3  UNL     1      -2.986   4.310  10.461  1.00  0.00     0.112 C 
HETATM    5  N2  UNL     1      -2.846   3.989   9.380  1.00  0.00    -0.191 NA
HETATM    6  C4  UNL     1      -2.164   4.547  12.670  1.00  0.00     0.128 C 
HETATM    7  C5  UNL     1      -0.992   3.878  11.991  1.00  0.00     0.106 C 
HETATM    8  N3  UNL     1      -0.093   3.369  11.493  1.00  0.00    -0.191 NA
ENDROOT
BRANCH   6   9
HETATM    9  C6  UNL     1      -1.981   4.835  14.059  1.00  0.00     0.178 C 
BRANCH   9  10
HETATM   10  O1  UNL     1      -1.971   6.099  14.381  1.00  0.00    -0.344 OA
ATOM     11  H1  UNL     1      -2.496   6.338  15.136  1.00  0.00     0.219 HD
ENDBRANCH   9  10
BRANCH   9  12
HETATM   12  N4  UNL     1      -1.811   3.971  15.123  1.00  0.00    -0.280 N 
ATOM     13  H4  UNL     1      -0.938   3.956  15.651  1.00  0.00     0.189 HD
BRANCH  12  14
HETATM   14  N5  UNL     1      -2.893   3.096  15.466  1.00  0.00    -0.313 N 
HETATM   15  C7  UNL     1      -4.102   3.426  15.269  1.00  0.00     0.085 C 
ATOM     16  H5  UNL     1      -2.685   2.187  15.877  1.00  0.00     0.185 HD
BRANCH  15  17
HETATM   17  C8  UNL     1      -5.191   2.492  15.638  1.00  0.00     0.029 C 
HETATM   18  C9  UNL     1      -4.738   1.515  16.715  1.00  0.00     0.036 C 
HETATM   19  C10 UNL     1      -5.864   0.563  16.916  1.00  0.00    -0.030 C 
HETATM   20  C11 UNL     1      -7.065   1.085  17.140  1.00  0.00    -0.031 C 
HETATM   21  C12 UNL     1      -7.183   2.575  17.171  1.00  0.00     0.027 C 
HETATM   22  C13 UNL     1      -6.445   3.211  16.024  1.00  0.00     0.014 C 
ENDBRANCH  15  17
ENDBRANCH  12  14
ENDBRANCH   9  12
ENDBRANCH   6   9
TORSDOF 5
ENDMDL
MODEL 2
REMARK VINA RESULT: -7.422829121      3.325      5.841
REMARK  5 active torsions:
REMARK  status: ('A' for Active; 'I' for Inactive)
REMARK    1  A    between atoms: C4_6  and  C6_9 
REMARK    2  A    between atoms: C6_9  and  O1_10 
REMARK    3  A    between atoms: C6_9  and  N4_12 
REMARK    4  A    between atoms: N4_12  and  N5_14 
REMARK    5  A    between atoms: C7_16  and  C8_17 
ROOT
HETATM    1  N1  UNL     1      -4.788   2.874  10.503  1.00  0.00    -0.191 NA
HETATM    2  C1  UNL     1      -4.736   2.173  11.455  1.00  0.00     0.112 C 
HETATM    3  C2  UNL     1      -4.665   1.296  12.547  1.00  0.00     0.149 C 
HETATM    4  C3  UNL     1      -4.428  -0.137  12.229  1.00  0.00     0.112 C 
HETATM    5  N2  UNL     1      -4.227  -1.229  11.987  1.00  0.00    -0.191 NA
HETATM    6  C4  UNL     1      -4.784   1.600  13.800  1.00  0.00     0.128 C 
HETATM    7  C5  UNL     1      -4.653   0.403  14.711  1.00  0.00     0.106 C 
HETATM    8  N3  UNL     1      -4.557  -0.494  15.419  1.00  0.00    -0.191 NA
ENDROOT
BRANCH   6   9
HETATM    9  C6  UNL     1      -5.013   2.847  14.461  1.00  0.00     0.178 C 
BRANCH   9  10
HETATM   10  O1  UNL     1      -6.206   3.355  14.321  1.00  0.00    -0.344 OA
ATOM     11  H1  UNL     1      -6.807   3.206  15.042  1.00  0.00     0.219 HD
ENDBRANCH   9  10
BRANCH   9  12
HETATM   12  N4  UNL     1      -4.155   3.606  15.234  1.00  0.00    -0.280 N 
ATOM     13  H4  UNL     1      -3.957   3.349  16.201  1.00  0.00     0.189 HD
BRANCH  12  14
HETATM   14  N5  UNL     1      -3.551   4.762  14.641  1.00  0.00    -0.313 N 
HETATM   15  C7  UNL     1      -3.773   5.929  15.084  1.00  0.00     0.085 C 
ATOM     16  H5  UNL     1      -2.926   4.642  13.843  1.00  0.00     0.185 HD
BRANCH  15  17
HETATM   17  C8  UNL     1      -3.129   7.098  14.441  1.00  0.00     0.029 C 
HETATM   18  C9  UNL     1      -2.448   7.989  15.473  1.00  0.00     0.036 C 
HETATM   19  C10 UNL     1      -1.945   9.178  14.732  1.00  0.00    -0.030 C 
HETATM   20  C11 UNL     1      -1.205   8.949  13.652  1.00  0.00    -0.031 C 
HETATM   21  C12 UNL     1      -0.941   7.526  13.276  1.00  0.00     0.027 C 
HETATM   22  C13 UNL     1      -2.195   6.696  13.344  1.00  0.00     0.014 C 
ENDBRANCH  15  17
ENDBRANCH  12  14
ENDBRANCH   9  12
ENDBRANCH   6   9
TORSDOF 5
ENDMDL
MODEL 3
REMARK VINA RESULT: -7.322330380      3.132      5.816
REMARK  5 active torsions:
REMARK  status: ('A' for Active; 'I' for Inactive)
REMARK    1  A    between atoms: C4_6  and  C6_9 
REMARK    2  A    between atoms: C6_9  and  O1_10 
REMARK    3  A    between atoms: C6_9  and  N4_12 
REMARK    4  A    between atoms: N4_12  and  N5_14 
REMARK    5  A    between atoms: C7_16  and  C8_17 
ROOT
HETATM    1  N1  UNL     1      -5.801   3.916  15.193  1.00  0.00    -0.191 NA
HETATM    2  C1  UNL     1      -5.383   2.922  14.707  1.00  0.00     0.112 C 
HETATM    3  C2  UNL     1      -4.881   1.721  14.185  1.00  0.00     0.149 C 
HETATM    4  C3  UNL     1      -4.477   0.689  15.174  1.00  0.00     0.112 C 
HETATM    5  N2  UNL     1      -4.186  -0.108  15.930  1.00  0.00    -0.191 NA
HETATM    6  C4  UNL     1      -4.732   1.417  12.935  1.00  0.00     0.128 C 
HETATM    7  C5  UNL     1      -4.162   0.034  12.730  1.00  0.00     0.106 C 
HETATM    8  N3  UNL     1      -3.728  -1.013  12.554  1.00  0.00    -0.191 NA
ENDROOT
BRANCH   6   9
HETATM    9  C6  UNL     1      -5.008   2.147  11.736  1.00  0.00     0.178 C 
BRANCH   9  10
HETATM   10  O1  UNL     1      -6.103   1.818  11.109  1.00  0.00    -0.344 OA
ATOM     11  H1  UNL     1      -6.542   2.521  10.645  1.00  0.00     0.219 HD
ENDBRANCH   9  10
BRANCH   9  12
HETATM   12  N4  UNL     1      -4.285   3.158  11.134  1.00  0.00    -0.280 N 
ATOM     13  H4  UNL     1      -3.824   3.010  10.236  1.00  0.00     0.189 HD
BRANCH  12  14
HETATM   14  N5  UNL     1      -4.198   4.421  11.805  1.00  0.00    -0.313 N 
HETATM   15  C7  UNL     1      -3.157   4.764  12.444  1.00  0.00     0.085 C 
ATOM     16  H5  UNL     1      -4.992   5.060  11.767  1.00  0.00     0.185 HD
BRANCH  15  17
HETATM   17  C8  UNL     1      -3.109   6.079  13.125  1.00  0.00     0.029 C 
HETATM   18  C9  UNL     1      -2.908   5.917  14.626  1.00  0.00     0.036 C 
HETATM   19  C10 UNL     1      -2.994   7.283  15.210  1.00  0.00    -0.030 C 
HETATM   20  C11 UNL     1      -2.226   8.222  14.668  1.00  0.00    -0.031 C 
HETATM   21  C12 UNL     1      -1.347   7.830  13.524  1.00  0.00     0.027 C 
HETATM   22  C13 UNL     1      -2.090   6.992  12.518  1.00  0.00     0.014 C 
ENDBRANCH  15  17
ENDBRANCH  12  14
ENDBRANCH   9  12
ENDBRANCH   6   9
TORSDOF 5
ENDMDL
MODEL 4
REMARK VINA RESULT: -7.256802415      3.344      6.172
REMARK  5 active torsions:
REMARK  status: ('A' for Active; 'I' for Inactive)
REMARK    1  A    between atoms: C4_6  and  C6_9 
REMARK    2  A    between atoms: C6_9  and  O1_10 
REMARK    3  A    between atoms: C6_9  and  N4_12 
REMARK    4  A    between atoms: N4_12  and  N5_14 
REMARK    5  A    between atoms: C7_16  and  C8_17 
ROOT
HETATM    1  N1  UNL     1      -3.859  -1.610  11.911  1.00  0.00    -0.191 NA
HETATM    2  C1  UNL     1      -4.122  -0.673  12.584  1.00  0.00     0.112 C 
HETATM    3  C2  UNL     1      -4.424   0.405  13.429  1.00  0.00     0.149 C 
HETATM    4  C3  UNL     1      -4.328   0.145  14.889  1.00  0.00     0.112 C 
HETATM    5  N2  UNL     1      -4.235  -0.047  16.005  1.00  0.00    -0.191 NA
HETATM    6  C4  UNL     1      -4.778   1.598  13.074  1.00  0.00     0.128 C 
HETATM    7  C5  UNL     1      -5.027   2.513  14.249  1.00  0.00     0.106 C 
HETATM    8  N3  UNL     1      -5.222   3.222  15.130  1.00  0.00    -0.191 NA
ENDROOT
BRANCH   6   9
HETATM    9  C6  UNL     1      -4.970   2.193  11.787  1.00  0.00     0.178 C 
BRANCH   9  10
HETATM   10  O1  UNL     1      -6.004   1.771  11.114  1.00  0.00    -0.344 OA
ATOM     11  H1  UNL     1      -5.915   1.780  10.168  1.00  0.00     0.219 HD
ENDBRANCH   9  10
BRANCH   9  12
HETATM   12  N4  UNL     1      -4.221   3.157  11.141  1.00  0.00    -0.280 N 
ATOM     13  H4  UNL     1      -4.239   3.240  10.125  1.00  0.00     0.189 HD
BRANCH  12  14
HETATM   14  N5  UNL     1      -3.417   4.037  11.936  1.00  0.00    -0.313 N 
HETATM   15  C7  UNL     1      -3.793   5.218  12.207  1.00  0.00     0.085 C 
ATOM     16  H5  UNL     1      -2.521   3.705  12.294  1.00  0.00     0.185 HD
BRANCH  15  17
HETATM   17  C8  UNL     1      -2.931   6.096  13.032  1.00  0.00     0.029 C 
HETATM   18  C9  UNL     1      -3.017   7.545  12.571  1.00  0.00     0.036 C 
HETATM   19  C10 UNL     1      -2.030   8.304  13.387  1.00  0.00    -0.030 C 
HETATM   20  C11 UNL     1      -2.098   8.159  14.706  1.00  0.00    -0.031 C 
HETATM   21  C12 UNL     1      -3.152   7.252  15.255  1.00  0.00     0.027 C 
HETATM   22  C13 UNL     1      -3.216   5.955  14.494  1.00  0.00     0.014 C 
ENDBRANCH  15  17
ENDBRANCH  12  14
ENDBRANCH   9  12
ENDBRANCH   6   9
TORSDOF 5
ENDMDL
MODEL 5
REMARK VINA RESULT: -7.235096373      2.843      6.029
REMARK  5 active torsions:
REMARK  status: ('A' for Active; 'I' for Inactive)
REMARK    1  A    between atoms: C4_6  and  C6_9 
REMARK    2  A    between atoms: C6_9  and  O1_10 
REMARK    3  A    between atoms: C6_9  and  N4_12 
REMARK    4  A    between atoms: N4_12  and  N5_14 
REMARK    5  A    between atoms: C7_16  and  C8_17 
ROOT
HETATM    1  N1  UNL     1      -6.141   5.174  15.219  1.00  0.00    -0.191 NA
HETATM    2  C1  UNL     1      -5.841   4.032  15.301  1.00  0.00     0.112 C 
HETATM    3  C2  UNL     1      -5.505   2.679  15.452  1.00  0.00     0.149 C 
HETATM    4  C3  UNL     1      -5.762   2.081  16.788  1.00  0.00     0.112 C 
HETATM    5  N2  UNL     1      -5.976   1.618  17.804  1.00  0.00    -0.191 NA
HETATM    6  C4  UNL     1      -4.995   1.897  14.555  1.00  0.00     0.128 C 
HETATM    7  C5  UNL     1      -4.758   0.495  15.061  1.00  0.00     0.106 C 
HETATM    8  N3  UNL     1      -4.571  -0.576  15.429  1.00  0.00    -0.191 NA
ENDROOT
BRANCH   6   9
HETATM    9  C6  UNL     1      -4.624   2.124  13.192  1.00  0.00     0.178 C 
BRANCH   9  10
HETATM   10  O1  UNL     1      -5.582   2.013  12.315  1.00  0.00    -0.344 OA
ATOM     11  H1  UNL     1      -6.029   2.819  12.086  1.00  0.00     0.219 HD
ENDBRANCH   9  10
BRANCH   9  12
HETATM   12  N4  UNL     1      -3.392   2.446  12.657  1.00  0.00    -0.280 N 
ATOM     13  H4  UNL     1      -2.945   1.839  11.970  1.00  0.00     0.189 HD
BRANCH  12  14
HETATM   14  N5  UNL     1      -2.758   3.655  13.092  1.00  0.00    -0.313 N 
HETATM   15  C7  UNL     1      -3.253   4.795  12.834  1.00  0.00     0.085 C 
ATOM     16  H5  UNL     1      -1.889   3.598  13.623  1.00  0.00     0.185 HD
BRANCH  15  17
HETATM   17  C8  UNL     1      -2.566   6.021  13.302  1.00  0.00     0.029 C 
HETATM   18  C9  UNL     1      -3.104   7.259  12.596  1.00  0.00     0.036 C 
HETATM   19  C10 UNL     1      -2.267   8.400  13.055  1.00  0.00    -0.030 C 
HETATM   20  C11 UNL     1      -2.122   8.555  14.366  1.00  0.00    -0.031 C 
HETATM   21  C12 UNL     1      -2.807   7.576  15.264  1.00  0.00     0.027 C 
HETATM   22  C13 UNL     1      -2.611   6.160  14.791  1.00  0.00     0.014 C 
ENDBRANCH  15  17
ENDBRANCH  12  14
ENDBRANCH   9  12
ENDBRANCH   6   9
TORSDOF 5
ENDMDL
