MODEL 1
REMARK VINA RESULT: -6.947275967      0.000      0.000
REMARK  6 active torsions:
REMARK  status: ('A' for Active; 'I' for Inactive)
REMARK    1  A    between atoms: N1_2  and  C2_4 
REMARK    2  A    between atoms: C2_4  and  O2_28 
REMARK    3  A    between atoms: N2_5  and  C3_7 
REMARK    4  A    between atoms: C3_7  and  C5_9 
REMARK    5  A    between atoms: C9_15  and  C10_16 
REMARK    6  A    between atoms: C11_17  and  C12_18 
ROOT
HETATM    1  C5  UNL     1      -2.785   3.930  12.788  1.00  0.00     0.120 C 
HETATM    2  C6  UNL     1      -1.373   4.070  12.215  1.00  0.00     0.106 C 
HETATM    3  S1  UNL     1      -1.785   3.843  10.433  1.00  0.00    -0.107 SA
HETATM    4  C7  UNL     1      -3.608   4.019  10.605  1.00  0.00     0.190 C 
HETATM    5  C8  UNL     1      -4.281   2.689  10.631  1.00  0.00     0.085 C 
HETATM    6  O1  UNL     1      -4.127   4.924   9.701  1.00  0.00    -0.308 OA
HETATM    7  C9  UNL     1      -4.785   5.917  10.400  1.00  0.00     0.095 C 
HETATM    8  C17 UNL     1      -4.509   5.795  11.684  1.00  0.00     0.040 C 
HETATM    9  C18 UNL     1      -5.042   6.693  12.743  1.00  0.00     0.071 C 
HETATM   10  N4  UNL     1      -3.640   4.692  11.909  1.00  0.00    -0.334 N 
ENDROOT
BRANCH   1  11
HETATM   11  C3  UNL     1      -2.780   4.405  14.193  1.00  0.00     0.104 C 
HETATM   12  C4  UNL     1      -1.569   5.286  14.401  1.00  0.00     0.034 C 
BRANCH  11  13
HETATM   13  N2  UNL     1      -2.681   3.300  15.136  1.00  0.00    -0.350 N 
HETATM   14  C2  UNL     1      -3.724   2.558  15.295  1.00  0.00     0.214 C 
ATOM     15  H2  UNL     1      -1.819   3.120  15.651  1.00  0.00     0.163 HD
BRANCH  14  16
HETATM   16  N1  UNL     1      -4.949   2.764  14.605  1.00  0.00    -0.361 N 
HETATM   17  C1  UNL     1      -6.045   3.520  15.164  1.00  0.00     0.150 C 
ATOM     18  H1  UNL     1      -5.058   2.361  13.675  1.00  0.00     0.162 HD
ENDBRANCH  14  16
BRANCH  14  19
HETATM   19  O2  UNL     1      -3.653   1.499  16.188  1.00  0.00    -0.327 OA
HETATM   20  C19 UNL     1      -4.427   0.331  15.882  1.00  0.00     0.213 C 
ENDBRANCH  14  19
ENDBRANCH  11  13
ENDBRANCH   1  11
BRANCH   7  21
HETATM   21  C10 UNL     1      -5.660   6.949   9.789  1.00  0.00     0.040 C 
HETATM   22  C11 UNL     1      -6.428   6.591   8.784  1.00  0.00     0.015 C 
BRANCH  22  23
HETATM   23  C12 UNL     1      -7.312   7.544   8.135  1.00  0.00    -0.021 A 
HETATM   24  C13 UNL     1      -8.601   7.804   8.591  1.00  0.00     0.014 A 
HETATM   25  C14 UNL     1      -9.368   8.723   7.914  1.00  0.00     0.018 A 
HETATM   26  C15 UNL     1      -8.845   9.358   6.809  1.00  0.00     0.087 A 
HETATM   27  N3  UNL     1      -7.589   9.086   6.386  1.00  0.00    -0.374 N 
HETATM   28  C16 UNL     1      -6.820   8.211   7.009  1.00  0.00     0.099 A 
ATOM     29  H3  UNL     1      -7.226   9.571   5.565  1.00  0.00     0.164 HD
ENDBRANCH  22  23
ENDBRANCH   7  21
TORSDOF 6
ENDMDL
MODEL 2
REMARK VINA RESULT: -6.801631424      4.627      7.909
REMARK  6 active torsions:
REMARK  status: ('A' for Active; 'I' for Inactive)
REMARK    1  A    between atoms: N1_2  and  C2_4 
REMARK    2  A    between atoms: C2_4  and  O2_28 
REMARK    3  A    between atoms: N2_5  and  C3_7 
REMARK    4  A    between atoms: C3_7  and  C5_9 
REMARK    5  A    between atoms: C9_15  and  C10_16 
REMARK    6  A    between atoms: C11_17  and  C12_18 
ROOT
HETATM    1  C5  UNL     1      -0.357   5.163  10.768  1.00  0.00     0.120 C 
HETATM    2  C6  UNL     1      -1.218   5.866   9.716  1.00  0.00     0.106 C 
HETATM    3  S1  UNL     1      -2.502   4.560   9.506  1.00  0.00    -0.107 SA
HETATM    4  C7  UNL     1      -2.044   3.564  10.983  1.00  0.00     0.190 C 
HETATM    5  C8  UNL     1      -1.205   2.391  10.607  1.00  0.00     0.085 C 
HETATM    6  O1  UNL     1      -3.141   3.275  11.770  1.00  0.00    -0.308 OA
HETATM    7  C9  UNL     1      -2.912   3.764  13.042  1.00  0.00     0.095 C 
HETATM    8  C17 UNL     1      -1.839   4.532  13.020  1.00  0.00     0.040 C 
HETATM    9  C18 UNL     1      -1.289   5.233  14.212  1.00  0.00     0.071 C 
HETATM   10  N4  UNL     1      -1.287   4.589  11.711  1.00  0.00    -0.334 N 
ENDROOT
BRANCH   1  11
HETATM   11  C3  UNL     1       0.575   6.152  11.360  1.00  0.00     0.104 C 
HETATM   12  C4  UNL     1      -0.137   7.481  11.475  1.00  0.00     0.034 C 
BRANCH  11  13
HETATM   13  N2  UNL     1       1.747   6.359  10.521  1.00  0.00    -0.350 N 
HETATM   14  C2  UNL     1       2.882   5.940  10.969  1.00  0.00     0.214 C 
ATOM     15  H2  UNL     1       1.673   6.817   9.613  1.00  0.00     0.163 HD
BRANCH  14  16
HETATM   16  N1  UNL     1       3.042   5.296  12.226  1.00  0.00    -0.361 N 
HETATM   17  C1  UNL     1       4.249   5.401  13.011  1.00  0.00     0.150 C 
ATOM     18  H1  UNL     1       2.271   4.736  12.588  1.00  0.00     0.162 HD
ENDBRANCH  14  16
BRANCH  14  19
HETATM   19  O2  UNL     1       4.012   6.125  10.187  1.00  0.00    -0.327 OA
HETATM   20  C19 UNL     1       4.391   5.051   9.317  1.00  0.00     0.213 C 
ENDBRANCH  14  19
ENDBRANCH  11  13
ENDBRANCH   1  11
BRANCH   7  21
HETATM   21  C10 UNL     1      -3.750   3.466  14.231  1.00  0.00     0.040 C 
HETATM   22  C11 UNL     1      -4.303   2.276  14.313  1.00  0.00     0.015 C 
BRANCH  22  23
HETATM   23  C12 UNL     1      -5.134   1.910  15.446  1.00  0.00    -0.021 A 
HETATM   24  C13 UNL     1      -6.169   2.718  15.911  1.00  0.00     0.014 A 
HETATM   25  C14 UNL     1      -6.905   2.290  16.990  1.00  0.00     0.018 A 
HETATM   26  C15 UNL     1      -6.603   1.083  17.580  1.00  0.00     0.087 A 
HETATM   27  N3  UNL     1      -5.593   0.317  17.109  1.00  0.00    -0.374 N 
HETATM   28  C16 UNL     1      -4.862   0.691  16.075  1.00  0.00     0.099 A 
ATOM     29  H3  UNL     1      -5.391  -0.573  17.564  1.00  0.00     0.164 HD
ENDBRANCH  22  23
ENDBRANCH   7  21
TORSDOF 6
ENDMDL
MODEL 3
REMARK VINA RESULT: -6.800958251      2.695      4.403
REMARK  6 active torsions:
REMARK  status: ('A' for Active; 'I' for Inactive)
REMARK    1  A    between atoms: N1_2  and  C2_4 
REMARK    2  A    between atoms: C2_4  and  O2_28 
REMARK    3  A    between atoms: N2_5  and  C3_7 
REMARK    4  A    between atoms: C3_7  and  C5_9 
REMARK    5  A    between atoms: C9_15  and  C10_16 
REMARK    6  A    between atoms: C11_17  and  C12_18 
ROOT
HETATM    1  C5  UNL     1      -2.409   3.457  12.097  1.00  0.00     0.120 C 
HETATM    2  C6  UNL     1      -3.308   2.279  12.476  1.00  0.00     0.106 C 
HETATM    3  S1  UNL     1      -4.710   3.235  13.196  1.00  0.00    -0.107 SA
HETATM    4  C7  UNL     1      -4.192   4.886  12.572  1.00  0.00     0.190 C 
HETATM    5  C8  UNL     1      -3.494   5.671  13.631  1.00  0.00     0.085 C 
HETATM    6  O1  UNL     1      -5.225   5.545  11.936  1.00  0.00    -0.308 OA
HETATM    7  C9  UNL     1      -4.831   5.840  10.645  1.00  0.00     0.095 C 
HETATM    8  C17 UNL     1      -3.706   5.203  10.383  1.00  0.00     0.040 C 
HETATM    9  C18 UNL     1      -2.984   5.282   9.084  1.00  0.00     0.071 C 
HETATM   10  N4  UNL     1      -3.284   4.442  11.508  1.00  0.00    -0.334 N 
ENDROOT
BRANCH   1  11
HETATM   11  C3  UNL     1      -1.343   2.971  11.187  1.00  0.00     0.104 C 
HETATM   12  C4  UNL     1      -1.478   1.472  11.041  1.00  0.00     0.034 C 
BRANCH  11  13
HETATM   13  N2  UNL     1      -0.015   3.238  11.722  1.00  0.00    -0.350 N 
HETATM   14  C2  UNL     1       0.828   3.836  10.950  1.00  0.00     0.214 C 
ATOM     15  H2  UNL     1       0.239   2.962  12.670  1.00  0.00     0.163 HD
BRANCH  14  16
HETATM   16  N1  UNL     1       0.528   4.241   9.621  1.00  0.00    -0.361 N 
HETATM   17  C1  UNL     1       1.440   4.047   8.519  1.00  0.00     0.150 C 
ATOM     18  H1  UNL     1      -0.370   4.688   9.439  1.00  0.00     0.162 HD
ENDBRANCH  14  16
BRANCH  14  19
HETATM   19  O2  UNL     1       2.099   4.101  11.436  1.00  0.00    -0.327 OA
HETATM   20  C19 UNL     1       2.388   5.453  11.815  1.00  0.00     0.213 C 
ENDBRANCH  14  19
ENDBRANCH  11  13
ENDBRANCH   1  11
BRANCH   7  21
HETATM   21  C10 UNL     1      -5.568   6.732   9.715  1.00  0.00     0.040 C 
HETATM   22  C11 UNL     1      -6.621   7.370  10.175  1.00  0.00     0.015 C 
BRANCH  22  23
HETATM   23  C12 UNL     1      -7.392   8.260   9.325  1.00  0.00    -0.021 A 
HETATM   24  C13 UNL     1      -8.534   7.846   8.644  1.00  0.00     0.014 A 
HETATM   25  C14 UNL     1      -9.202   8.759   7.862  1.00  0.00     0.018 A 
HETATM   26  C15 UNL     1      -8.729  10.049   7.773  1.00  0.00     0.087 A 
HETATM   27  N3  UNL     1      -7.617  10.425   8.444  1.00  0.00    -0.374 N 
HETATM   28  C16 UNL     1      -6.946   9.580   9.206  1.00  0.00     0.099 A 
ATOM     29  H3  UNL     1      -7.288  11.387   8.361  1.00  0.00     0.164 HD
ENDBRANCH  22  23
ENDBRANCH   7  21
TORSDOF 6
ENDMDL
MODEL 4
REMARK VINA RESULT: -6.768217311      3.863      7.885
REMARK  6 active torsions:
REMARK  status: ('A' for Active; 'I' for Inactive)
REMARK    1  A    between atoms: N1_2  and  C2_4 
REMARK    2  A    between atoms: C2_4  and  O2_28 
REMARK    3  A    between atoms: N2_5  and  C3_7 
REMARK    4  A    between atoms: C3_7  and  C5_9 
REMARK    5  A    between atoms: C9_15  and  C10_16 
REMARK    6  A    between atoms: C11_17  and  C12_18 
ROOT
HETATM    1  C5  UNL     1      -1.901   7.338  11.644  1.00  0.00     0.120 C 
HETATM    2  C6  UNL     1      -2.420   6.898  10.274  1.00  0.00     0.106 C 
HETATM    3  S1  UNL     1      -1.821   5.156  10.308  1.00  0.00    -0.107 SA
HETATM    4  C7  UNL     1      -1.403   5.104  12.099  1.00  0.00     0.190 C 
HETATM    5  C8  UNL     1       0.058   5.304  12.321  1.00  0.00     0.085 C 
HETATM    6  O1  UNL     1      -1.947   3.999  12.724  1.00  0.00    -0.308 OA
HETATM    7  C9  UNL     1      -2.753   4.431  13.759  1.00  0.00     0.095 C 
HETATM    8  C17 UNL     1      -2.912   5.737  13.664  1.00  0.00     0.040 C 
HETATM    9  C18 UNL     1      -3.722   6.551  14.610  1.00  0.00     0.071 C 
HETATM   10  N4  UNL     1      -2.204   6.250  12.543  1.00  0.00    -0.334 N 
ENDROOT
BRANCH   1  11
HETATM   11  C3  UNL     1      -2.544   8.624  12.008  1.00  0.00     0.104 C 
HETATM   12  C4  UNL     1      -3.569   8.969  10.952  1.00  0.00     0.034 C 
BRANCH  11  13
HETATM   13  N2  UNL     1      -1.581   9.715  12.052  1.00  0.00    -0.350 N 
HETATM   14  C2  UNL     1      -1.287  10.204  13.209  1.00  0.00     0.214 C 
ATOM     15  H2  UNL     1      -1.156  10.080  11.200  1.00  0.00     0.163 HD
BRANCH  14  16
HETATM   16  N1  UNL     1      -1.850   9.735  14.427  1.00  0.00    -0.361 N 
HETATM   17  C1  UNL     1      -1.081   9.031  15.425  1.00  0.00     0.150 C 
ATOM     18  H1  UNL     1      -2.840   9.904  14.603  1.00  0.00     0.162 HD
ENDBRANCH  14  16
BRANCH  14  19
HETATM   19  O2  UNL     1      -0.373  11.244  13.277  1.00  0.00    -0.327 OA
HETATM   20  C19 UNL     1      -0.809  12.462  13.893  1.00  0.00     0.213 C 
ENDBRANCH  14  19
ENDBRANCH  11  13
ENDBRANCH   1  11
BRANCH   7  21
HETATM   21  C10 UNL     1      -3.338   3.552  14.803  1.00  0.00     0.040 C 
HETATM   22  C11 UNL     1      -4.542   3.066  14.597  1.00  0.00     0.015 C 
BRANCH  22  23
HETATM   23  C12 UNL     1      -5.180   2.198  15.571  1.00  0.00    -0.021 A 
HETATM   24  C13 UNL     1      -6.362   2.543  16.223  1.00  0.00     0.014 A 
HETATM   25  C14 UNL     1      -6.896   1.659  17.130  1.00  0.00     0.018 A 
HETATM   26  C15 UNL     1      -6.254   0.465  17.371  1.00  0.00     0.087 A 
HETATM   27  N3  UNL     1      -5.107   0.155  16.725  1.00  0.00    -0.374 N 
HETATM   28  C16 UNL     1      -4.561   0.976  15.845  1.00  0.00     0.099 A 
ATOM     29  H3  UNL     1      -4.652  -0.737  16.921  1.00  0.00     0.164 HD
ENDBRANCH  22  23
ENDBRANCH   7  21
TORSDOF 6
ENDMDL
MODEL 5
REMARK VINA RESULT: -6.685566539      2.532      7.958
REMARK  6 active torsions:
REMARK  status: ('A' for Active; 'I' for Inactive)
REMARK    1  A    between atoms: N1_2  and  C2_4 
REMARK    2  A    between atoms: C2_4  and  O2_28 
REMARK    3  A    between atoms: N2_5  and  C3_7 
REMARK    4  A    between atoms: C3_7  and  C5_9 
REMARK    5  A    between atoms: C9_15  and  C10_16 
REMARK    6  A    between atoms: C11_17  and  C12_18 
ROOT
HETATM    1  C5  UNL     1      -2.595   6.165   9.962  1.00  0.00     0.120 C 
HETATM    2  C6  UNL     1      -1.066   6.196   9.964  1.00  0.00     0.106 C 
HETATM    3  S1  UNL     1      -0.807   6.503  11.763  1.00  0.00    -0.107 SA
HETATM    4  C7  UNL     1      -2.532   6.147  12.295  1.00  0.00     0.190 C 
HETATM    5  C8  UNL     1      -3.310   7.404  12.489  1.00  0.00     0.085 C 
HETATM    6  O1  UNL     1      -2.573   5.260  13.353  1.00  0.00    -0.308 OA
HETATM    7  C9  UNL     1      -3.329   4.165  12.982  1.00  0.00     0.095 C 
HETATM    8  C17 UNL     1      -3.565   4.226  11.685  1.00  0.00     0.040 C 
HETATM    9  C18 UNL     1      -4.350   3.212  10.930  1.00  0.00     0.071 C 
HETATM   10  N4  UNL     1      -2.971   5.387  11.119  1.00  0.00    -0.334 N 
ENDROOT
BRANCH   1  11
HETATM   11  C3  UNL     1      -3.060   5.598   8.673  1.00  0.00     0.104 C 
HETATM   12  C4  UNL     1      -1.898   4.897   8.006  1.00  0.00     0.034 C 
BRANCH  11  13
HETATM   13  N2  UNL     1      -3.521   6.637   7.762  1.00  0.00    -0.350 N 
HETATM   14  C2  UNL     1      -4.792   6.843   7.689  1.00  0.00     0.214 C 
ATOM     15  H2  UNL     1      -2.863   7.181   7.204  1.00  0.00     0.163 HD
BRANCH  14  16
HETATM   16  N1  UNL     1      -5.752   6.114   8.442  1.00  0.00    -0.361 N 
HETATM   17  C1  UNL     1      -7.149   6.476   8.490  1.00  0.00     0.150 C 
ATOM     18  H1  UNL     1      -5.440   5.301   8.972  1.00  0.00     0.162 HD
ENDBRANCH  14  16
BRANCH  14  19
HETATM   19  O2  UNL     1      -5.256   7.827   6.829  1.00  0.00    -0.327 OA
HETATM   20  C19 UNL     1      -4.792   9.165   7.052  1.00  0.00     0.213 C 
ENDBRANCH  14  19
ENDBRANCH  11  13
ENDBRANCH   1  11
BRANCH   7  21
HETATM   21  C10 UNL     1      -3.792   3.100  13.906  1.00  0.00     0.040 C 
HETATM   22  C11 UNL     1      -4.814   3.363  14.688  1.00  0.00     0.015 C 
BRANCH  22  23
HETATM   23  C12 UNL     1      -5.326   2.372  15.618  1.00  0.00    -0.021 A 
HETATM   24  C13 UNL     1      -6.502   2.556  16.340  1.00  0.00     0.014 A 
HETATM   25  C14 UNL     1      -6.912   1.562  17.198  1.00  0.00     0.018 A 
HETATM   26  C15 UNL     1      -6.153   0.419  17.322  1.00  0.00     0.087 A 
HETATM   27  N3  UNL     1      -5.014   0.266  16.609  1.00  0.00    -0.374 N 
HETATM   28  C16 UNL     1      -4.586   1.196  15.774  1.00  0.00     0.099 A 
ATOM     29  H3  UNL     1      -4.471  -0.591  16.719  1.00  0.00     0.164 HD
ENDBRANCH  22  23
ENDBRANCH   7  21
TORSDOF 6
ENDMDL
