MODEL 1
REMARK VINA RESULT: -7.785474463      0.000      0.000
REMARK  6 active torsions:
REMARK  status: ('A' for Active; 'I' for Inactive)
REMARK    1  A    between atoms: C7_9  and  O3_10 
REMARK    2  A    between atoms: O3_10  and  C8_11 
REMARK    3  A    between atoms: C11_15  and  C12_16 
REMARK    4  A    between atoms: C13_17  and  C14_18 
REMARK    5  A    between atoms: C15_19  and  C16_20 
REMARK    6  A    between atoms: C16_20  and  O5_21 
ROOT
HETATM    1  C1  UNL     1       0.385   3.187  11.279  1.00  0.00     0.025 C 
HETATM    2  C2  UNL     1      -0.038   4.417  11.505  1.00  0.00     0.015 C 
HETATM    3  C3  UNL     1       0.811   5.584  11.765  1.00  0.00     0.289 C 
HETATM    4  O1  UNL     1       2.043   5.698  11.447  1.00  0.00    -0.260 OA
HETATM    5  O2  UNL     1       0.011   6.505  12.410  1.00  0.00    -0.311 OA
HETATM    6  C4  UNL     1      -1.281   6.368  11.871  1.00  0.00     0.149 C 
HETATM    7  C5  UNL     1      -1.420   4.873  11.540  1.00  0.00     0.061 C 
HETATM    8  C6  UNL     1      -2.271   4.407  12.655  1.00  0.00     0.036 C 
HETATM    9  C7  UNL     1      -2.991   3.111  12.489  1.00  0.00     0.160 C 
HETATM   10  C10 UNL     1      -3.827   2.977  13.738  1.00  0.00     0.013 C 
HETATM   11  C11 UNL     1      -4.425   3.999  14.305  1.00  0.00    -0.055 C 
HETATM   12  C17 UNL     1      -4.329   5.386  13.758  1.00  0.00     0.019 C 
HETATM   13  C18 UNL     1      -5.676   5.690  13.083  1.00  0.00     0.015 C 
HETATM   14  C19 UNL     1      -3.298   5.551  12.694  1.00  0.00     0.012 C 
HETATM   15  C20 UNL     1      -2.357   6.685  12.889  1.00  0.00    -0.015 C 
HETATM   16  C21 UNL     1      -2.979   8.035  12.628  1.00  0.00     0.018 C 
HETATM   17  C22 UNL     1      -1.777   6.689  14.297  1.00  0.00     0.018 C 
ENDROOT
BRANCH  11  18
HETATM   18  C12 UNL     1      -5.210   3.791  15.505  1.00  0.00     0.007 C 
HETATM   19  C13 UNL     1      -6.193   2.900  15.624  1.00  0.00     0.000 C 
BRANCH  19  20
HETATM   20  C14 UNL     1      -6.926   2.758  16.864  1.00  0.00    -0.002 C 
HETATM   21  C15 UNL     1      -6.635   1.838  17.746  1.00  0.00    -0.001 C 
BRANCH  21  22
HETATM   22  C16 UNL     1      -5.557   0.840  17.618  1.00  0.00     0.191 C 
BRANCH  22  23
HETATM   23  O5  UNL     1      -6.057  -0.412  17.227  1.00  0.00    -0.397 OA
ATOM     24  H5  UNL     1      -6.849  -0.635  17.703  1.00  0.00     0.209 HD
ENDBRANCH  22  23
ENDBRANCH  21  22
ENDBRANCH  19  20
ENDBRANCH  11  18
BRANCH   9  25
HETATM   25  O3  UNL     1      -3.890   3.086  11.425  1.00  0.00    -0.312 OA
BRANCH  25  26
HETATM   26  C8  UNL     1      -4.651   1.945  11.224  1.00  0.00     0.255 C 
HETATM   27  C9  UNL     1      -4.028   0.614  10.973  1.00  0.00     0.126 C 
HETATM   28  O4  UNL     1      -5.910   1.964  11.241  1.00  0.00    -0.266 OA
ENDBRANCH  25  26
ENDBRANCH   9  25
TORSDOF 6
ENDMDL
MODEL 2
REMARK VINA RESULT: -7.594874297      2.065      4.338
REMARK  6 active torsions:
REMARK  status: ('A' for Active; 'I' for Inactive)
REMARK    1  A    between atoms: C7_9  and  O3_10 
REMARK    2  A    between atoms: O3_10  and  C8_11 
REMARK    3  A    between atoms: C11_15  and  C12_16 
REMARK    4  A    between atoms: C13_17  and  C14_18 
REMARK    5  A    between atoms: C15_19  and  C16_20 
REMARK    6  A    between atoms: C16_20  and  O5_21 
ROOT
HETATM    1  C1  UNL     1      -3.415   7.601   9.648  1.00  0.00     0.025 C 
HETATM    2  C2  UNL     1      -3.082   6.326   9.742  1.00  0.00     0.015 C 
HETATM    3  C3  UNL     1      -3.047   5.364   8.637  1.00  0.00     0.289 C 
HETATM    4  O1  UNL     1      -2.952   5.652   7.396  1.00  0.00    -0.260 OA
HETATM    5  O2  UNL     1      -3.137   4.114   9.215  1.00  0.00    -0.311 OA
HETATM    6  C4  UNL     1      -2.450   4.182  10.441  1.00  0.00     0.149 C 
HETATM    7  C5  UNL     1      -2.679   5.616  10.946  1.00  0.00     0.061 C 
HETATM    8  C6  UNL     1      -3.701   5.396  11.990  1.00  0.00     0.036 C 
HETATM    9  C7  UNL     1      -3.894   6.462  13.016  1.00  0.00     0.160 C 
HETATM   10  C10 UNL     1      -4.918   5.895  13.968  1.00  0.00     0.013 C 
HETATM   11  C11 UNL     1      -4.938   4.630  14.317  1.00  0.00    -0.055 C 
HETATM   12  C17 UNL     1      -3.944   3.641  13.801  1.00  0.00     0.019 C 
HETATM   13  C18 UNL     1      -2.959   3.363  14.947  1.00  0.00     0.015 C 
HETATM   14  C19 UNL     1      -3.115   4.147  12.670  1.00  0.00     0.012 C 
HETATM   15  C20 UNL     1      -3.050   3.259  11.480  1.00  0.00    -0.015 C 
HETATM   16  C21 UNL     1      -2.193   2.034  11.687  1.00  0.00     0.018 C 
HETATM   17  C22 UNL     1      -4.439   2.803  11.052  1.00  0.00     0.018 C 
ENDROOT
BRANCH  11  18
HETATM   18  C12 UNL     1      -5.955   4.160  15.237  1.00  0.00     0.007 C 
HETATM   19  C13 UNL     1      -6.089   2.897  15.638  1.00  0.00     0.000 C 
BRANCH  19  20
HETATM   20  C14 UNL     1      -7.136   2.515  16.562  1.00  0.00    -0.002 C 
HETATM   21  C15 UNL     1      -6.978   1.559  17.440  1.00  0.00    -0.001 C 
BRANCH  21  22
HETATM   22  C16 UNL     1      -5.756   0.754  17.618  1.00  0.00     0.191 C 
BRANCH  22  23
HETATM   23  O5  UNL     1      -5.951  -0.576  17.211  1.00  0.00    -0.397 OA
ATOM     24  H5  UNL     1      -6.787  -0.913  17.511  1.00  0.00     0.209 HD
ENDBRANCH  22  23
ENDBRANCH  21  22
ENDBRANCH  19  20
ENDBRANCH  11  18
BRANCH   9  25
HETATM   25  O3  UNL     1      -2.764   6.729  13.786  1.00  0.00    -0.312 OA
BRANCH  25  26
HETATM   26  C8  UNL     1      -2.314   8.037  13.876  1.00  0.00     0.255 C 
HETATM   27  C9  UNL     1      -1.963   8.663  15.183  1.00  0.00     0.126 C 
HETATM   28  O4  UNL     1      -2.177   8.773  12.864  1.00  0.00    -0.266 OA
ENDBRANCH  25  26
ENDBRANCH   9  25
TORSDOF 6
ENDMDL
MODEL 3
REMARK VINA RESULT: -7.437395603      2.979      6.222
REMARK  6 active torsions:
REMARK  status: ('A' for Active; 'I' for Inactive)
REMARK    1  A    between atoms: C7_9  and  O3_10 
REMARK    2  A    between atoms: O3_10  and  C8_11 
REMARK    3  A    between atoms: C11_15  and  C12_16 
REMARK    4  A    between atoms: C13_17  and  C14_18 
REMARK    5  A    between atoms: C15_19  and  C16_20 
REMARK    6  A    between atoms: C16_20  and  O5_21 
ROOT
HETATM    1  C1  UNL     1      -4.054   0.619  12.823  1.00  0.00     0.025 C 
HETATM    2  C2  UNL     1      -4.174   1.643  13.649  1.00  0.00     0.015 C 
HETATM    3  C3  UNL     1      -4.871   1.630  14.938  1.00  0.00     0.289 C 
HETATM    4  O1  UNL     1      -5.131   0.594  15.638  1.00  0.00    -0.260 OA
HETATM    5  O2  UNL     1      -5.176   2.946  15.222  1.00  0.00    -0.311 OA
HETATM    6  C4  UNL     1      -4.119   3.726  14.718  1.00  0.00     0.149 C 
HETATM    7  C5  UNL     1      -3.640   2.984  13.459  1.00  0.00     0.061 C 
HETATM    8  C6  UNL     1      -4.231   3.815  12.390  1.00  0.00     0.036 C 
HETATM    9  C7  UNL     1      -3.663   3.693  11.016  1.00  0.00     0.160 C 
HETATM   10  C10 UNL     1      -4.408   4.722  10.203  1.00  0.00     0.013 C 
HETATM   11  C11 UNL     1      -4.740   5.899  10.679  1.00  0.00    -0.055 C 
HETATM   12  C17 UNL     1      -4.404   6.322  12.073  1.00  0.00     0.019 C 
HETATM   13  C18 UNL     1      -3.237   7.316  11.966  1.00  0.00     0.015 C 
HETATM   14  C19 UNL     1      -3.912   5.215  12.942  1.00  0.00     0.012 C 
HETATM   15  C20 UNL     1      -4.589   5.090  14.260  1.00  0.00    -0.015 C 
HETATM   16  C21 UNL     1      -4.195   6.166  15.243  1.00  0.00     0.018 C 
HETATM   17  C22 UNL     1      -6.104   5.112  14.109  1.00  0.00     0.018 C 
ENDROOT
BRANCH  11  18
HETATM   18  C12 UNL     1      -5.457   6.835   9.837  1.00  0.00     0.007 C 
HETATM   19  C13 UNL     1      -6.660   7.336  10.112  1.00  0.00     0.000 C 
BRANCH  19  20
HETATM   20  C14 UNL     1      -7.304   8.268   9.211  1.00  0.00    -0.002 C 
HETATM   21  C15 UNL     1      -7.959   7.874   8.150  1.00  0.00    -0.001 C 
BRANCH  21  22
HETATM   22  C16 UNL     1      -8.135   6.474   7.723  1.00  0.00     0.191 C 
BRANCH  22  23
HETATM   23  O5  UNL     1      -7.094   6.058   6.877  1.00  0.00    -0.397 OA
ATOM     24  H5  UNL     1      -6.944   6.681   6.176  1.00  0.00     0.209 HD
ENDBRANCH  22  23
ENDBRANCH  21  22
ENDBRANCH  19  20
ENDBRANCH  11  18
BRANCH   9  25
HETATM   25  O3  UNL     1      -2.315   4.034  10.919  1.00  0.00    -0.312 OA
BRANCH  25  26
HETATM   26  C8  UNL     1      -1.445   3.139  10.317  1.00  0.00     0.255 C 
HETATM   27  C9  UNL     1      -1.079   1.842  10.954  1.00  0.00     0.126 C 
HETATM   28  O4  UNL     1      -0.912   3.368   9.199  1.00  0.00    -0.266 OA
ENDBRANCH  25  26
ENDBRANCH   9  25
TORSDOF 6
ENDMDL
MODEL 4
REMARK VINA RESULT: -7.409088285      2.162      7.153
REMARK  6 active torsions:
REMARK  status: ('A' for Active; 'I' for Inactive)
REMARK    1  A    between atoms: C7_9  and  O3_10 
REMARK    2  A    between atoms: O3_10  and  C8_11 
REMARK    3  A    between atoms: C11_15  and  C12_16 
REMARK    4  A    between atoms: C13_17  and  C14_18 
REMARK    5  A    between atoms: C15_19  and  C16_20 
REMARK    6  A    between atoms: C16_20  and  O5_21 
ROOT
HETATM    1  C1  UNL     1      -3.906   2.127  16.218  1.00  0.00     0.025 C 
HETATM    2  C2  UNL     1      -4.205   1.589  15.049  1.00  0.00     0.015 C 
HETATM    3  C3  UNL     1      -4.457   0.167  14.798  1.00  0.00     0.289 C 
HETATM    4  O1  UNL     1      -4.804  -0.697  15.672  1.00  0.00    -0.260 OA
HETATM    5  O2  UNL     1      -4.245  -0.027  13.448  1.00  0.00    -0.311 OA
HETATM    6  C4  UNL     1      -4.669   1.145  12.797  1.00  0.00     0.149 C 
HETATM    7  C5  UNL     1      -4.351   2.284  13.779  1.00  0.00     0.061 C 
HETATM    8  C6  UNL     1      -3.136   2.864  13.168  1.00  0.00     0.036 C 
HETATM    9  C7  UNL     1      -2.746   4.247  13.566  1.00  0.00     0.160 C 
HETATM   10  C10 UNL     1      -1.547   4.567  12.708  1.00  0.00     0.013 C 
HETATM   11  C11 UNL     1      -1.448   4.186  11.456  1.00  0.00    -0.055 C 
HETATM   12  C17 UNL     1      -2.521   3.403  10.771  1.00  0.00     0.019 C 
HETATM   13  C18 UNL     1      -3.250   4.376   9.832  1.00  0.00     0.015 C 
HETATM   14  C19 UNL     1      -3.565   2.869  11.691  1.00  0.00     0.012 C 
HETATM   15  C20 UNL     1      -3.865   1.420  11.544  1.00  0.00    -0.015 C 
HETATM   16  C21 UNL     1      -4.655   1.092  10.301  1.00  0.00     0.018 C 
HETATM   17  C22 UNL     1      -2.589   0.589  11.533  1.00  0.00     0.018 C 
ENDROOT
BRANCH  11  18
HETATM   18  C12 UNL     1      -0.263   4.530  10.696  1.00  0.00     0.007 C 
HETATM   19  C13 UNL     1       0.849   3.799  10.652  1.00  0.00     0.000 C 
BRANCH  19  20
HETATM   20  C14 UNL     1       1.988   4.220   9.864  1.00  0.00    -0.002 C 
HETATM   21  C15 UNL     1       2.974   4.910  10.375  1.00  0.00    -0.001 C 
BRANCH  21  22
HETATM   22  C16 UNL     1       3.074   5.350  11.779  1.00  0.00     0.191 C 
BRANCH  22  23
HETATM   23  O5  UNL     1       3.813   4.441  12.552  1.00  0.00    -0.397 OA
ATOM     24  H5  UNL     1       3.268   4.008  13.198  1.00  0.00     0.209 HD
ENDBRANCH  22  23
ENDBRANCH  21  22
ENDBRANCH  19  20
ENDBRANCH  11  18
BRANCH   9  25
HETATM   25  O3  UNL     1      -3.697   5.221  13.268  1.00  0.00    -0.312 OA
BRANCH  25  26
HETATM   26  C8  UNL     1      -4.331   5.873  14.314  1.00  0.00     0.255 C 
HETATM   27  C9  UNL     1      -5.726   5.539  14.723  1.00  0.00     0.126 C 
HETATM   28  O4  UNL     1      -3.771   6.784  14.979  1.00  0.00    -0.266 OA
ENDBRANCH  25  26
ENDBRANCH   9  25
TORSDOF 6
ENDMDL
MODEL 5
REMARK VINA RESULT: -7.398496779      2.455      7.407
REMARK  6 active torsions:
REMARK  status: ('A' for Active; 'I' for Inactive)
REMARK    1  A    between atoms: C7_9  and  O3_10 
REMARK    2  A    between atoms: O3_10  and  C8_11 
REMARK    3  A    between atoms: C11_15  and  C12_16 
REMARK    4  A    between atoms: C13_17  and  C14_18 
REMARK    5  A    between atoms: C15_19  and  C16_20 
REMARK    6  A    between atoms: C16_20  and  O5_21 
ROOT
HETATM    1  C1  UNL     1      -3.920   2.117  16.172  1.00  0.00     0.025 C 
HETATM    2  C2  UNL     1      -4.190   1.591  14.991  1.00  0.00     0.015 C 
HETATM    3  C3  UNL     1      -4.454   0.174  14.722  1.00  0.00     0.289 C 
HETATM    4  O1  UNL     1      -4.840  -0.691  15.578  1.00  0.00    -0.260 OA
HETATM    5  O2  UNL     1      -4.201  -0.014  13.378  1.00  0.00    -0.311 OA
HETATM    6  C4  UNL     1      -4.589   1.169  12.722  1.00  0.00     0.149 C 
HETATM    7  C5  UNL     1      -4.286   2.297  13.722  1.00  0.00     0.061 C 
HETATM    8  C6  UNL     1      -3.045   2.863  13.154  1.00  0.00     0.036 C 
HETATM    9  C7  UNL     1      -2.648   4.238  13.574  1.00  0.00     0.160 C 
HETATM   10  C10 UNL     1      -1.418   4.547  12.756  1.00  0.00     0.013 C 
HETATM   11  C11 UNL     1      -1.285   4.173  11.505  1.00  0.00    -0.055 C 
HETATM   12  C17 UNL     1      -2.347   3.409  10.781  1.00  0.00     0.019 C 
HETATM   13  C18 UNL     1      -3.032   4.399   9.827  1.00  0.00     0.015 C 
HETATM   14  C19 UNL     1      -3.427   2.884  11.664  1.00  0.00     0.012 C 
HETATM   15  C20 UNL     1      -3.741   1.441  11.497  1.00  0.00    -0.015 C 
HETATM   16  C21 UNL     1      -4.497   1.132  10.227  1.00  0.00     0.018 C 
HETATM   17  C22 UNL     1      -2.478   0.592  11.520  1.00  0.00     0.018 C 
ENDROOT
BRANCH  11  18
HETATM   18  C12 UNL     1      -0.072   4.506  10.785  1.00  0.00     0.007 C 
HETATM   19  C13 UNL     1       0.644   3.644  10.066  1.00  0.00     0.000 C 
BRANCH  19  20
HETATM   20  C14 UNL     1       1.846   4.064   9.377  1.00  0.00    -0.002 C 
HETATM   21  C15 UNL     1       1.929   4.092   8.073  1.00  0.00    -0.001 C 
BRANCH  21  22
HETATM   22  C16 UNL     1       0.853   3.714   7.137  1.00  0.00     0.191 C 
BRANCH  22  23
HETATM   23  O5  UNL     1       1.348   2.965   6.059  1.00  0.00    -0.397 OA
ATOM     24  H5  UNL     1       0.652   2.500   5.609  1.00  0.00     0.209 HD
ENDBRANCH  22  23
ENDBRANCH  21  22
ENDBRANCH  19  20
ENDBRANCH  11  18
BRANCH   9  25
HETATM   25  O3  UNL     1      -3.576   5.227  13.253  1.00  0.00    -0.312 OA
BRANCH  25  26
HETATM   26  C8  UNL     1      -4.222   5.892  14.283  1.00  0.00     0.255 C 
HETATM   27  C9  UNL     1      -5.624   5.572  14.674  1.00  0.00     0.126 C 
HETATM   28  O4  UNL     1      -3.665   6.805  14.949  1.00  0.00    -0.266 OA
ENDBRANCH  25  26
ENDBRANCH   9  25
TORSDOF 6
ENDMDL
