MODEL 1
REMARK VINA RESULT: -8.222357657      0.000      0.000
REMARK  5 active torsions:
REMARK  status: ('A' for Active; 'I' for Inactive)
REMARK    1  A    between atoms: O1_2  and  C2_3 
REMARK    2  A    between atoms: C5_6  and  N1_7 
REMARK    3  A    between atoms: N1_7  and  N2_9 
REMARK    4  A    between atoms: C6_11  and  C7_12 
REMARK    5  A    between atoms: C20_29  and  O2_30 
ROOT
HETATM    1  C2  UNL     1      -1.288   2.600  10.474  1.00  0.00     0.102 A 
HETATM    2  C3  UNL     1      -1.624   3.102  11.713  1.00  0.00     0.057 A 
HETATM    3  C4  UNL     1      -1.373   4.409  12.092  1.00  0.00     0.041 A 
HETATM    4  C5  UNL     1      -1.731   4.875  13.371  1.00  0.00     0.156 A 
HETATM    5  N3  UNL     1      -1.446   6.152  13.646  1.00  0.00    -0.221 N 
HETATM    6  N4  UNL     1      -1.664   6.866  14.762  1.00  0.00    -0.295 N 
ATOM      7  H4  UNL     1      -2.105   6.503  15.607  1.00  0.00     0.187 HD
HETATM    8  C13 UNL     1      -1.220   8.126  14.612  1.00  0.00     0.026 A 
HETATM    9  C14 UNL     1      -1.257   9.250  15.577  1.00  0.00     0.070 C 
HETATM   10  C15 UNL     1      -0.707   8.176  13.338  1.00  0.00     0.076 A 
HETATM   11  C16 UNL     1      -0.842   6.944  12.720  1.00  0.00     0.133 A 
HETATM   12  N5  UNL     1      -0.494   6.506  11.488  1.00  0.00    -0.335 N 
HETATM   13  C17 UNL     1       0.152   7.415  10.562  1.00  0.00     0.158 C 
HETATM   14  C18 UNL     1      -0.761   5.239  11.181  1.00  0.00     0.052 A 
HETATM   15  C19 UNL     1      -0.412   4.755   9.917  1.00  0.00     0.070 A 
HETATM   16  C20 UNL     1      -0.676   3.444   9.574  1.00  0.00     0.103 A 
ENDROOT
BRANCH   4  17
HETATM   17  N1  UNL     1      -2.266   4.090  14.127  1.00  0.00    -0.284 N 
ATOM     18  H1  UNL     1      -1.453   3.661  14.568  1.00  0.00     0.188 HD
BRANCH  17  19
HETATM   19  N2  UNL     1      -3.220   3.467  14.713  1.00  0.00    -0.309 N 
HETATM   20  C6  UNL     1      -4.070   2.561  14.503  1.00  0.00     0.118 C 
ATOM     21  H2  UNL     1      -3.327   3.821  15.663  1.00  0.00     0.186 HD
BRANCH  20  22
HETATM   22  C7  UNL     1      -5.037   2.134  15.532  1.00  0.00    -0.019 A 
HETATM   23  C8  UNL     1      -6.164   2.893  15.803  1.00  0.00     0.013 A 
HETATM   24  C9  UNL     1      -7.054   2.493  16.759  1.00  0.00     0.001 A 
HETATM   25  C10 UNL     1      -6.889   1.330  17.501  1.00  0.00     0.000 A 
HETATM   26  C11 UNL     1      -5.760   0.589  17.213  1.00  0.00     0.001 A 
HETATM   27  C12 UNL     1      -4.857   0.975  16.257  1.00  0.00     0.013 A 
ENDBRANCH  20  22
ENDBRANCH  17  19
ENDBRANCH   4  17
BRANCH   1  28
HETATM   28  O1  UNL     1      -1.563   1.266  10.136  1.00  0.00    -0.353 OA
HETATM   29  C1  UNL     1      -2.221   0.454  11.108  1.00  0.00     0.210 C 
ENDBRANCH   1  28
BRANCH  16  30
HETATM   30  O2  UNL     1      -0.311   3.013   8.315  1.00  0.00    -0.353 OA
HETATM   31  C21 UNL     1       0.070   3.824   7.253  1.00  0.00     0.210 C 
ENDBRANCH  16  30
TORSDOF 5
ENDMDL
MODEL 2
REMARK VINA RESULT: -7.465719914      0.936      1.292
REMARK  5 active torsions:
REMARK  status: ('A' for Active; 'I' for Inactive)
REMARK    1  A    between atoms: O1_2  and  C2_3 
REMARK    2  A    between atoms: C5_6  and  N1_7 
REMARK    3  A    between atoms: N1_7  and  N2_9 
REMARK    4  A    between atoms: C6_11  and  C7_12 
REMARK    5  A    between atoms: C20_29  and  O2_30 
ROOT
HETATM    1  C2  UNL     1      -0.733   2.931  10.663  1.00  0.00     0.102 A 
HETATM    2  C3  UNL     1      -1.519   3.532  11.624  1.00  0.00     0.057 A 
HETATM    3  C4  UNL     1      -1.232   4.771  12.167  1.00  0.00     0.041 A 
HETATM    4  C5  UNL     1      -2.062   5.342  13.149  1.00  0.00     0.156 A 
HETATM    5  N3  UNL     1      -1.703   6.543  13.616  1.00  0.00    -0.221 N 
HETATM    6  N4  UNL     1      -2.287   7.323  14.540  1.00  0.00    -0.295 N 
ATOM      7  H4  UNL     1      -3.141   7.086  15.044  1.00  0.00     0.187 HD
HETATM    8  C13 UNL     1      -1.589   8.460  14.708  1.00  0.00     0.026 A 
HETATM    9  C14 UNL     1      -1.866   9.599  15.615  1.00  0.00     0.070 C 
HETATM   10  C15 UNL     1      -0.529   8.362  13.841  1.00  0.00     0.076 A 
HETATM   11  C16 UNL     1      -0.586   7.164  13.148  1.00  0.00     0.133 A 
HETATM   12  N5  UNL     1       0.218   6.623  12.204  1.00  0.00    -0.335 N 
HETATM   13  C17 UNL     1       1.392   7.351  11.765  1.00  0.00     0.158 C 
HETATM   14  C18 UNL     1      -0.109   5.429  11.719  1.00  0.00     0.052 A 
HETATM   15  C19 UNL     1       0.704   4.843  10.744  1.00  0.00     0.070 A 
HETATM   16  C20 UNL     1       0.387   3.603  10.226  1.00  0.00     0.103 A 
ENDROOT
BRANCH   4  17
HETATM   17  N1  UNL     1      -3.036   4.709  13.501  1.00  0.00    -0.284 N 
ATOM     18  H1  UNL     1      -3.681   4.902  12.735  1.00  0.00     0.188 HD
BRANCH  17  19
HETATM   19  N2  UNL     1      -3.755   3.947  14.239  1.00  0.00    -0.309 N 
HETATM   20  C6  UNL     1      -3.894   2.733  14.547  1.00  0.00     0.118 C 
ATOM     21  H2  UNL     1      -4.441   4.508  14.744  1.00  0.00     0.186 HD
BRANCH  20  22
HETATM   22  C7  UNL     1      -4.919   2.276  15.506  1.00  0.00    -0.019 A 
HETATM   23  C8  UNL     1      -4.756   1.090  16.203  1.00  0.00     0.013 A 
HETATM   24  C9  UNL     1      -5.710   0.672  17.087  1.00  0.00     0.001 A 
HETATM   25  C10 UNL     1      -6.871   1.391  17.337  1.00  0.00     0.000 A 
HETATM   26  C11 UNL     1      -7.011   2.571  16.632  1.00  0.00     0.001 A 
HETATM   27  C12 UNL     1      -6.065   3.005  15.741  1.00  0.00     0.013 A 
ENDBRANCH  20  22
ENDBRANCH  17  19
ENDBRANCH   4  17
BRANCH   1  28
HETATM   28  O1  UNL     1      -1.066   1.671  10.142  1.00  0.00    -0.353 OA
HETATM   29  C1  UNL     1      -1.800   0.777  10.978  1.00  0.00     0.210 C 
ENDBRANCH   1  28
BRANCH  16  30
HETATM   30  O2  UNL     1       1.221   3.065   9.266  1.00  0.00    -0.353 OA
HETATM   31  C21 UNL     1       2.240   3.736   8.600  1.00  0.00     0.210 C 
ENDBRANCH  16  30
TORSDOF 5
ENDMDL
MODEL 3
REMARK VINA RESULT: -7.375205278      2.667      2.965
REMARK  5 active torsions:
REMARK  status: ('A' for Active; 'I' for Inactive)
REMARK    1  A    between atoms: O1_2  and  C2_3 
REMARK    2  A    between atoms: C5_6  and  N1_7 
REMARK    3  A    between atoms: N1_7  and  N2_9 
REMARK    4  A    between atoms: C6_11  and  C7_12 
REMARK    5  A    between atoms: C20_29  and  O2_30 
ROOT
HETATM    1  C2  UNL     1      -1.413   2.883  11.114  1.00  0.00     0.102 A 
HETATM    2  C3  UNL     1      -2.584   3.465  11.551  1.00  0.00     0.057 A 
HETATM    3  C4  UNL     1      -2.986   4.732  11.168  1.00  0.00     0.041 A 
HETATM    4  C5  UNL     1      -4.188   5.287  11.644  1.00  0.00     0.156 A 
HETATM    5  N3  UNL     1      -4.491   6.518  11.220  1.00  0.00    -0.221 N 
HETATM    6  N4  UNL     1      -5.552   7.293  11.497  1.00  0.00    -0.295 N 
ATOM      7  H4  UNL     1      -6.321   7.026  12.111  1.00  0.00     0.187 HD
HETATM    8  C13 UNL     1      -5.461   8.469  10.853  1.00  0.00     0.026 A 
HETATM    9  C14 UNL     1      -6.400   9.615  10.864  1.00  0.00     0.070 C 
HETATM   10  C15 UNL     1      -4.283   8.402  10.149  1.00  0.00     0.076 A 
HETATM   11  C16 UNL     1      -3.663   7.183  10.370  1.00  0.00     0.133 A 
HETATM   12  N5  UNL     1      -2.505   6.659   9.907  1.00  0.00    -0.335 N 
HETATM   13  C17 UNL     1      -1.678   7.438   9.006  1.00  0.00     0.158 C 
HETATM   14  C18 UNL     1      -2.172   5.436  10.309  1.00  0.00     0.052 A 
HETATM   15  C19 UNL     1      -0.980   4.867   9.851  1.00  0.00     0.070 A 
HETATM   16  C20 UNL     1      -0.610   3.600  10.256  1.00  0.00     0.103 A 
ENDROOT
BRANCH   4  17
HETATM   17  N1  UNL     1      -4.858   4.614  12.400  1.00  0.00    -0.284 N 
ATOM     18  H1  UNL     1      -5.743   4.575  11.893  1.00  0.00     0.188 HD
BRANCH  17  19
HETATM   19  N2  UNL     1      -5.142   3.922  13.440  1.00  0.00    -0.309 N 
HETATM   20  C6  UNL     1      -5.810   3.989  14.506  1.00  0.00     0.118 C 
ATOM     21  H2  UNL     1      -4.672   3.018  13.388  1.00  0.00     0.186 HD
BRANCH  20  22
HETATM   22  C7  UNL     1      -5.855   2.880  15.479  1.00  0.00    -0.019 A 
HETATM   23  C8  UNL     1      -4.904   1.873  15.447  1.00  0.00     0.013 A 
HETATM   24  C9  UNL     1      -4.952   0.848  16.350  1.00  0.00     0.001 A 
HETATM   25  C10 UNL     1      -5.932   0.754  17.330  1.00  0.00     0.000 A 
HETATM   26  C11 UNL     1      -6.868   1.770  17.343  1.00  0.00     0.001 A 
HETATM   27  C12 UNL     1      -6.835   2.805  16.446  1.00  0.00     0.013 A 
ENDBRANCH  20  22
ENDBRANCH  17  19
ENDBRANCH   4  17
BRANCH   1  28
HETATM   28  O1  UNL     1      -1.049   1.593  11.532  1.00  0.00    -0.353 OA
HETATM   29  C1  UNL     1      -1.828   0.494  11.060  1.00  0.00     0.210 C 
ENDBRANCH   1  28
BRANCH  16  30
HETATM   30  O2  UNL     1       0.576   3.083   9.777  1.00  0.00    -0.353 OA
HETATM   31  C21 UNL     1       1.772   3.776   9.637  1.00  0.00     0.210 C 
ENDBRANCH  16  30
TORSDOF 5
ENDMDL
MODEL 4
REMARK VINA RESULT: -7.025914195      1.788      1.788
REMARK  5 active torsions:
REMARK  status: ('A' for Active; 'I' for Inactive)
REMARK    1  A    between atoms: O1_2  and  C2_3 
REMARK    2  A    between atoms: C5_6  and  N1_7 
REMARK    3  A    between atoms: N1_7  and  N2_9 
REMARK    4  A    between atoms: C6_11  and  C7_12 
REMARK    5  A    between atoms: C20_29  and  O2_30 
ROOT
HETATM    1  C2  UNL     1      -3.585   3.946  10.457  1.00  0.00     0.102 A 
HETATM    2  C3  UNL     1      -3.364   4.333  11.762  1.00  0.00     0.057 A 
HETATM    3  C4  UNL     1      -2.732   5.515  12.103  1.00  0.00     0.041 A 
HETATM    4  C5  UNL     1      -2.525   5.865  13.450  1.00  0.00     0.156 A 
HETATM    5  N3  UNL     1      -1.903   7.026  13.680  1.00  0.00    -0.221 N 
HETATM    6  N4  UNL     1      -1.572   7.616  14.840  1.00  0.00    -0.295 N 
ATOM      7  H4  UNL     1      -1.763   7.228  15.764  1.00  0.00     0.187 HD
HETATM    8  C13 UNL     1      -0.953   8.788  14.616  1.00  0.00     0.026 A 
HETATM    9  C14 UNL     1      -0.422   9.766  15.595  1.00  0.00     0.070 C 
HETATM   10  C15 UNL     1      -0.909   8.914  13.249  1.00  0.00     0.076 A 
HETATM   11  C16 UNL     1      -1.501   7.816  12.648  1.00  0.00     0.133 A 
HETATM   12  N5  UNL     1      -1.695   7.488  11.349  1.00  0.00    -0.335 N 
HETATM   13  C17 UNL     1      -1.231   8.385  10.310  1.00  0.00     0.158 C 
HETATM   14  C18 UNL     1      -2.309   6.339  11.084  1.00  0.00     0.052 A 
HETATM   15  C19 UNL     1      -2.523   5.971   9.752  1.00  0.00     0.070 A 
HETATM   16  C20 UNL     1      -3.156   4.782   9.450  1.00  0.00     0.103 A 
ENDROOT
BRANCH   4  17
HETATM   17  N1  UNL     1      -2.920   5.093  14.299  1.00  0.00    -0.284 N 
ATOM     18  H1  UNL     1      -2.213   5.222  15.023  1.00  0.00     0.188 HD
BRANCH  17  19
HETATM   19  N2  UNL     1      -3.676   4.217  14.849  1.00  0.00    -0.309 N 
HETATM   20  C6  UNL     1      -3.846   2.970  14.905  1.00  0.00     0.118 C 
ATOM     21  H2  UNL     1      -4.368   4.683  15.436  1.00  0.00     0.186 HD
BRANCH  20  22
HETATM   22  C7  UNL     1      -4.910   2.356  15.723  1.00  0.00    -0.019 A 
HETATM   23  C8  UNL     1      -6.123   3.000  15.905  1.00  0.00     0.013 A 
HETATM   24  C9  UNL     1      -7.103   2.426  16.665  1.00  0.00     0.001 A 
HETATM   25  C10 UNL     1      -6.948   1.194  17.287  1.00  0.00     0.000 A 
HETATM   26  C11 UNL     1      -5.731   0.571  17.092  1.00  0.00     0.001 A 
HETATM   27  C12 UNL     1      -4.738   1.131  16.332  1.00  0.00     0.013 A 
ENDBRANCH  20  22
ENDBRANCH  17  19
ENDBRANCH   4  17
BRANCH   1  28
HETATM   28  O1  UNL     1      -4.231   2.736  10.162  1.00  0.00    -0.353 OA
HETATM   29  C1  UNL     1      -4.675   1.933  11.256  1.00  0.00     0.210 C 
ENDBRANCH   1  28
BRANCH  16  30
HETATM   30  O2  UNL     1      -3.342   4.461   8.120  1.00  0.00    -0.353 OA
HETATM   31  C21 UNL     1      -3.301   5.351   7.053  1.00  0.00     0.210 C 
ENDBRANCH  16  30
TORSDOF 5
ENDMDL
MODEL 5
REMARK VINA RESULT: -6.989469417      3.253      4.703
REMARK  5 active torsions:
REMARK  status: ('A' for Active; 'I' for Inactive)
REMARK    1  A    between atoms: O1_2  and  C2_3 
REMARK    2  A    between atoms: C5_6  and  N1_7 
REMARK    3  A    between atoms: N1_7  and  N2_9 
REMARK    4  A    between atoms: C6_11  and  C7_12 
REMARK    5  A    between atoms: C20_29  and  O2_30 
ROOT
HETATM    1  C2  UNL     1       2.757   4.946  10.502  1.00  0.00     0.102 A 
HETATM    2  C3  UNL     1       1.568   4.420  10.960  1.00  0.00     0.057 A 
HETATM    3  C4  UNL     1       0.660   5.145  11.710  1.00  0.00     0.041 A 
HETATM    4  C5  UNL     1      -0.540   4.563  12.159  1.00  0.00     0.156 A 
HETATM    5  N3  UNL     1      -1.353   5.342  12.880  1.00  0.00    -0.221 N 
HETATM    6  N4  UNL     1      -2.545   5.071  13.435  1.00  0.00    -0.295 N 
ATOM      7  H4  UNL     1      -3.021   4.171  13.376  1.00  0.00     0.187 HD
HETATM    8  C13 UNL     1      -3.024   6.150  14.078  1.00  0.00     0.026 A 
HETATM    9  C14 UNL     1      -4.296   6.304  14.823  1.00  0.00     0.070 C 
HETATM   10  C15 UNL     1      -2.072   7.124  13.903  1.00  0.00     0.076 A 
HETATM   11  C16 UNL     1      -1.017   6.632  13.153  1.00  0.00     0.133 A 
HETATM   12  N5  UNL     1       0.135   7.201  12.727  1.00  0.00    -0.335 N 
HETATM   13  C17 UNL     1       0.418   8.581  13.066  1.00  0.00     0.158 C 
HETATM   14  C18 UNL     1       0.968   6.454  12.008  1.00  0.00     0.052 A 
HETATM   15  C19 UNL     1       2.167   7.012  11.554  1.00  0.00     0.070 A 
HETATM   16  C20 UNL     1       3.049   6.256  10.809  1.00  0.00     0.103 A 
ENDROOT
BRANCH   4  17
HETATM   17  N1  UNL     1      -0.749   3.405  11.863  1.00  0.00    -0.284 N 
ATOM     18  H1  UNL     1       0.181   3.110  11.564  1.00  0.00     0.188 HD
BRANCH  17  19
HETATM   19  N2  UNL     1      -1.414   2.322  11.695  1.00  0.00    -0.309 N 
HETATM   20  C6  UNL     1      -1.462   1.312  10.944  1.00  0.00     0.118 C 
ATOM     21  H2  UNL     1      -2.146   2.258  12.402  1.00  0.00     0.186 HD
BRANCH  20  22
HETATM   22  C7  UNL     1      -2.457   0.239  11.130  1.00  0.00    -0.019 A 
HETATM   23  C8  UNL     1      -2.059  -1.083  11.248  1.00  0.00     0.013 A 
HETATM   24  C9  UNL     1      -2.986  -2.072  11.418  1.00  0.00     0.001 A 
HETATM   25  C10 UNL     1      -4.351  -1.821  11.482  1.00  0.00     0.000 A 
HETATM   26  C11 UNL     1      -4.724  -0.496  11.363  1.00  0.00     0.001 A 
HETATM   27  C12 UNL     1      -3.808   0.508  11.192  1.00  0.00     0.013 A 
ENDBRANCH  20  22
ENDBRANCH  17  19
ENDBRANCH   4  17
BRANCH   1  28
HETATM   28  O1  UNL     1       3.646   4.169   9.743  1.00  0.00    -0.353 OA
HETATM   29  C1  UNL     1       3.384   4.026   8.347  1.00  0.00     0.210 C 
ENDBRANCH   1  28
BRANCH  16  30
HETATM   30  O2  UNL     1       4.221   6.851  10.385  1.00  0.00    -0.353 OA
HETATM   31  C21 UNL     1       5.412   6.908  11.098  1.00  0.00     0.210 C 
ENDBRANCH  16  30
TORSDOF 5
ENDMDL
