MODEL 1
REMARK VINA RESULT: -6.712942368      0.000      0.000
REMARK  7 active torsions:
REMARK  status: ('A' for Active; 'I' for Inactive)
REMARK    1  A    between atoms: C2_2  and  C3_3 
REMARK    2  A    between atoms: C3_3  and  C4_4 
REMARK    3  A    between atoms: C3_3  and  N2_9 
REMARK    4  A    between atoms: C3_3  and  C9_23 
REMARK    5  A    between atoms: C4_4  and  N1_5 
REMARK       I    between atoms: N2_9  and  C5_11 
REMARK    6  A    between atoms: C5_11  and  C6_13 
REMARK    7  A    between atoms: C6_13  and  N3_14 
REMARK       I    between atoms: N3_14  and  C7_16 
REMARK       I    between atoms: C7_16  and  N5_20 
REMARK       I    between atoms: C9_23  and  N6_25 
ROOT
HETATM    1  N2  UNL     1      28.993  64.714  10.453  1.00  0.00    -0.340 N 
ATOM      2  H2  UNL     1      29.622  63.914  10.502  1.00  0.00     0.163 HD
HETATM    3  C5  UNL     1      29.466  65.935   9.890  1.00  0.00     0.236 C 
HETATM    4  O1  UNL     1      28.746  66.954   9.789  1.00  0.00    -0.272 OA
ENDROOT
BRANCH   1   5
HETATM    5  C3  UNL     1      27.628  64.578  10.961  1.00  0.00     0.137 C 
BRANCH   5   6
HETATM    6  C2  UNL     1      27.695  63.436  11.965  1.00  0.00     0.038 C 
HETATM    7  C1  UNL     1      28.665  63.630  13.067  1.00  0.00     0.008 C 
ENDBRANCH   5   6
BRANCH   5   8
HETATM    8  C4  UNL     1      27.189  65.819  11.689  1.00  0.00     0.270 C 
BRANCH   8   9
HETATM    9  N1  UNL     1      25.910  65.689  12.304  1.00  0.00    -0.076 N 
ATOM     10  H13 UNL     1      25.196  66.171  11.759  1.00  0.00     0.274 HD
ATOM     11  H12 UNL     1      25.566  64.733  12.226  1.00  0.00     0.274 HD
ATOM     12  H11 UNL     1      25.896  66.000  13.276  1.00  0.00     0.274 HD
ENDBRANCH   8   9
ENDBRANCH   5   8
BRANCH   5  13
HETATM   13  C9  UNL     1      26.747  64.159   9.866  1.00  0.00     0.250 C 
HETATM   14  O2  UNL     1      26.680  62.883   9.698  1.00  0.00    -0.270 OA
HETATM   15  N6  UNL     1      26.006  65.026   9.023  1.00  0.00    -0.347 N 
HETATM   16  C10 UNL     1      25.532  66.326   8.516  1.00  0.00     0.145 A 
HETATM   17  C11 UNL     1      25.060  65.117   7.923  1.00  0.00     0.145 A 
ENDBRANCH   5  13
ENDBRANCH   1   5
BRANCH   3  18
HETATM   18  C6  UNL     1      30.858  66.017   9.403  1.00  0.00     0.240 C 
BRANCH  18  19
HETATM   19  N3  UNL     1      30.894  65.799   7.979  1.00  0.00    -0.218 N 
HETATM   20  C7  UNL     1      30.761  66.813   6.992  1.00  0.00     0.667 C 
HETATM   21  N4  UNL     1      31.744  67.156   6.229  1.00  0.00    -0.235 N 
HETATM   22  N5  UNL     1      29.493  67.457   6.847  1.00  0.00    -0.231 N 
ATOM     23  H42 UNL     1      32.649  66.696   6.332  1.00  0.00     0.174 HD
ATOM     24  H41 UNL     1      31.648  67.884   5.520  1.00  0.00     0.174 HD
HETATM   25  C8  UNL     1      28.413  66.635   6.340  1.00  0.00     0.165 C 
ATOM     26  H5  UNL     1      29.357  68.439   7.086  1.00  0.00     0.177 HD
ATOM     27  H3  UNL     1      31.025  64.841   7.654  1.00  0.00     0.178 HD
ENDBRANCH  18  19
ENDBRANCH   3  18
TORSDOF 7
ENDMDL
MODEL 2
REMARK VINA RESULT: -6.679132791      1.192      1.236
REMARK  7 active torsions:
REMARK  status: ('A' for Active; 'I' for Inactive)
REMARK    1  A    between atoms: C2_2  and  C3_3 
REMARK    2  A    between atoms: C3_3  and  C4_4 
REMARK    3  A    between atoms: C3_3  and  N2_9 
REMARK    4  A    between atoms: C3_3  and  C9_23 
REMARK    5  A    between atoms: C4_4  and  N1_5 
REMARK       I    between atoms: N2_9  and  C5_11 
REMARK    6  A    between atoms: C5_11  and  C6_13 
REMARK    7  A    between atoms: C6_13  and  N3_14 
REMARK       I    between atoms: N3_14  and  C7_16 
REMARK       I    between atoms: C7_16  and  N5_20 
REMARK       I    between atoms: C9_23  and  N6_25 
ROOT
HETATM    1  N2  UNL     1      29.582  65.038  11.074  1.00  0.00    -0.340 N 
ATOM      2  H2  UNL     1      30.380  64.509  11.426  1.00  0.00     0.163 HD
HETATM    3  C5  UNL     1      29.791  66.007  10.049  1.00  0.00     0.236 C 
HETATM    4  O1  UNL     1      28.858  66.685   9.564  1.00  0.00    -0.272 OA
ENDROOT
BRANCH   1   5
HETATM    5  C3  UNL     1      28.255  64.782  11.634  1.00  0.00     0.137 C 
BRANCH   5   6
HETATM    6  C2  UNL     1      28.496  63.828  12.795  1.00  0.00     0.038 C 
HETATM    7  C1  UNL     1      27.303  63.540  13.624  1.00  0.00     0.008 C 
ENDBRANCH   5   6
BRANCH   5   8
HETATM    8  C4  UNL     1      27.639  66.041  12.178  1.00  0.00     0.270 C 
BRANCH   8   9
HETATM    9  N1  UNL     1      28.557  66.847  12.911  1.00  0.00    -0.076 N 
ATOM     10  H13 UNL     1      28.777  66.419  13.810  1.00  0.00     0.274 HD
ATOM     11  H12 UNL     1      29.482  66.824  12.483  1.00  0.00     0.274 HD
ATOM     12  H11 UNL     1      28.239  67.809  13.036  1.00  0.00     0.274 HD
ENDBRANCH   8   9
ENDBRANCH   5   8
BRANCH   5  13
HETATM   13  C9  UNL     1      27.442  64.075  10.638  1.00  0.00     0.250 C 
HETATM   14  O2  UNL     1      28.000  63.022  10.148  1.00  0.00    -0.270 OA
HETATM   15  N6  UNL     1      26.150  64.462  10.201  1.00  0.00    -0.347 N 
HETATM   16  C10 UNL     1      24.946  65.311  10.152  1.00  0.00     0.145 A 
HETATM   17  C11 UNL     1      25.019  64.135   9.349  1.00  0.00     0.145 A 
ENDBRANCH   5  13
ENDBRANCH   1   5
BRANCH   3  18
HETATM   18  C6  UNL     1      31.155  66.230   9.532  1.00  0.00     0.240 C 
BRANCH  18  19
HETATM   19  N3  UNL     1      31.256  65.735   8.182  1.00  0.00    -0.218 N 
HETATM   20  C7  UNL     1      31.324  66.544   7.015  1.00  0.00     0.667 C 
HETATM   21  N4  UNL     1      32.391  66.612   6.293  1.00  0.00    -0.235 N 
HETATM   22  N5  UNL     1      30.164  67.291   6.639  1.00  0.00    -0.231 N 
ATOM     23  H42 UNL     1      33.219  66.079   6.562  1.00  0.00     0.174 HD
ATOM     24  H41 UNL     1      32.439  67.193   5.456  1.00  0.00     0.174 HD
HETATM   25  C8  UNL     1      29.020  66.518   6.200  1.00  0.00     0.165 C 
ATOM     26  H5  UNL     1      30.144  68.311   6.679  1.00  0.00     0.177 HD
ATOM     27  H3  UNL     1      31.280  64.723   8.054  1.00  0.00     0.178 HD
ENDBRANCH  18  19
ENDBRANCH   3  18
TORSDOF 7
ENDMDL
MODEL 3
REMARK VINA RESULT: -6.624557693      1.118      1.350
REMARK  7 active torsions:
REMARK  status: ('A' for Active; 'I' for Inactive)
REMARK    1  A    between atoms: C2_2  and  C3_3 
REMARK    2  A    between atoms: C3_3  and  C4_4 
REMARK    3  A    between atoms: C3_3  and  N2_9 
REMARK    4  A    between atoms: C3_3  and  C9_23 
REMARK    5  A    between atoms: C4_4  and  N1_5 
REMARK       I    between atoms: N2_9  and  C5_11 
REMARK    6  A    between atoms: C5_11  and  C6_13 
REMARK    7  A    between atoms: C6_13  and  N3_14 
REMARK       I    between atoms: N3_14  and  C7_16 
REMARK       I    between atoms: C7_16  and  N5_20 
REMARK       I    between atoms: C9_23  and  N6_25 
ROOT
HETATM    1  N2  UNL     1      29.116  64.679  10.175  1.00  0.00    -0.340 N 
ATOM      2  H2  UNL     1      29.628  63.825   9.956  1.00  0.00     0.163 HD
HETATM    3  C5  UNL     1      29.721  65.940   9.899  1.00  0.00     0.236 C 
HETATM    4  O1  UNL     1      29.147  67.028  10.135  1.00  0.00    -0.272 OA
ENDROOT
BRANCH   1   5
HETATM    5  C3  UNL     1      27.781  64.577  10.766  1.00  0.00     0.137 C 
BRANCH   5   6
HETATM    6  C2  UNL     1      27.746  63.205  11.422  1.00  0.00     0.038 C 
HETATM    7  C1  UNL     1      28.111  63.189  12.857  1.00  0.00     0.008 C 
ENDBRANCH   5   6
BRANCH   5   8
HETATM    8  C4  UNL     1      27.575  65.615  11.834  1.00  0.00     0.270 C 
BRANCH   8   9
HETATM    9  N1  UNL     1      26.473  66.480  11.574  1.00  0.00    -0.076 N 
ATOM     10  H13 UNL     1      25.771  66.404  12.310  1.00  0.00     0.274 HD
ATOM     11  H12 UNL     1      26.741  67.456  11.698  1.00  0.00     0.274 HD
ATOM     12  H11 UNL     1      26.053  66.334  10.656  1.00  0.00     0.274 HD
ENDBRANCH   8   9
ENDBRANCH   5   8
BRANCH   5  13
HETATM   13  C9  UNL     1      26.780  64.585   9.693  1.00  0.00     0.250 C 
HETATM   14  O2  UNL     1      26.947  65.517   8.819  1.00  0.00    -0.270 OA
HETATM   15  N6  UNL     1      25.696  63.680   9.568  1.00  0.00    -0.347 N 
HETATM   16  C10 UNL     1      24.839  62.547   9.962  1.00  0.00     0.145 A 
HETATM   17  C11 UNL     1      24.553  63.273   8.768  1.00  0.00     0.145 A 
ENDBRANCH   5  13
ENDBRANCH   1   5
BRANCH   3  18
HETATM   18  C6  UNL     1      31.075  65.980   9.314  1.00  0.00     0.240 C 
BRANCH  18  19
HETATM   19  N3  UNL     1      30.999  65.799   7.886  1.00  0.00    -0.218 N 
HETATM   20  C7  UNL     1      30.812  66.840   6.937  1.00  0.00     0.667 C 
HETATM   21  N4  UNL     1      31.741  67.185   6.110  1.00  0.00    -0.235 N 
HETATM   22  N5  UNL     1      29.550  67.511   6.904  1.00  0.00    -0.231 N 
ATOM     23  H42 UNL     1      32.642  66.706   6.133  1.00  0.00     0.174 HD
ATOM     24  H41 UNL     1      31.607  67.932   5.428  1.00  0.00     0.174 HD
HETATM   25  C8  UNL     1      28.418  66.721   6.461  1.00  0.00     0.165 C 
ATOM     26  H5  UNL     1      29.452  68.489   7.177  1.00  0.00     0.177 HD
ATOM     27  H3  UNL     1      31.087  64.848   7.528  1.00  0.00     0.178 HD
ENDBRANCH  18  19
ENDBRANCH   3  18
TORSDOF 7
ENDMDL
MODEL 4
REMARK VINA RESULT: -6.574576642      1.960      3.459
REMARK  7 active torsions:
REMARK  status: ('A' for Active; 'I' for Inactive)
REMARK    1  A    between atoms: C2_2  and  C3_3 
REMARK    2  A    between atoms: C3_3  and  C4_4 
REMARK    3  A    between atoms: C3_3  and  N2_9 
REMARK    4  A    between atoms: C3_3  and  C9_23 
REMARK    5  A    between atoms: C4_4  and  N1_5 
REMARK       I    between atoms: N2_9  and  C5_11 
REMARK    6  A    between atoms: C5_11  and  C6_13 
REMARK    7  A    between atoms: C6_13  and  N3_14 
REMARK       I    between atoms: N3_14  and  C7_16 
REMARK       I    between atoms: C7_16  and  N5_20 
REMARK       I    between atoms: C9_23  and  N6_25 
ROOT
HETATM    1  N2  UNL     1      26.856  64.851   9.836  1.00  0.00    -0.340 N 
ATOM      2  H2  UNL     1      26.710  65.630   9.195  1.00  0.00     0.163 HD
HETATM    3  C5  UNL     1      28.107  64.732  10.509  1.00  0.00     0.236 C 
HETATM    4  O1  UNL     1      28.352  63.806  11.316  1.00  0.00    -0.272 OA
ENDROOT
BRANCH   1   5
HETATM    5  C3  UNL     1      25.776  63.886  10.041  1.00  0.00     0.137 C 
BRANCH   5   6
HETATM    6  C2  UNL     1      24.767  64.187   8.943  1.00  0.00     0.038 C 
HETATM    7  C1  UNL     1      25.249  65.107   7.887  1.00  0.00     0.008 C 
ENDBRANCH   5   6
BRANCH   5   8
HETATM    8  C4  UNL     1      26.261  62.474   9.860  1.00  0.00     0.270 C 
BRANCH   8   9
HETATM    9  N1  UNL     1      25.256  61.591   9.370  1.00  0.00    -0.076 N 
ATOM     10  H13 UNL     1      24.949  60.951  10.103  1.00  0.00     0.274 HD
ATOM     11  H12 UNL     1      24.383  62.091   9.206  1.00  0.00     0.274 HD
ATOM     12  H11 UNL     1      25.542  61.077   8.537  1.00  0.00     0.274 HD
ENDBRANCH   8   9
ENDBRANCH   5   8
BRANCH   5  13
HETATM   13  C9  UNL     1      25.128  64.157  11.329  1.00  0.00     0.250 C 
HETATM   14  O2  UNL     1      24.998  63.122  12.085  1.00  0.00    -0.270 OA
HETATM   15  N6  UNL     1      24.658  65.421  11.768  1.00  0.00    -0.347 N 
HETATM   16  C10 UNL     1      24.388  66.866  11.660  1.00  0.00     0.145 A 
HETATM   17  C11 UNL     1      24.033  66.163  12.850  1.00  0.00     0.145 A 
ENDBRANCH   5  13
ENDBRANCH   1   5
BRANCH   3  18
HETATM   18  C6  UNL     1      29.164  65.729  10.253  1.00  0.00     0.240 C 
BRANCH  18  19
HETATM   19  N3  UNL     1      30.244  65.124   9.515  1.00  0.00    -0.218 N 
HETATM   20  C7  UNL     1      31.441  65.782   9.125  1.00  0.00     0.667 C 
HETATM   21  N4  UNL     1      32.586  65.474   9.634  1.00  0.00    -0.235 N 
HETATM   22  N5  UNL     1      31.359  66.809   8.134  1.00  0.00    -0.231 N 
ATOM     23  H42 UNL     1      32.645  64.741  10.341  1.00  0.00     0.174 HD
ATOM     24  H41 UNL     1      33.446  65.947   9.354  1.00  0.00     0.174 HD
HETATM   25  C8  UNL     1      31.001  66.380   6.797  1.00  0.00     0.165 C 
ATOM     26  H5  UNL     1      31.541  67.788   8.356  1.00  0.00     0.177 HD
ATOM     27  H3  UNL     1      30.140  64.143   9.252  1.00  0.00     0.178 HD
ENDBRANCH  18  19
ENDBRANCH   3  18
TORSDOF 7
ENDMDL
MODEL 5
REMARK VINA RESULT: -6.544846047      2.229      3.512
REMARK  7 active torsions:
REMARK  status: ('A' for Active; 'I' for Inactive)
REMARK    1  A    between atoms: C2_2  and  C3_3 
REMARK    2  A    between atoms: C3_3  and  C4_4 
REMARK    3  A    between atoms: C3_3  and  N2_9 
REMARK    4  A    between atoms: C3_3  and  C9_23 
REMARK    5  A    between atoms: C4_4  and  N1_5 
REMARK       I    between atoms: N2_9  and  C5_11 
REMARK    6  A    between atoms: C5_11  and  C6_13 
REMARK    7  A    between atoms: C6_13  and  N3_14 
REMARK       I    between atoms: N3_14  and  C7_16 
REMARK       I    between atoms: C7_16  and  N5_20 
REMARK       I    between atoms: C9_23  and  N6_25 
ROOT
HETATM    1  N2  UNL     1      29.588  66.448  11.056  1.00  0.00    -0.340 N 
ATOM      2  H2  UNL     1      30.085  67.283  11.363  1.00  0.00     0.163 HD
HETATM    3  C5  UNL     1      30.097  65.704   9.952  1.00  0.00     0.236 C 
HETATM    4  O1  UNL     1      29.543  64.664   9.527  1.00  0.00    -0.272 OA
ENDROOT
BRANCH   1   5
HETATM    5  C3  UNL     1      28.371  66.045  11.761  1.00  0.00     0.137 C 
BRANCH   5   6
HETATM    6  C2  UNL     1      27.240  66.322  10.782  1.00  0.00     0.038 C 
HETATM    7  C1  UNL     1      26.196  65.273  10.720  1.00  0.00     0.008 C 
ENDBRANCH   5   6
BRANCH   5   8
HETATM    8  C4  UNL     1      28.378  64.573  12.068  1.00  0.00     0.270 C 
BRANCH   8   9
HETATM    9  N1  UNL     1      29.476  64.172  12.883  1.00  0.00    -0.076 N 
ATOM     10  H13 UNL     1      30.169  64.917  12.949  1.00  0.00     0.274 HD
ATOM     11  H12 UNL     1      29.198  64.114  13.863  1.00  0.00     0.274 HD
ATOM     12  H11 UNL     1      29.908  63.300  12.578  1.00  0.00     0.274 HD
ENDBRANCH   8   9
ENDBRANCH   5   8
BRANCH   5  13
HETATM   13  C9  UNL     1      28.179  66.918  12.924  1.00  0.00     0.250 C 
HETATM   14  O2  UNL     1      27.962  66.291  14.028  1.00  0.00    -0.270 OA
HETATM   15  N6  UNL     1      28.212  68.336  12.907  1.00  0.00    -0.347 N 
HETATM   16  C10 UNL     1      28.341  69.670  12.294  1.00  0.00     0.145 A 
HETATM   17  C11 UNL     1      28.120  69.552  13.698  1.00  0.00     0.145 A 
ENDBRANCH   5  13
ENDBRANCH   1   5
BRANCH   3  18
HETATM   18  C6  UNL     1      31.323  66.166   9.271  1.00  0.00     0.240 C 
BRANCH  18  19
HETATM   19  N3  UNL     1      31.214  65.935   7.853  1.00  0.00    -0.218 N 
HETATM   20  C7  UNL     1      30.890  66.923   6.884  1.00  0.00     0.667 C 
HETATM   21  N4  UNL     1      31.750  67.332   6.013  1.00  0.00    -0.235 N 
HETATM   22  N5  UNL     1      29.566  67.463   6.883  1.00  0.00    -0.231 N 
ATOM     23  H42 UNL     1      32.694  66.947   6.014  1.00  0.00     0.174 HD
ATOM     24  H41 UNL     1      31.516  68.042   5.318  1.00  0.00     0.174 HD
HETATM   25  C8  UNL     1      28.504  66.552   6.505  1.00  0.00     0.165 C 
ATOM     26  H5  UNL     1      29.381  68.434   7.133  1.00  0.00     0.177 HD
ATOM     27  H3  UNL     1      31.384  64.986   7.518  1.00  0.00     0.178 HD
ENDBRANCH  18  19
ENDBRANCH   3  18
TORSDOF 7
ENDMDL
