MODEL 1
REMARK VINA RESULT: -7.250228005      0.000      0.000
REMARK  8 active torsions:
REMARK  status: ('A' for Active; 'I' for Inactive)
REMARK    1  A    between atoms: N1_6  and  N2_7 
REMARK    2  A    between atoms: N1_6  and  C6_10 
REMARK    3  A    between atoms: C6_10  and  C7_11 
REMARK    4  A    between atoms: C7_11  and  O1_12 
REMARK    5  A    between atoms: O1_12  and  N3_13 
REMARK    6  A    between atoms: N3_13  and  C8_15 
REMARK    7  A    between atoms: C8_15  and  C9_19 
REMARK    8  A    between atoms: N5_20  and  N6_22 
ROOT
HETATM    1  N3  UNL     1      30.762  66.081   9.641  1.00  0.00    -0.250 N 
ATOM      2  H3  UNL     1      30.402  66.951  10.034  1.00  0.00     0.196 HD
ENDROOT
BRANCH   1   3
HETATM    3  O1  UNL     1      29.913  65.048   9.446  1.00  0.00    -0.277 OA
BRANCH   3   4
HETATM    4  C7  UNL     1      28.641  65.325   9.940  1.00  0.00     0.231 C 
BRANCH   4   5
HETATM    5  C6  UNL     1      28.378  64.622  11.248  1.00  0.00     0.293 C 
BRANCH   5   6
HETATM    6  N1  UNL     1      27.174  63.840  11.086  1.00  0.00     0.009 N 
HETATM    7  C5  UNL     1      26.247  63.963  12.164  1.00  0.00     0.265 C 
HETATM    8  C4  UNL     1      24.929  63.577  11.498  1.00  0.00     0.041 C 
HETATM    9  C2  UNL     1      25.044  64.105  10.109  1.00  0.00    -0.020 C 
HETATM   10  C1  UNL     1      24.240  65.393   9.956  1.00  0.00     0.016 C 
HETATM   11  C3  UNL     1      24.533  63.144   9.061  1.00  0.00     0.016 C 
HETATM   12  C11 UNL     1      26.508  64.315   9.889  1.00  0.00     0.273 C 
BRANCH   6  13
HETATM   13  N2  UNL     1      27.569  62.506  10.924  1.00  0.00    -0.261 N 
ATOM     14  H22 UNL     1      28.033  61.958  11.649  1.00  0.00     0.183 HD
ATOM     15  H21 UNL     1      27.329  62.170   9.992  1.00  0.00     0.183 HD
ENDBRANCH   6  13
ENDBRANCH   5   6
ENDBRANCH   4   5
ENDBRANCH   3   4
ENDBRANCH   1   3
BRANCH   1  16
HETATM   16  C8  UNL     1      32.136  65.989   9.316  1.00  0.00     0.136 C 
HETATM   17  N4  UNL     1      32.868  65.139   9.936  1.00  0.00    -0.383 N 
ATOM     18  H42 UNL     1      32.431  64.554  10.648  1.00  0.00     0.157 HD
ATOM     19  H41 UNL     1      33.858  65.073   9.701  1.00  0.00     0.157 HD
BRANCH  16  20
HETATM   20  C9  UNL     1      32.760  66.826   8.298  1.00  0.00     0.156 C 
HETATM   21  N5  UNL     1      32.460  66.821   7.052  1.00  0.00    -0.306 N 
ATOM     22  H5  UNL     1      32.960  67.449   6.423  1.00  0.00     0.186 HD
BRANCH  21  23
HETATM   23  N6  UNL     1      31.487  65.999   6.532  1.00  0.00    -0.276 N 
HETATM   24  C10 UNL     1      30.271  66.401   6.433  1.00  0.00     0.215 C 
HETATM   25  N7  UNL     1      29.310  65.514   5.890  1.00  0.00    -0.065 NA
HETATM   26  N8  UNL     1      29.922  67.700   6.859  1.00  0.00    -0.065 NA
ATOM     27  H6  UNL     1      31.735  65.059   6.222  1.00  0.00     0.189 HD
ENDBRANCH  21  23
ENDBRANCH  16  20
ENDBRANCH   1  16
TORSDOF 8
ENDMDL
MODEL 2
REMARK VINA RESULT: -7.164923583      1.268      1.995
REMARK  8 active torsions:
REMARK  status: ('A' for Active; 'I' for Inactive)
REMARK    1  A    between atoms: N1_6  and  N2_7 
REMARK    2  A    between atoms: N1_6  and  C6_10 
REMARK    3  A    between atoms: C6_10  and  C7_11 
REMARK    4  A    between atoms: C7_11  and  O1_12 
REMARK    5  A    between atoms: O1_12  and  N3_13 
REMARK    6  A    between atoms: N3_13  and  C8_15 
REMARK    7  A    between atoms: C8_15  and  C9_19 
REMARK    8  A    between atoms: N5_20  and  N6_22 
ROOT
HETATM    1  N3  UNL     1      30.745  66.112   9.637  1.00  0.00    -0.250 N 
ATOM      2  H3  UNL     1      30.375  67.021   9.915  1.00  0.00     0.196 HD
ENDROOT
BRANCH   1   3
HETATM    3  O1  UNL     1      29.910  65.050   9.589  1.00  0.00    -0.277 OA
BRANCH   3   4
HETATM    4  C7  UNL     1      28.659  65.354  10.119  1.00  0.00     0.231 C 
BRANCH   4   5
HETATM    5  C6  UNL     1      27.816  66.150   9.155  1.00  0.00     0.293 C 
BRANCH   5   6
HETATM    6  N1  UNL     1      26.432  65.831   9.424  1.00  0.00     0.009 N 
HETATM    7  C5  UNL     1      25.674  65.494   8.263  1.00  0.00     0.265 C 
HETATM    8  C4  UNL     1      24.536  64.666   8.853  1.00  0.00     0.041 C 
HETATM    9  C2  UNL     1      25.162  63.924   9.985  1.00  0.00    -0.020 C 
HETATM   10  C1  UNL     1      25.432  62.474   9.593  1.00  0.00     0.016 C 
HETATM   11  C3  UNL     1      24.300  63.890  11.225  1.00  0.00     0.016 C 
HETATM   12  C11 UNL     1      26.417  64.675  10.299  1.00  0.00     0.273 C 
BRANCH   6  13
HETATM   13  N2  UNL     1      25.873  66.939  10.074  1.00  0.00    -0.261 N 
ATOM     14  H22 UNL     1      24.926  67.278   9.907  1.00  0.00     0.183 HD
ATOM     15  H21 UNL     1      26.542  67.348  10.726  1.00  0.00     0.183 HD
ENDBRANCH   6  13
ENDBRANCH   5   6
ENDBRANCH   4   5
ENDBRANCH   3   4
ENDBRANCH   1   3
BRANCH   1  16
HETATM   16  C8  UNL     1      32.118  65.997   9.311  1.00  0.00     0.136 C 
HETATM   17  N4  UNL     1      32.834  65.133   9.929  1.00  0.00    -0.383 N 
ATOM     18  H42 UNL     1      32.387  64.554  10.640  1.00  0.00     0.157 HD
ATOM     19  H41 UNL     1      33.824  65.051   9.694  1.00  0.00     0.157 HD
BRANCH  16  20
HETATM   20  C9  UNL     1      32.756  66.826   8.295  1.00  0.00     0.156 C 
HETATM   21  N5  UNL     1      32.474  66.809   7.045  1.00  0.00    -0.306 N 
ATOM     22  H5  UNL     1      32.983  67.432   6.418  1.00  0.00     0.186 HD
BRANCH  21  23
HETATM   23  N6  UNL     1      31.510  65.981   6.518  1.00  0.00    -0.276 N 
HETATM   24  C10 UNL     1      30.293  66.377   6.408  1.00  0.00     0.215 C 
HETATM   25  N7  UNL     1      29.341  65.485   5.858  1.00  0.00    -0.065 NA
HETATM   26  N8  UNL     1      29.934  67.675   6.829  1.00  0.00    -0.065 NA
ATOM     27  H6  UNL     1      31.765  65.043   6.211  1.00  0.00     0.189 HD
ENDBRANCH  21  23
ENDBRANCH  16  20
ENDBRANCH   1  16
TORSDOF 8
ENDMDL
MODEL 3
REMARK VINA RESULT: -7.119681851      1.525      2.051
REMARK  8 active torsions:
REMARK  status: ('A' for Active; 'I' for Inactive)
REMARK    1  A    between atoms: N1_6  and  N2_7 
REMARK    2  A    between atoms: N1_6  and  C6_10 
REMARK    3  A    between atoms: C6_10  and  C7_11 
REMARK    4  A    between atoms: C7_11  and  O1_12 
REMARK    5  A    between atoms: O1_12  and  N3_13 
REMARK    6  A    between atoms: N3_13  and  C8_15 
REMARK    7  A    between atoms: C8_15  and  C9_19 
REMARK    8  A    between atoms: N5_20  and  N6_22 
ROOT
HETATM    1  N3  UNL     1      30.752  66.086   9.610  1.00  0.00    -0.250 N 
ATOM      2  H3  UNL     1      30.377  66.957   9.986  1.00  0.00     0.196 HD
ENDROOT
BRANCH   1   3
HETATM    3  O1  UNL     1      29.923  65.030   9.449  1.00  0.00    -0.277 OA
BRANCH   3   4
HETATM    4  C7  UNL     1      28.743  65.187  10.170  1.00  0.00     0.231 C 
BRANCH   4   5
HETATM    5  C6  UNL     1      28.046  66.483   9.840  1.00  0.00     0.293 C 
BRANCH   5   6
HETATM    6  N1  UNL     1      26.748  66.152   9.298  1.00  0.00     0.009 N 
HETATM    7  C5  UNL     1      26.375  64.785   9.469  1.00  0.00     0.265 C 
HETATM    8  C4  UNL     1      24.853  64.857   9.385  1.00  0.00     0.041 C 
HETATM    9  C2  UNL     1      24.505  66.158  10.024  1.00  0.00    -0.020 C 
HETATM   10  C1  UNL     1      23.981  65.938  11.441  1.00  0.00     0.016 C 
HETATM   11  C3  UNL     1      23.437  66.922   9.276  1.00  0.00     0.016 C 
HETATM   12  C11 UNL     1      25.768  66.957   9.999  1.00  0.00     0.273 C 
BRANCH   6  13
HETATM   13  N2  UNL     1      26.772  66.491   7.939  1.00  0.00    -0.261 N 
ATOM     14  H22 UNL     1      26.885  65.813   7.185  1.00  0.00     0.183 HD
ATOM     15  H21 UNL     1      26.662  67.497   7.818  1.00  0.00     0.183 HD
ENDBRANCH   6  13
ENDBRANCH   5   6
ENDBRANCH   4   5
ENDBRANCH   3   4
ENDBRANCH   1   3
BRANCH   1  16
HETATM   16  C8  UNL     1      32.124  66.016   9.271  1.00  0.00     0.136 C 
HETATM   17  N4  UNL     1      32.882  65.203   9.908  1.00  0.00    -0.383 N 
ATOM     18  H42 UNL     1      32.467  64.630  10.643  1.00  0.00     0.157 HD
ATOM     19  H41 UNL     1      33.872  65.153   9.663  1.00  0.00     0.157 HD
BRANCH  16  20
HETATM   20  C9  UNL     1      32.717  66.836   8.220  1.00  0.00     0.156 C 
HETATM   21  N5  UNL     1      32.368  66.821   6.988  1.00  0.00    -0.306 N 
ATOM     22  H5  UNL     1      32.849  67.437   6.333  1.00  0.00     0.186 HD
BRANCH  21  23
HETATM   23  N6  UNL     1      31.367  66.004   6.514  1.00  0.00    -0.276 N 
HETATM   24  C10 UNL     1      30.152  66.417   6.460  1.00  0.00     0.215 C 
HETATM   25  N7  UNL     1      29.161  65.535   5.964  1.00  0.00    -0.065 NA
HETATM   26  N8  UNL     1      29.833  67.723   6.887  1.00  0.00    -0.065 NA
ATOM     27  H6  UNL     1      31.593  65.059   6.204  1.00  0.00     0.189 HD
ENDBRANCH  21  23
ENDBRANCH  16  20
ENDBRANCH   1  16
TORSDOF 8
ENDMDL
MODEL 4
REMARK VINA RESULT: -7.096134793      0.852      1.548
REMARK  8 active torsions:
REMARK  status: ('A' for Active; 'I' for Inactive)
REMARK    1  A    between atoms: N1_6  and  N2_7 
REMARK    2  A    between atoms: N1_6  and  C6_10 
REMARK    3  A    between atoms: C6_10  and  C7_11 
REMARK    4  A    between atoms: C7_11  and  O1_12 
REMARK    5  A    between atoms: O1_12  and  N3_13 
REMARK    6  A    between atoms: N3_13  and  C8_15 
REMARK    7  A    between atoms: C8_15  and  C9_19 
REMARK    8  A    between atoms: N5_20  and  N6_22 
ROOT
HETATM    1  N3  UNL     1      30.760  66.215   9.682  1.00  0.00    -0.250 N 
ATOM      2  H3  UNL     1      30.431  67.154   9.908  1.00  0.00     0.196 HD
ENDROOT
BRANCH   1   3
HETATM    3  O1  UNL     1      29.895  65.180   9.758  1.00  0.00    -0.277 OA
BRANCH   3   4
HETATM    4  C7  UNL     1      28.939  65.379  10.750  1.00  0.00     0.231 C 
BRANCH   4   5
HETATM    5  C6  UNL     1      28.166  64.119  11.050  1.00  0.00     0.293 C 
BRANCH   5   6
HETATM    6  N1  UNL     1      26.806  64.329  10.610  1.00  0.00     0.009 N 
HETATM    7  C5  UNL     1      26.162  63.155  10.119  1.00  0.00     0.265 C 
HETATM    8  C4  UNL     1      24.686  63.498  10.304  1.00  0.00     0.041 C 
HETATM    9  C2  UNL     1      24.645  64.307  11.556  1.00  0.00    -0.020 C 
HETATM   10  C1  UNL     1      24.147  63.462  12.725  1.00  0.00     0.016 C 
HETATM   11  C3  UNL     1      23.732  65.506  11.460  1.00  0.00     0.016 C 
HETATM   12  C11 UNL     1      26.047  64.790  11.756  1.00  0.00     0.273 C 
BRANCH   6  13
HETATM   13  N2  UNL     1      26.843  65.322   9.621  1.00  0.00    -0.261 N 
ATOM     14  H22 UNL     1      26.042  65.895   9.361  1.00  0.00     0.183 HD
ATOM     15  H21 UNL     1      27.774  65.383   9.210  1.00  0.00     0.183 HD
ENDBRANCH   6  13
ENDBRANCH   5   6
ENDBRANCH   4   5
ENDBRANCH   3   4
ENDBRANCH   1   3
BRANCH   1  16
HETATM   16  C8  UNL     1      32.111  66.033   9.299  1.00  0.00     0.136 C 
HETATM   17  N4  UNL     1      32.803  65.119   9.871  1.00  0.00    -0.383 N 
ATOM     18  H42 UNL     1      32.353  64.550  10.589  1.00  0.00     0.157 HD
ATOM     19  H41 UNL     1      33.776  64.988   9.594  1.00  0.00     0.157 HD
BRANCH  16  20
HETATM   20  C9  UNL     1      32.753  66.847   8.273  1.00  0.00     0.156 C 
HETATM   21  N5  UNL     1      32.465  66.822   7.025  1.00  0.00    -0.306 N 
ATOM     22  H5  UNL     1      32.977  67.435   6.390  1.00  0.00     0.186 HD
BRANCH  21  23
HETATM   23  N6  UNL     1      31.491  66.000   6.509  1.00  0.00    -0.276 N 
HETATM   24  C10 UNL     1      30.273  66.398   6.422  1.00  0.00     0.215 C 
HETATM   25  N7  UNL     1      29.309  65.511   5.883  1.00  0.00    -0.065 NA
HETATM   26  N8  UNL     1      29.923  67.694   6.859  1.00  0.00    -0.065 NA
ATOM     27  H6  UNL     1      31.738  65.063   6.191  1.00  0.00     0.189 HD
ENDBRANCH  21  23
ENDBRANCH  16  20
ENDBRANCH   1  16
TORSDOF 8
ENDMDL
MODEL 5
REMARK VINA RESULT: -6.892314855      2.051      3.222
REMARK  8 active torsions:
REMARK  status: ('A' for Active; 'I' for Inactive)
REMARK    1  A    between atoms: N1_6  and  N2_7 
REMARK    2  A    between atoms: N1_6  and  C6_10 
REMARK    3  A    between atoms: C6_10  and  C7_11 
REMARK    4  A    between atoms: C7_11  and  O1_12 
REMARK    5  A    between atoms: O1_12  and  N3_13 
REMARK    6  A    between atoms: N3_13  and  C8_15 
REMARK    7  A    between atoms: C8_15  and  C9_19 
REMARK    8  A    between atoms: N5_20  and  N6_22 
ROOT
HETATM    1  N3  UNL     1      28.037  66.830   8.819  1.00  0.00    -0.250 N 
ATOM      2  H3  UNL     1      27.769  67.798   8.640  1.00  0.00     0.196 HD
ENDROOT
BRANCH   1   3
HETATM    3  O1  UNL     1      27.558  65.856   8.014  1.00  0.00    -0.277 OA
BRANCH   3   4
HETATM    4  C7  UNL     1      26.215  66.056   7.706  1.00  0.00     0.231 C 
BRANCH   4   5
HETATM    5  C6  UNL     1      25.436  66.576   8.889  1.00  0.00     0.293 C 
BRANCH   5   6
HETATM    6  N1  UNL     1      24.844  65.438   9.553  1.00  0.00     0.009 N 
HETATM    7  C5  UNL     1      24.935  64.219   8.817  1.00  0.00     0.265 C 
HETATM    8  C4  UNL     1      24.816  63.170   9.920  1.00  0.00     0.041 C 
HETATM    9  C2  UNL     1      25.511  63.778  11.090  1.00  0.00    -0.020 C 
HETATM   10  C1  UNL     1      26.900  63.170  11.264  1.00  0.00     0.016 C 
HETATM   11  C3  UNL     1      24.776  63.570  12.393  1.00  0.00     0.016 C 
HETATM   12  C11 UNL     1      25.560  65.244  10.799  1.00  0.00     0.273 C 
BRANCH   6  13
HETATM   13  N2  UNL     1      23.505  65.761   9.808  1.00  0.00    -0.261 N 
ATOM     14  H22 UNL     1      22.716  65.348   9.313  1.00  0.00     0.183 HD
ATOM     15  H21 UNL     1      23.439  66.459  10.549  1.00  0.00     0.183 HD
ENDBRANCH   6  13
ENDBRANCH   5   6
ENDBRANCH   4   5
ENDBRANCH   3   4
ENDBRANCH   1   3
BRANCH   1  16
HETATM   16  C8  UNL     1      28.900  66.545   9.904  1.00  0.00     0.136 C 
HETATM   17  N4  UNL     1      28.834  67.268  10.959  1.00  0.00    -0.383 N 
ATOM     18  H42 UNL     1      28.156  68.031  10.981  1.00  0.00     0.157 HD
ATOM     19  H41 UNL     1      29.456  67.062  11.741  1.00  0.00     0.157 HD
BRANCH  16  20
HETATM   20  C9  UNL     1      29.869  65.455   9.872  1.00  0.00     0.156 C 
HETATM   21  N5  UNL     1      30.614  65.160   8.872  1.00  0.00    -0.306 N 
ATOM     22  H5  UNL     1      31.261  64.375   8.956  1.00  0.00     0.186 HD
BRANCH  21  23
HETATM   23  N6  UNL     1      30.575  65.862   7.690  1.00  0.00    -0.276 N 
HETATM   24  C10 UNL     1      31.541  66.640   7.356  1.00  0.00     0.215 C 
HETATM   25  N7  UNL     1      31.450  67.340   6.128  1.00  0.00    -0.065 NA
HETATM   26  N8  UNL     1      32.658  66.780   8.206  1.00  0.00    -0.065 NA
ATOM     27  H6  UNL     1      29.770  65.764   7.072  1.00  0.00     0.189 HD
ENDBRANCH  21  23
ENDBRANCH  16  20
ENDBRANCH   1  16
TORSDOF 8
ENDMDL
