MODEL 1
REMARK VINA RESULT: -7.212889545      0.000      0.000
REMARK  5 active torsions:
REMARK  status: ('A' for Active; 'I' for Inactive)
REMARK    1  A    between atoms: C4_5  and  N2_6 
REMARK    2  A    between atoms: C4_5  and  C6_11 
REMARK       I    between atoms: N2_6  and  C5_8 
REMARK       I    between atoms: C6_11  and  N4_13 
REMARK    3  A    between atoms: N4_13  and  C7_15 
REMARK    4  A    between atoms: C7_15  and  C8_16 
REMARK    5  A    between atoms: C8_16  and  N5_17 
ROOT
HETATM    1  C1  UNL     1      26.943  64.514  14.911  1.00  0.00     0.310 C 
HETATM    2  N1  UNL     1      26.703  63.878  13.657  1.00  0.00     0.087 N 
HETATM    3  C2  UNL     1      25.637  64.460  12.888  1.00  0.00     0.275 C 
HETATM    4  C3  UNL     1      25.874  63.993  11.472  1.00  0.00     0.073 C 
HETATM    5  C4  UNL     1      27.355  63.658  11.395  1.00  0.00     0.142 C 
HETATM    6  C10 UNL     1      27.839  63.736  12.813  1.00  0.00     0.312 C 
ENDROOT
BRANCH   5   7
HETATM    7  N2  UNL     1      27.550  62.372  10.804  1.00  0.00    -0.325 N 
HETATM    8  C5  UNL     1      26.757  61.880   9.722  1.00  0.00     0.329 C 
HETATM    9  N3  UNL     1      26.980  60.595   9.159  1.00  0.00    -0.040 NA
HETATM   10  O1  UNL     1      25.821  62.556   9.211  1.00  0.00    -0.251 OA
ATOM     11  H2  UNL     1      28.292  61.776  11.172  1.00  0.00     0.165 HD
ENDBRANCH   5   7
BRANCH   5  12
HETATM   12  C6  UNL     1      28.070  64.681  10.588  1.00  0.00     0.248 C 
HETATM   13  O2  UNL     1      27.529  65.123   9.552  1.00  0.00    -0.271 OA
HETATM   14  N4  UNL     1      29.344  65.176  10.948  1.00  0.00    -0.357 N 
ATOM     15  H4  UNL     1      29.778  64.811  11.796  1.00  0.00     0.162 HD
BRANCH  14  16
HETATM   16  C7  UNL     1      30.060  66.158  10.196  1.00  0.00     0.142 C 
BRANCH  16  17
HETATM   17  C8  UNL     1      31.076  65.614   9.251  1.00  0.00     0.141 C 
BRANCH  17  18
HETATM   18  N5  UNL     1      30.746  66.152   7.925  1.00  0.00    -0.365 N 
HETATM   19  C9  UNL     1      31.666  66.773   7.273  1.00  0.00     0.197 C 
HETATM   20  N6  UNL     1      31.372  67.297   5.999  1.00  0.00    -0.067 NA
HETATM   21  N7  UNL     1      32.972  66.948   7.799  1.00  0.00    -0.067 NA
ATOM     22  H5  UNL     1      29.813  66.036   7.530  1.00  0.00     0.161 HD
ENDBRANCH  17  18
ENDBRANCH  16  17
ENDBRANCH  14  16
ENDBRANCH   5  12
TORSDOF 5
ENDMDL
MODEL 2
REMARK VINA RESULT: -7.145978098      2.543      3.282
REMARK  5 active torsions:
REMARK  status: ('A' for Active; 'I' for Inactive)
REMARK    1  A    between atoms: C4_5  and  N2_6 
REMARK    2  A    between atoms: C4_5  and  C6_11 
REMARK       I    between atoms: N2_6  and  C5_8 
REMARK       I    between atoms: C6_11  and  N4_13 
REMARK    3  A    between atoms: N4_13  and  C7_15 
REMARK    4  A    between atoms: C7_15  and  C8_16 
REMARK    5  A    between atoms: C8_16  and  N5_17 
ROOT
HETATM    1  C1  UNL     1      27.100  69.159  11.600  1.00  0.00     0.310 C 
HETATM    2  N1  UNL     1      26.498  67.907  11.277  1.00  0.00     0.087 N 
HETATM    3  C2  UNL     1      25.273  68.008  10.532  1.00  0.00     0.275 C 
HETATM    4  C3  UNL     1      25.089  66.652   9.894  1.00  0.00     0.073 C 
HETATM    5  C4  UNL     1      26.477  66.039   9.827  1.00  0.00     0.142 C 
HETATM    6  C10 UNL     1      27.346  66.969  10.623  1.00  0.00     0.312 C 
ENDROOT
BRANCH   5   7
HETATM    7  N2  UNL     1      26.465  64.705  10.340  1.00  0.00    -0.325 N 
HETATM    8  C5  UNL     1      27.640  63.898  10.445  1.00  0.00     0.329 C 
HETATM    9  N3  UNL     1      27.590  62.575  10.959  1.00  0.00    -0.040 NA
HETATM   10  O1  UNL     1      28.777  64.313  10.088  1.00  0.00    -0.251 OA
ATOM     11  H2  UNL     1      25.576  64.310  10.645  1.00  0.00     0.165 HD
ENDBRANCH   5   7
BRANCH   5  12
HETATM   12  C6  UNL     1      26.961  66.018   8.422  1.00  0.00     0.248 C 
HETATM   13  O2  UNL     1      26.268  65.449   7.551  1.00  0.00    -0.271 OA
HETATM   14  N4  UNL     1      28.178  66.619   8.029  1.00  0.00    -0.357 N 
ATOM     15  H4  UNL     1      28.737  67.082   8.746  1.00  0.00     0.162 HD
BRANCH  14  16
HETATM   16  C7  UNL     1      28.674  66.617   6.689  1.00  0.00     0.142 C 
BRANCH  16  17
HETATM   17  C8  UNL     1      30.100  66.213   6.542  1.00  0.00     0.141 C 
BRANCH  17  18
HETATM   18  N5  UNL     1      30.581  65.875   7.888  1.00  0.00    -0.365 N 
HETATM   19  C9  UNL     1      31.733  66.318   8.252  1.00  0.00     0.197 C 
HETATM   20  N6  UNL     1      32.214  66.007   9.539  1.00  0.00    -0.067 NA
HETATM   21  N7  UNL     1      32.538  67.114   7.396  1.00  0.00    -0.067 NA
ATOM     22  H5  UNL     1      30.017  65.304   8.518  1.00  0.00     0.161 HD
ENDBRANCH  17  18
ENDBRANCH  16  17
ENDBRANCH  14  16
ENDBRANCH   5  12
TORSDOF 5
ENDMDL
MODEL 3
REMARK VINA RESULT: -7.144643791      1.379      1.579
REMARK  5 active torsions:
REMARK  status: ('A' for Active; 'I' for Inactive)
REMARK    1  A    between atoms: C4_5  and  N2_6 
REMARK    2  A    between atoms: C4_5  and  C6_11 
REMARK       I    between atoms: N2_6  and  C5_8 
REMARK       I    between atoms: C6_11  and  N4_13 
REMARK    3  A    between atoms: N4_13  and  C7_15 
REMARK    4  A    between atoms: C7_15  and  C8_16 
REMARK    5  A    between atoms: C8_16  and  N5_17 
ROOT
HETATM    1  C1  UNL     1      25.879  65.378  15.346  1.00  0.00     0.310 C 
HETATM    2  N1  UNL     1      25.764  64.888  14.011  1.00  0.00     0.087 N 
HETATM    3  C2  UNL     1      25.428  65.888  13.035  1.00  0.00     0.275 C 
HETATM    4  C3  UNL     1      25.836  65.295  11.708  1.00  0.00     0.073 C 
HETATM    5  C4  UNL     1      26.897  64.257  12.033  1.00  0.00     0.142 C 
HETATM    6  C10 UNL     1      26.883  64.150  13.530  1.00  0.00     0.312 C 
ENDROOT
BRANCH   5   7
HETATM    7  N2  UNL     1      26.609  63.020  11.379  1.00  0.00    -0.325 N 
HETATM    8  C5  UNL     1      26.337  62.920   9.980  1.00  0.00     0.329 C 
HETATM    9  N3  UNL     1      26.054  61.673   9.363  1.00  0.00    -0.040 NA
HETATM   10  O1  UNL     1      26.332  63.930   9.221  1.00  0.00    -0.251 OA
ATOM     11  H2  UNL     1      26.597  62.166  11.938  1.00  0.00     0.165 HD
ENDBRANCH   5   7
BRANCH   5  12
HETATM   12  C6  UNL     1      28.235  64.739  11.600  1.00  0.00     0.248 C 
HETATM   13  O2  UNL     1      29.255  64.257  12.137  1.00  0.00    -0.271 OA
HETATM   14  N4  UNL     1      28.399  65.724  10.600  1.00  0.00    -0.357 N 
ATOM     15  H4  UNL     1      27.560  66.111  10.167  1.00  0.00     0.162 HD
BRANCH  14  16
HETATM   16  C7  UNL     1      29.668  66.211  10.161  1.00  0.00     0.142 C 
BRANCH  16  17
HETATM   17  C8  UNL     1      30.352  65.368   9.140  1.00  0.00     0.141 C 
BRANCH  17  18
HETATM   18  N5  UNL     1      31.100  66.285   8.271  1.00  0.00    -0.365 N 
HETATM   19  C9  UNL     1      30.680  66.461   7.067  1.00  0.00     0.197 C 
HETATM   20  N6  UNL     1      31.381  67.337   6.215  1.00  0.00    -0.067 NA
HETATM   21  N7  UNL     1      29.528  65.799   6.568  1.00  0.00    -0.067 NA
ATOM     22  H5  UNL     1      31.930  66.770   8.611  1.00  0.00     0.161 HD
ENDBRANCH  17  18
ENDBRANCH  16  17
ENDBRANCH  14  16
ENDBRANCH   5  12
TORSDOF 5
ENDMDL
MODEL 4
REMARK VINA RESULT: -6.926921557      2.539      5.191
REMARK  5 active torsions:
REMARK  status: ('A' for Active; 'I' for Inactive)
REMARK    1  A    between atoms: C4_5  and  N2_6 
REMARK    2  A    between atoms: C4_5  and  C6_11 
REMARK       I    between atoms: N2_6  and  C5_8 
REMARK       I    between atoms: C6_11  and  N4_13 
REMARK    3  A    between atoms: N4_13  and  C7_15 
REMARK    4  A    between atoms: C7_15  and  C8_16 
REMARK    5  A    between atoms: C8_16  and  N5_17 
ROOT
HETATM    1  C1  UNL     1      27.314  64.202  14.231  1.00  0.00     0.310 C 
HETATM    2  N1  UNL     1      28.146  64.281  13.075  1.00  0.00     0.087 N 
HETATM    3  C2  UNL     1      27.798  63.362  12.026  1.00  0.00     0.275 C 
HETATM    4  C3  UNL     1      28.436  63.928  10.780  1.00  0.00     0.073 C 
HETATM    5  C4  UNL     1      28.619  65.412  11.053  1.00  0.00     0.142 C 
HETATM    6  C10 UNL     1      28.286  65.578  12.507  1.00  0.00     0.312 C 
ENDROOT
BRANCH   5   7
HETATM    7  N2  UNL     1      29.948  65.825  10.730  1.00  0.00    -0.325 N 
HETATM    8  C5  UNL     1      30.475  65.793   9.402  1.00  0.00     0.329 C 
HETATM    9  N3  UNL     1      31.803  66.210   9.118  1.00  0.00    -0.040 NA
HETATM   10  O1  UNL     1      29.795  65.393   8.417  1.00  0.00    -0.251 OA
ATOM     11  H2  UNL     1      30.549  66.158  11.483  1.00  0.00     0.165 HD
ENDBRANCH   5   7
BRANCH   5  12
HETATM   12  C6  UNL     1      27.652  66.204  10.247  1.00  0.00     0.248 C 
HETATM   13  O2  UNL     1      27.547  67.430  10.460  1.00  0.00    -0.271 OA
HETATM   14  N4  UNL     1      26.844  65.621   9.245  1.00  0.00    -0.357 N 
ATOM     15  H4  UNL     1      26.937  64.618   9.078  1.00  0.00     0.162 HD
BRANCH  14  16
HETATM   16  C7  UNL     1      25.904  66.350   8.453  1.00  0.00     0.142 C 
BRANCH  16  17
HETATM   17  C8  UNL     1      24.481  65.940   8.623  1.00  0.00     0.141 C 
BRANCH  17  18
HETATM   18  N5  UNL     1      24.318  64.678   7.889  1.00  0.00    -0.365 N 
HETATM   19  C9  UNL     1      24.314  63.580   8.560  1.00  0.00     0.197 C 
HETATM   20  N6  UNL     1      24.159  62.357   7.877  1.00  0.00    -0.067 NA
HETATM   21  N7  UNL     1      24.462  63.560   9.971  1.00  0.00    -0.067 NA
ATOM     22  H5  UNL     1      24.210  64.672   6.875  1.00  0.00     0.161 HD
ENDBRANCH  17  18
ENDBRANCH  16  17
ENDBRANCH  14  16
ENDBRANCH   5  12
TORSDOF 5
ENDMDL
MODEL 5
REMARK VINA RESULT: -6.800843325      1.477      1.761
REMARK  5 active torsions:
REMARK  status: ('A' for Active; 'I' for Inactive)
REMARK    1  A    between atoms: C4_5  and  N2_6 
REMARK    2  A    between atoms: C4_5  and  C6_11 
REMARK       I    between atoms: N2_6  and  C5_8 
REMARK       I    between atoms: C6_11  and  N4_13 
REMARK    3  A    between atoms: N4_13  and  C7_15 
REMARK    4  A    between atoms: C7_15  and  C8_16 
REMARK    5  A    between atoms: C8_16  and  N5_17 
ROOT
HETATM    1  C1  UNL     1      25.591  65.491  14.144  1.00  0.00     0.310 C 
HETATM    2  N1  UNL     1      25.225  65.084  12.826  1.00  0.00     0.087 N 
HETATM    3  C2  UNL     1      24.567  66.099  12.049  1.00  0.00     0.275 C 
HETATM    4  C3  UNL     1      24.721  65.655  10.614  1.00  0.00     0.073 C 
HETATM    5  C4  UNL     1      25.933  64.739  10.596  1.00  0.00     0.142 C 
HETATM    6  C10 UNL     1      26.275  64.529  12.043  1.00  0.00     0.312 C 
ENDROOT
BRANCH   5   7
HETATM    7  N2  UNL     1      25.636  63.523   9.906  1.00  0.00    -0.325 N 
HETATM    8  C5  UNL     1      26.534  62.412   9.860  1.00  0.00     0.329 C 
HETATM    9  N3  UNL     1      26.206  61.219   9.163  1.00  0.00    -0.040 NA
HETATM   10  O1  UNL     1      27.660  62.431  10.431  1.00  0.00    -0.251 OA
ATOM     11  H2  UNL     1      24.741  63.445   9.423  1.00  0.00     0.165 HD
ENDBRANCH   5   7
BRANCH   5  12
HETATM   12  C6  UNL     1      27.075  65.414   9.927  1.00  0.00     0.248 C 
HETATM   13  O2  UNL     1      26.932  65.834   8.759  1.00  0.00    -0.271 OA
HETATM   14  N4  UNL     1      28.324  65.602  10.563  1.00  0.00    -0.357 N 
ATOM     15  H4  UNL     1      28.432  65.257  11.517  1.00  0.00     0.162 HD
BRANCH  14  16
HETATM   16  C7  UNL     1      29.443  66.245   9.950  1.00  0.00     0.142 C 
BRANCH  16  17
HETATM   17  C8  UNL     1      30.299  65.362   9.110  1.00  0.00     0.141 C 
BRANCH  17  18
HETATM   18  N5  UNL     1      31.077  66.245   8.231  1.00  0.00    -0.365 N 
HETATM   19  C9  UNL     1      30.684  66.393   7.014  1.00  0.00     0.197 C 
HETATM   20  N6  UNL     1      31.414  67.235   6.153  1.00  0.00    -0.067 NA
HETATM   21  N7  UNL     1      29.533  65.733   6.510  1.00  0.00    -0.067 NA
ATOM     22  H5  UNL     1      31.907  66.728   8.575  1.00  0.00     0.161 HD
ENDBRANCH  17  18
ENDBRANCH  16  17
ENDBRANCH  14  16
ENDBRANCH   5  12
TORSDOF 5
ENDMDL
