MODEL 1
REMARK VINA RESULT: -5.947616548      0.000      0.000
REMARK  7 active torsions:
REMARK  status: ('A' for Active; 'I' for Inactive)
REMARK    1  A    between atoms: C2_2  and  S1_3 
REMARK    2  A    between atoms: S1_3  and  N1_6 
REMARK    3  A    between atoms: N1_6  and  C3_8 
REMARK    4  A    between atoms: C3_8  and  C4_9 
REMARK    5  A    between atoms: C4_9  and  N2_10 
REMARK       I    between atoms: N2_10  and  C5_12 
REMARK       I    between atoms: C5_12  and  N3_14 
REMARK    6  A    between atoms: N3_14  and  N4_15 
REMARK    7  A    between atoms: N4_15  and  C6_17 
ROOT
HETATM    1  N2  UNL     1      26.147  66.827   8.875  1.00  0.00    -0.308 N 
ATOM      2  H2  UNL     1      26.783  67.595   9.091  1.00  0.00     0.170 HD
HETATM    3  C5  UNL     1      26.524  65.989   7.740  1.00  0.00     0.416 C 
HETATM    4  O3  UNL     1      25.770  65.020   7.448  1.00  0.00    -0.228 OA
HETATM    5  N3  UNL     1      27.680  66.411   7.124  1.00  0.00    -0.263 NA
ENDROOT
BRANCH   1   6
HETATM    6  C4  UNL     1      25.044  66.712   9.691  1.00  0.00     0.087 C 
BRANCH   6   7
HETATM    7  C3  UNL     1      25.236  65.944  10.976  1.00  0.00     0.176 C 
BRANCH   7   8
HETATM    8  N1  UNL     1      25.010  64.553  10.543  1.00  0.00    -0.315 N 
ATOM      9  H1  UNL     1      24.110  64.210  10.208  1.00  0.00     0.172 HD
BRANCH   8  10
HETATM   10  S1  UNL     1      26.385  63.585  10.655  1.00  0.00     0.226 S 
HETATM   11  O1  UNL     1      27.674  64.236  10.260  1.00  0.00    -0.206 OA
HETATM   12  O2  UNL     1      26.487  63.099  12.089  1.00  0.00    -0.206 OA
BRANCH  10  13
HETATM   13  C2  UNL     1      26.107  62.102   9.680  1.00  0.00     0.158 C 
HETATM   14  C1  UNL     1      24.636  62.199   9.206  1.00  0.00     0.023 C 
ENDBRANCH  10  13
ENDBRANCH   8  10
ENDBRANCH   7   8
ENDBRANCH   6   7
ENDBRANCH   1   6
BRANCH   5  15
HETATM   15  N4  UNL     1      28.768  66.806   6.544  1.00  0.00    -0.206 N 
ATOM     16  H4  UNL     1      28.637  67.216   5.620  1.00  0.00     0.204 HD
BRANCH  15  17
HETATM   17  C6  UNL     1      30.109  66.761   6.988  1.00  0.00     0.210 C 
HETATM   18  N5  UNL     1      31.178  67.198   6.204  1.00  0.00    -0.068 NA
HETATM   19  S2  UNL     1      30.441  66.149   8.482  1.00  0.00    -0.042 SA
ENDBRANCH  15  17
ENDBRANCH   5  15
TORSDOF 7
ENDMDL
MODEL 2
REMARK VINA RESULT: -5.903530872      1.485      1.705
REMARK  7 active torsions:
REMARK  status: ('A' for Active; 'I' for Inactive)
REMARK    1  A    between atoms: C2_2  and  S1_3 
REMARK    2  A    between atoms: S1_3  and  N1_6 
REMARK    3  A    between atoms: N1_6  and  C3_8 
REMARK    4  A    between atoms: C3_8  and  C4_9 
REMARK    5  A    between atoms: C4_9  and  N2_10 
REMARK       I    between atoms: N2_10  and  C5_12 
REMARK       I    between atoms: C5_12  and  N3_14 
REMARK    6  A    between atoms: N3_14  and  N4_15 
REMARK    7  A    between atoms: N4_15  and  C6_17 
ROOT
HETATM    1  N2  UNL     1      25.628  66.879   8.673  1.00  0.00    -0.308 N 
ATOM      2  H2  UNL     1      26.108  67.776   8.749  1.00  0.00     0.170 HD
HETATM    3  C5  UNL     1      26.283  65.875   7.838  1.00  0.00     0.416 C 
HETATM    4  O3  UNL     1      25.728  64.748   7.729  1.00  0.00    -0.228 OA
HETATM    5  N3  UNL     1      27.444  66.336   7.259  1.00  0.00    -0.263 NA
ENDROOT
BRANCH   1   6
HETATM    6  C4  UNL     1      24.447  66.769   9.371  1.00  0.00     0.087 C 
BRANCH   6   7
HETATM    7  C3  UNL     1      24.527  66.118  10.729  1.00  0.00     0.176 C 
BRANCH   7   8
HETATM    8  N1  UNL     1      24.099  64.737  10.438  1.00  0.00    -0.315 N 
ATOM      9  H1  UNL     1      23.292  64.512   9.857  1.00  0.00     0.172 HD
BRANCH   8  10
HETATM   10  S1  UNL     1      25.076  63.568  11.158  1.00  0.00     0.226 S 
HETATM   11  O1  UNL     1      24.609  63.055  12.485  1.00  0.00    -0.206 OA
HETATM   12  O2  UNL     1      25.197  62.409  10.187  1.00  0.00    -0.206 OA
BRANCH  10  13
HETATM   13  C2  UNL     1      26.739  64.235  11.295  1.00  0.00     0.158 C 
HETATM   14  C1  UNL     1      27.670  63.108  10.787  1.00  0.00     0.023 C 
ENDBRANCH  10  13
ENDBRANCH   8  10
ENDBRANCH   7   8
ENDBRANCH   6   7
ENDBRANCH   1   6
BRANCH   5  15
HETATM   15  N4  UNL     1      28.536  66.767   6.714  1.00  0.00    -0.206 N 
ATOM     16  H4  UNL     1      28.414  67.215   5.806  1.00  0.00     0.204 HD
BRANCH  15  17
HETATM   17  C6  UNL     1      29.871  66.716   7.177  1.00  0.00     0.210 C 
HETATM   18  N5  UNL     1      30.952  67.147   6.407  1.00  0.00    -0.068 NA
HETATM   19  S2  UNL     1      30.179  66.104   8.676  1.00  0.00    -0.042 SA
ENDBRANCH  15  17
ENDBRANCH   5  15
TORSDOF 7
ENDMDL
MODEL 3
REMARK VINA RESULT: -5.843212687      1.563      1.999
REMARK  7 active torsions:
REMARK  status: ('A' for Active; 'I' for Inactive)
REMARK    1  A    between atoms: C2_2  and  S1_3 
REMARK    2  A    between atoms: S1_3  and  N1_6 
REMARK    3  A    between atoms: N1_6  and  C3_8 
REMARK    4  A    between atoms: C3_8  and  C4_9 
REMARK    5  A    between atoms: C4_9  and  N2_10 
REMARK       I    between atoms: N2_10  and  C5_12 
REMARK       I    between atoms: C5_12  and  N3_14 
REMARK    6  A    between atoms: N3_14  and  N4_15 
REMARK    7  A    between atoms: N4_15  and  C6_17 
ROOT
HETATM    1  N2  UNL     1      26.406  66.616   9.119  1.00  0.00    -0.308 N 
ATOM      2  H2  UNL     1      27.082  67.334   9.382  1.00  0.00     0.170 HD
HETATM    3  C5  UNL     1      26.661  65.935   7.853  1.00  0.00     0.416 C 
HETATM    4  O3  UNL     1      25.857  65.031   7.498  1.00  0.00    -0.228 OA
HETATM    5  N3  UNL     1      27.776  66.415   7.203  1.00  0.00    -0.263 NA
ENDROOT
BRANCH   1   6
HETATM    6  C4  UNL     1      25.372  66.412  10.005  1.00  0.00     0.087 C 
BRANCH   6   7
HETATM    7  C3  UNL     1      25.676  65.553  11.207  1.00  0.00     0.176 C 
BRANCH   7   8
HETATM    8  N1  UNL     1      25.735  64.202  10.617  1.00  0.00    -0.315 N 
ATOM      9  H1  UNL     1      24.964  63.785  10.096  1.00  0.00     0.172 HD
BRANCH   8  10
HETATM   10  S1  UNL     1      27.201  63.417  10.889  1.00  0.00     0.226 S 
HETATM   11  O1  UNL     1      27.265  61.986  10.453  1.00  0.00    -0.206 OA
HETATM   12  O2  UNL     1      28.283  64.207  10.178  1.00  0.00    -0.206 OA
BRANCH  10  13
HETATM   13  C2  UNL     1      27.595  63.557  12.636  1.00  0.00     0.158 C 
HETATM   14  C1  UNL     1      28.894  64.398  12.692  1.00  0.00     0.023 C 
ENDBRANCH  10  13
ENDBRANCH   8  10
ENDBRANCH   7   8
ENDBRANCH   6   7
ENDBRANCH   1   6
BRANCH   5  15
HETATM   15  N4  UNL     1      28.824  66.865   6.590  1.00  0.00    -0.206 N 
ATOM     16  H4  UNL     1      28.635  67.331   5.703  1.00  0.00     0.204 HD
BRANCH  15  17
HETATM   17  C6  UNL     1      30.188  66.814   6.955  1.00  0.00     0.210 C 
HETATM   18  N5  UNL     1      31.213  67.219   6.098  1.00  0.00    -0.068 NA
HETATM   19  S2  UNL     1      30.602  66.234   8.442  1.00  0.00    -0.042 SA
ENDBRANCH  15  17
ENDBRANCH   5  15
TORSDOF 7
ENDMDL
MODEL 4
REMARK VINA RESULT: -5.649431522      2.368      3.630
REMARK  7 active torsions:
REMARK  status: ('A' for Active; 'I' for Inactive)
REMARK    1  A    between atoms: C2_2  and  S1_3 
REMARK    2  A    between atoms: S1_3  and  N1_6 
REMARK    3  A    between atoms: N1_6  and  C3_8 
REMARK    4  A    between atoms: C3_8  and  C4_9 
REMARK    5  A    between atoms: C4_9  and  N2_10 
REMARK       I    between atoms: N2_10  and  C5_12 
REMARK       I    between atoms: C5_12  and  N3_14 
REMARK    6  A    between atoms: N3_14  and  N4_15 
REMARK    7  A    between atoms: N4_15  and  C6_17 
ROOT
HETATM    1  N2  UNL     1      27.544  63.889  10.426  1.00  0.00    -0.308 N 
ATOM      2  H2  UNL     1      27.770  63.294   9.628  1.00  0.00     0.170 HD
HETATM    3  C5  UNL     1      28.479  64.977  10.693  1.00  0.00     0.416 C 
HETATM    4  O3  UNL     1      28.228  65.744  11.663  1.00  0.00    -0.228 OA
HETATM    5  N3  UNL     1      29.545  64.993   9.823  1.00  0.00    -0.263 NA
ENDROOT
BRANCH   1   6
HETATM    6  C4  UNL     1      26.395  63.562  11.111  1.00  0.00     0.087 C 
BRANCH   6   7
HETATM    7  C3  UNL     1      25.237  63.063  10.283  1.00  0.00     0.176 C 
BRANCH   7   8
HETATM    8  N1  UNL     1      24.361  64.248  10.228  1.00  0.00    -0.315 N 
ATOM      9  H1  UNL     1      23.807  64.571  11.021  1.00  0.00     0.172 HD
BRANCH   8  10
HETATM   10  S1  UNL     1      24.365  65.015   8.728  1.00  0.00     0.226 S 
HETATM   11  O1  UNL     1      24.733  64.156   7.558  1.00  0.00    -0.206 OA
HETATM   12  O2  UNL     1      22.982  65.598   8.507  1.00  0.00    -0.206 OA
BRANCH  10  13
HETATM   13  C2  UNL     1      25.458  66.437   8.830  1.00  0.00     0.158 C 
HETATM   14  C1  UNL     1      26.527  66.206   7.733  1.00  0.00     0.023 C 
ENDBRANCH  10  13
ENDBRANCH   8  10
ENDBRANCH   7   8
ENDBRANCH   6   7
ENDBRANCH   1   6
BRANCH   5  15
HETATM   15  N4  UNL     1      30.549  65.008   9.005  1.00  0.00    -0.206 N 
ATOM     16  H4  UNL     1      31.021  64.112   8.888  1.00  0.00     0.204 HD
BRANCH  15  17
HETATM   17  C6  UNL     1      31.094  66.070   8.248  1.00  0.00     0.210 C 
HETATM   18  N5  UNL     1      32.344  66.627   8.522  1.00  0.00    -0.068 NA
HETATM   19  S2  UNL     1      30.220  66.698   7.000  1.00  0.00    -0.042 SA
ENDBRANCH  15  17
ENDBRANCH   5  15
TORSDOF 7
ENDMDL
MODEL 5
REMARK VINA RESULT: -5.645742822      2.271      3.463
REMARK  7 active torsions:
REMARK  status: ('A' for Active; 'I' for Inactive)
REMARK    1  A    between atoms: C2_2  and  S1_3 
REMARK    2  A    between atoms: S1_3  and  N1_6 
REMARK    3  A    between atoms: N1_6  and  C3_8 
REMARK    4  A    between atoms: C3_8  and  C4_9 
REMARK    5  A    between atoms: C4_9  and  N2_10 
REMARK       I    between atoms: N2_10  and  C5_12 
REMARK       I    between atoms: C5_12  and  N3_14 
REMARK    6  A    between atoms: N3_14  and  N4_15 
REMARK    7  A    between atoms: N4_15  and  C6_17 
ROOT
HETATM    1  N2  UNL     1      27.108  64.694  11.508  1.00  0.00    -0.308 N 
ATOM      2  H2  UNL     1      27.609  65.488  11.908  1.00  0.00     0.170 HD
HETATM    3  C5  UNL     1      27.808  63.967  10.453  1.00  0.00     0.416 C 
HETATM    4  O3  UNL     1      27.227  62.970   9.941  1.00  0.00    -0.228 OA
HETATM    5  N3  UNL     1      29.035  64.510  10.152  1.00  0.00    -0.263 NA
ENDROOT
BRANCH   1   6
HETATM    6  C4  UNL     1      25.859  64.446  12.032  1.00  0.00     0.087 C 
BRANCH   6   7
HETATM    7  C3  UNL     1      24.706  65.183  11.397  1.00  0.00     0.176 C 
BRANCH   7   8
HETATM    8  N1  UNL     1      24.304  64.260  10.318  1.00  0.00    -0.315 N 
ATOM      9  H1  UNL     1      24.030  63.292  10.483  1.00  0.00     0.172 HD
BRANCH   8  10
HETATM   10  S1  UNL     1      24.343  64.964   8.788  1.00  0.00     0.226 S 
HETATM   11  O1  UNL     1      24.767  64.067   7.667  1.00  0.00    -0.206 OA
HETATM   12  O2  UNL     1      22.957  65.508   8.498  1.00  0.00    -0.206 OA
BRANCH  10  13
HETATM   13  C2  UNL     1      25.403  66.413   8.865  1.00  0.00     0.158 C 
HETATM   14  C1  UNL     1      26.471  66.193   7.766  1.00  0.00     0.023 C 
ENDBRANCH  10  13
ENDBRANCH   8  10
ENDBRANCH   7   8
ENDBRANCH   6   7
ENDBRANCH   1   6
BRANCH   5  15
HETATM   15  N4  UNL     1      30.191  65.020   9.868  1.00  0.00    -0.206 N 
ATOM     16  H4  UNL     1      30.890  64.937  10.606  1.00  0.00     0.204 HD
BRANCH  15  17
HETATM   17  C6  UNL     1      30.639  65.674   8.698  1.00  0.00     0.210 C 
HETATM   18  N5  UNL     1      29.903  65.686   7.512  1.00  0.00    -0.068 NA
HETATM   19  S2  UNL     1      32.099  66.440   8.714  1.00  0.00    -0.042 SA
ENDBRANCH  15  17
ENDBRANCH   5  15
TORSDOF 7
ENDMDL
