MODEL 1
REMARK VINA RESULT: -7.519561379      0.000      0.000
REMARK  9 active torsions:
REMARK  status: ('A' for Active; 'I' for Inactive)
REMARK    1  A    between atoms: N1_1  and  C1_4 
REMARK    2  A    between atoms: C1_4  and  N2_5 
REMARK    3  A    between atoms: N2_5  and  C2_7 
REMARK    4  A    between atoms: C2_7  and  C6_17 
REMARK    5  A    between atoms: N3_8  and  C3_10 
REMARK    6  A    between atoms: C3_10  and  C4_11 
REMARK    7  A    between atoms: C3_10  and  C5_14 
REMARK    8  A    between atoms: C6_17  and  O4_18 
REMARK    9  A    between atoms: C6_17  and  C7_20 
ROOT
HETATM    1  C2  UNL     1      28.279  65.721  10.401  1.00  0.00     0.112 C 
HETATM    2  N3  UNL     1      26.923  65.656  10.425  1.00  0.00    -0.334 N 
ATOM      3  H3  UNL     1      26.524  66.593  10.501  1.00  0.00     0.167 HD
ENDROOT
BRANCH   1   4
HETATM    4  N2  UNL     1      28.834  66.192  11.496  1.00  0.00    -0.340 N 
ATOM      5  H2  UNL     1      29.192  67.147  11.478  1.00  0.00     0.168 HD
BRANCH   4   6
HETATM    6  C1  UNL     1      28.966  65.452  12.704  1.00  0.00     0.174 C 
BRANCH   6   7
HETATM    7  N1  UNL     1      29.576  64.363  12.691  1.00  0.00    -0.395 N 
ATOM      8  H12 UNL     1      29.609  63.819  11.829  1.00  0.00     0.156 HD
ATOM      9  H11 UNL     1      30.031  64.035  13.542  1.00  0.00     0.156 HD
ENDBRANCH   6   7
ENDBRANCH   4   6
ENDBRANCH   1   4
BRANCH   1  10
HETATM   10  C6  UNL     1      29.107  65.409   9.233  1.00  0.00     0.189 C 
BRANCH  10  11
HETATM   11  O4  UNL     1      29.965  64.332   9.391  1.00  0.00    -0.388 OA
ATOM     12  H4  UNL     1      30.620  64.233   8.710  1.00  0.00     0.210 HD
ENDBRANCH  10  11
BRANCH  10  13
HETATM   13  C7  UNL     1      30.088  66.513   8.796  1.00  0.00     0.022 C 
HETATM   14  C8  UNL     1      29.949  67.026   7.450  1.00  0.00     0.007 C 
HETATM   15  C9  UNL     1      31.010  66.589   6.453  1.00  0.00     0.000 C 
HETATM   16  C10 UNL     1      32.407  66.865   6.893  1.00  0.00     0.000 C 
HETATM   17  C11 UNL     1      32.549  66.764   8.398  1.00  0.00     0.000 C 
HETATM   18  C12 UNL     1      31.476  65.854   8.920  1.00  0.00     0.007 C 
ENDBRANCH  10  13
ENDBRANCH   1  10
BRANCH   2  19
HETATM   19  C3  UNL     1      25.890  64.683  10.376  1.00  0.00     0.176 C 
BRANCH  19  20
HETATM   20  C4  UNL     1      26.107  63.415  11.024  1.00  0.00     0.288 C 
HETATM   21  N4  UNL     1      26.932  62.398  10.435  1.00  0.00    -0.056 NA
HETATM   22  O1  UNL     1      25.615  63.111  12.177  1.00  0.00    -0.269 OA
ENDBRANCH  19  20
BRANCH  19  23
HETATM   23  C5  UNL     1      25.133  64.574   9.138  1.00  0.00     0.232 C 
HETATM   24  O2  UNL     1      23.889  64.374   9.141  1.00  0.00    -0.643 OA
HETATM   25  O3  UNL     1      25.755  64.675   7.880  1.00  0.00    -0.643 OA
ENDBRANCH  19  23
ENDBRANCH   2  19
TORSDOF 9
ENDMDL
MODEL 2
REMARK VINA RESULT: -7.372968611      1.376      1.890
REMARK  9 active torsions:
REMARK  status: ('A' for Active; 'I' for Inactive)
REMARK    1  A    between atoms: N1_1  and  C1_4 
REMARK    2  A    between atoms: C1_4  and  N2_5 
REMARK    3  A    between atoms: N2_5  and  C2_7 
REMARK    4  A    between atoms: C2_7  and  C6_17 
REMARK    5  A    between atoms: N3_8  and  C3_10 
REMARK    6  A    between atoms: C3_10  and  C4_11 
REMARK    7  A    between atoms: C3_10  and  C5_14 
REMARK    8  A    between atoms: C6_17  and  O4_18 
REMARK    9  A    between atoms: C6_17  and  C7_20 
ROOT
HETATM    1  C2  UNL     1      28.454  65.215  11.185  1.00  0.00     0.112 C 
HETATM    2  N3  UNL     1      27.105  65.065  11.139  1.00  0.00    -0.334 N 
ATOM      3  H3  UNL     1      26.684  65.370  12.017  1.00  0.00     0.167 HD
ENDROOT
BRANCH   1   4
HETATM    4  N2  UNL     1      29.067  64.473  12.082  1.00  0.00    -0.340 N 
ATOM      5  H2  UNL     1      30.074  64.339  11.984  1.00  0.00     0.168 HD
BRANCH   4   6
HETATM    6  C1  UNL     1      28.414  63.847  13.179  1.00  0.00     0.174 C 
BRANCH   6   7
HETATM    7  N1  UNL     1      28.275  62.607  13.180  1.00  0.00    -0.395 N 
ATOM      8  H12 UNL     1      27.526  62.188  13.732  1.00  0.00     0.156 HD
ATOM      9  H11 UNL     1      28.912  62.032  12.630  1.00  0.00     0.156 HD
ENDBRANCH   6   7
ENDBRANCH   4   6
ENDBRANCH   1   4
BRANCH   1  10
HETATM   10  C6  UNL     1      29.211  66.193  10.400  1.00  0.00     0.189 C 
BRANCH  10  11
HETATM   11  O4  UNL     1      28.468  67.252   9.904  1.00  0.00    -0.388 OA
ATOM     12  H4  UNL     1      28.296  67.951  10.524  1.00  0.00     0.210 HD
ENDBRANCH  10  11
BRANCH  10  13
HETATM   13  C7  UNL     1      29.864  65.654   9.112  1.00  0.00     0.022 C 
HETATM   14  C8  UNL     1      31.309  65.687   9.039  1.00  0.00     0.007 C 
HETATM   15  C9  UNL     1      31.910  66.746   8.129  1.00  0.00     0.000 C 
HETATM   16  C10 UNL     1      31.394  66.708   6.732  1.00  0.00     0.000 C 
HETATM   17  C11 UNL     1      29.950  66.252   6.681  1.00  0.00     0.000 C 
HETATM   18  C12 UNL     1      29.304  66.562   7.999  1.00  0.00     0.007 C 
ENDBRANCH  10  13
ENDBRANCH   1  10
BRANCH   2  19
HETATM   19  C3  UNL     1      26.102  64.614  10.242  1.00  0.00     0.176 C 
BRANCH  19  20
HETATM   20  C4  UNL     1      25.906  63.195  10.085  1.00  0.00     0.288 C 
HETATM   21  N4  UNL     1      26.991  62.263  10.217  1.00  0.00    -0.056 NA
HETATM   22  O1  UNL     1      24.758  62.657   9.851  1.00  0.00    -0.269 OA
ENDBRANCH  19  20
BRANCH  19  23
HETATM   23  C5  UNL     1      25.930  65.358   9.003  1.00  0.00     0.232 C 
HETATM   24  O2  UNL     1      25.781  66.609   9.001  1.00  0.00    -0.643 OA
HETATM   25  O3  UNL     1      25.911  64.716   7.751  1.00  0.00    -0.643 OA
ENDBRANCH  19  23
ENDBRANCH   2  19
TORSDOF 9
ENDMDL
MODEL 3
REMARK VINA RESULT: -7.328175692      1.404      2.476
REMARK  9 active torsions:
REMARK  status: ('A' for Active; 'I' for Inactive)
REMARK    1  A    between atoms: N1_1  and  C1_4 
REMARK    2  A    between atoms: C1_4  and  N2_5 
REMARK    3  A    between atoms: N2_5  and  C2_7 
REMARK    4  A    between atoms: C2_7  and  C6_17 
REMARK    5  A    between atoms: N3_8  and  C3_10 
REMARK    6  A    between atoms: C3_10  and  C4_11 
REMARK    7  A    between atoms: C3_10  and  C5_14 
REMARK    8  A    between atoms: C6_17  and  O4_18 
REMARK    9  A    between atoms: C6_17  and  C7_20 
ROOT
HETATM    1  C2  UNL     1      28.865  65.213  11.108  1.00  0.00     0.112 C 
HETATM    2  N3  UNL     1      27.561  64.915  10.874  1.00  0.00    -0.334 N 
ATOM      3  H3  UNL     1      26.979  65.230  11.650  1.00  0.00     0.167 HD
ENDROOT
BRANCH   1   4
HETATM    4  N2  UNL     1      29.398  64.605  12.145  1.00  0.00    -0.340 N 
ATOM      5  H2  UNL     1      30.415  64.535  12.187  1.00  0.00     0.168 HD
BRANCH   4   6
HETATM    6  C1  UNL     1      28.646  64.038  13.210  1.00  0.00     0.174 C 
BRANCH   6   7
HETATM    7  N1  UNL     1      28.313  62.837  13.153  1.00  0.00    -0.395 N 
ATOM      8  H12 UNL     1      27.348  62.596  12.933  1.00  0.00     0.156 HD
ATOM      9  H11 UNL     1      29.013  62.116  13.329  1.00  0.00     0.156 HD
ENDBRANCH   6   7
ENDBRANCH   4   6
ENDBRANCH   1   4
BRANCH   1  10
HETATM   10  C6  UNL     1      29.637  66.213  10.365  1.00  0.00     0.189 C 
BRANCH  10  11
HETATM   11  O4  UNL     1      28.897  67.265   9.850  1.00  0.00    -0.388 OA
ATOM     12  H4  UNL     1      28.253  67.635  10.443  1.00  0.00     0.210 HD
ENDBRANCH  10  11
BRANCH  10  13
HETATM   13  C7  UNL     1      30.352  65.700   9.101  1.00  0.00     0.022 C 
HETATM   14  C8  UNL     1      31.798  65.743   9.095  1.00  0.00     0.007 C 
HETATM   15  C9  UNL     1      32.432  66.821   8.231  1.00  0.00     0.000 C 
HETATM   16  C10 UNL     1      31.982  66.804   6.810  1.00  0.00     0.000 C 
HETATM   17  C11 UNL     1      30.545  66.339   6.686  1.00  0.00     0.000 C 
HETATM   18  C12 UNL     1      29.837  66.622   7.978  1.00  0.00     0.007 C 
ENDBRANCH  10  13
ENDBRANCH   1  10
BRANCH   2  19
HETATM   19  C3  UNL     1      26.760  64.297   9.877  1.00  0.00     0.176 C 
BRANCH  19  20
HETATM   20  C4  UNL     1      26.042  65.136   8.952  1.00  0.00     0.288 C 
HETATM   21  N4  UNL     1      25.762  66.514   9.243  1.00  0.00    -0.056 NA
HETATM   22  O1  UNL     1      25.632  64.734   7.797  1.00  0.00    -0.269 OA
ENDBRANCH  19  20
BRANCH  19  23
HETATM   23  C5  UNL     1      26.024  63.101  10.259  1.00  0.00     0.232 C 
HETATM   24  O2  UNL     1      25.510  62.980  11.403  1.00  0.00    -0.643 OA
HETATM   25  O3  UNL     1      25.861  62.020   9.373  1.00  0.00    -0.643 OA
ENDBRANCH  19  23
ENDBRANCH   2  19
TORSDOF 9
ENDMDL
MODEL 4
REMARK VINA RESULT: -7.275145761      1.092      1.154
REMARK  9 active torsions:
REMARK  status: ('A' for Active; 'I' for Inactive)
REMARK    1  A    between atoms: N1_1  and  C1_4 
REMARK    2  A    between atoms: C1_4  and  N2_5 
REMARK    3  A    between atoms: N2_5  and  C2_7 
REMARK    4  A    between atoms: C2_7  and  C6_17 
REMARK    5  A    between atoms: N3_8  and  C3_10 
REMARK    6  A    between atoms: C3_10  and  C4_11 
REMARK    7  A    between atoms: C3_10  and  C5_14 
REMARK    8  A    between atoms: C6_17  and  O4_18 
REMARK    9  A    between atoms: C6_17  and  C7_20 
ROOT
HETATM    1  C2  UNL     1      28.215  65.677  10.533  1.00  0.00     0.112 C 
HETATM    2  N3  UNL     1      26.866  65.541  10.611  1.00  0.00    -0.334 N 
ATOM      3  H3  UNL     1      26.420  66.456  10.675  1.00  0.00     0.167 HD
ENDROOT
BRANCH   1   4
HETATM    4  N2  UNL     1      28.783  66.211  11.593  1.00  0.00    -0.340 N 
ATOM      5  H2  UNL     1      29.041  67.197  11.551  1.00  0.00     0.168 HD
BRANCH   4   6
HETATM    6  C1  UNL     1      29.059  65.499  12.793  1.00  0.00     0.174 C 
BRANCH   6   7
HETATM    7  N1  UNL     1      29.564  64.360  12.725  1.00  0.00    -0.395 N 
ATOM      8  H12 UNL     1      30.417  64.222  12.184  1.00  0.00     0.156 HD
ATOM      9  H11 UNL     1      29.115  63.585  13.213  1.00  0.00     0.156 HD
ENDBRANCH   6   7
ENDBRANCH   4   6
ENDBRANCH   1   4
BRANCH   1  10
HETATM   10  C6  UNL     1      29.016  65.374   9.345  1.00  0.00     0.189 C 
BRANCH  10  11
HETATM   11  O4  UNL     1      29.880  64.298   9.476  1.00  0.00    -0.388 OA
ATOM     12  H4  UNL     1      30.084  63.843   8.667  1.00  0.00     0.210 HD
ENDBRANCH  10  11
BRANCH  10  13
HETATM   13  C7  UNL     1      29.984  66.483   8.891  1.00  0.00     0.022 C 
HETATM   14  C8  UNL     1      29.816  67.000   7.550  1.00  0.00     0.007 C 
HETATM   15  C9  UNL     1      30.859  66.568   6.531  1.00  0.00     0.000 C 
HETATM   16  C10 UNL     1      32.263  66.850   6.944  1.00  0.00     0.000 C 
HETATM   17  C11 UNL     1      32.435  66.745   8.446  1.00  0.00     0.000 C 
HETATM   18  C12 UNL     1      31.376  65.829   8.986  1.00  0.00     0.007 C 
ENDBRANCH  10  13
ENDBRANCH   1  10
BRANCH   2  19
HETATM   19  C3  UNL     1      25.887  64.512  10.630  1.00  0.00     0.176 C 
BRANCH  19  20
HETATM   20  C4  UNL     1      25.699  63.762  11.846  1.00  0.00     0.288 C 
HETATM   21  N4  UNL     1      24.391  63.512  12.384  1.00  0.00    -0.056 NA
HETATM   22  O1  UNL     1      26.668  63.236  12.515  1.00  0.00    -0.269 OA
ENDBRANCH  19  20
BRANCH  19  23
HETATM   23  C5  UNL     1      25.744  63.704   9.428  1.00  0.00     0.232 C 
HETATM   24  O2  UNL     1      25.483  64.225   8.311  1.00  0.00    -0.643 OA
HETATM   25  O3  UNL     1      25.878  62.304   9.458  1.00  0.00    -0.643 OA
ENDBRANCH  19  23
ENDBRANCH   2  19
TORSDOF 9
ENDMDL
MODEL 5
REMARK VINA RESULT: -6.977808575      1.171      1.726
REMARK  9 active torsions:
REMARK  status: ('A' for Active; 'I' for Inactive)
REMARK    1  A    between atoms: N1_1  and  C1_4 
REMARK    2  A    between atoms: C1_4  and  N2_5 
REMARK    3  A    between atoms: N2_5  and  C2_7 
REMARK    4  A    between atoms: C2_7  and  C6_17 
REMARK    5  A    between atoms: N3_8  and  C3_10 
REMARK    6  A    between atoms: C3_10  and  C4_11 
REMARK    7  A    between atoms: C3_10  and  C5_14 
REMARK    8  A    between atoms: C6_17  and  O4_18 
REMARK    9  A    between atoms: C6_17  and  C7_20 
ROOT
HETATM    1  C2  UNL     1      28.367  65.710  10.262  1.00  0.00     0.112 C 
HETATM    2  N3  UNL     1      27.138  65.254  10.613  1.00  0.00    -0.334 N 
ATOM      3  H3  UNL     1      26.755  65.816  11.374  1.00  0.00     0.167 HD
ENDROOT
BRANCH   1   4
HETATM    4  N2  UNL     1      29.287  65.610  11.197  1.00  0.00    -0.340 N 
ATOM      5  H2  UNL     1      30.257  65.791  10.935  1.00  0.00     0.168 HD
BRANCH   4   6
HETATM    6  C1  UNL     1      29.014  65.266  12.550  1.00  0.00     0.174 C 
BRANCH   6   7
HETATM    7  N1  UNL     1      29.576  64.272  13.053  1.00  0.00    -0.395 N 
ATOM      8  H12 UNL     1      29.844  63.492  12.453  1.00  0.00     0.156 HD
ATOM      9  H11 UNL     1      29.758  64.256  14.056  1.00  0.00     0.156 HD
ENDBRANCH   6   7
ENDBRANCH   4   6
ENDBRANCH   1   4
BRANCH   1  10
HETATM   10  C6  UNL     1      28.679  66.375   8.994  1.00  0.00     0.189 C 
BRANCH  10  11
HETATM   11  O4  UNL     1      27.709  66.252   8.011  1.00  0.00    -0.388 OA
ATOM     12  H4  UNL     1      26.813  66.345   8.314  1.00  0.00     0.210 HD
ENDBRANCH  10  11
BRANCH  10  13
HETATM   13  C7  UNL     1      29.925  65.853   8.254  1.00  0.00     0.022 C 
HETATM   14  C8  UNL     1      31.092  65.551   9.056  1.00  0.00     0.007 C 
HETATM   15  C9  UNL     1      32.244  66.538   8.959  1.00  0.00     0.000 C 
HETATM   16  C10 UNL     1      32.713  66.788   7.567  1.00  0.00     0.000 C 
HETATM   17  C11 UNL     1      31.576  66.696   6.569  1.00  0.00     0.000 C 
HETATM   18  C12 UNL     1      30.290  66.992   7.282  1.00  0.00     0.007 C 
ENDBRANCH  10  13
ENDBRANCH   1  10
BRANCH   2  19
HETATM   19  C3  UNL     1      26.222  64.234  10.244  1.00  0.00     0.176 C 
BRANCH  19  20
HETATM   20  C4  UNL     1      26.678  62.867  10.241  1.00  0.00     0.288 C 
HETATM   21  N4  UNL     1      27.719  62.416  11.122  1.00  0.00    -0.056 NA
HETATM   22  O1  UNL     1      26.175  61.950   9.486  1.00  0.00    -0.269 OA
ENDBRANCH  19  20
BRANCH  19  23
HETATM   23  C5  UNL     1      25.289  64.531   9.168  1.00  0.00     0.232 C 
HETATM   24  O2  UNL     1      25.649  64.515   7.961  1.00  0.00    -0.643 OA
HETATM   25  O3  UNL     1      23.946  64.861   9.424  1.00  0.00    -0.643 OA
ENDBRANCH  19  23
ENDBRANCH   2  19
TORSDOF 9
ENDMDL
