MODEL 1
REMARK VINA RESULT: -7.453176429      0.000      0.000
REMARK  6 active torsions:
REMARK  status: ('A' for Active; 'I' for Inactive)
REMARK    1  A    between atoms: C3_3  and  O1_4 
REMARK    2  A    between atoms: O1_4  and  C4_5 
REMARK    3  A    between atoms: C4_5  and  C5_6 
REMARK    4  A    between atoms: C5_6  and  C6_7 
REMARK       I    between atoms: C6_7  and  N1_9 
REMARK    5  A    between atoms: N1_9  and  N2_11 
REMARK       I    between atoms: N2_11  and  C7_13 
REMARK       I    between atoms: N4_15  and  C8_17 
REMARK    6  A    between atoms: C8_17  and  C9_19 
ROOT
HETATM    1  C1  UNL     1      28.373  63.680  12.549  1.00  0.00     0.014 C 
HETATM    2  C2  UNL     1      27.751  63.165  11.656  1.00  0.00    -0.091 C 
HETATM    3  C3  UNL     1      27.015  62.541  10.557  1.00  0.00     0.260 C 
ENDROOT
BRANCH   3   4
HETATM    4  O1  UNL     1      25.648  62.759  10.623  1.00  0.00    -0.379 OA
BRANCH   4   5
HETATM    5  C4  UNL     1      25.019  62.303   9.485  1.00  0.00     0.178 C 
BRANCH   5   6
HETATM    6  C5  UNL     1      24.325  63.417   8.765  1.00  0.00     0.131 C 
BRANCH   6   7
HETATM    7  C6  UNL     1      25.177  64.628   8.695  1.00  0.00     0.238 C 
HETATM    8  O2  UNL     1      25.778  64.852   7.601  1.00  0.00    -0.272 OA
HETATM    9  N1  UNL     1      25.328  65.512   9.792  1.00  0.00    -0.268 N 
ATOM     10  H1  UNL     1      24.828  65.298  10.655  1.00  0.00     0.190 HD
BRANCH   9  11
HETATM   11  N2  UNL     1      26.120  66.655   9.757  1.00  0.00    -0.271 N 
HETATM   12  C7  UNL     1      27.527  66.557   9.900  1.00  0.00     0.209 C 
HETATM   13  N3  UNL     1      28.104  66.951  11.133  1.00  0.00    -0.062 NA
HETATM   14  N4  UNL     1      28.303  66.130   8.971  1.00  0.00    -0.300 N 
HETATM   15  C8  UNL     1      29.692  66.033   9.117  1.00  0.00     0.229 C 
ATOM     16  H4  UNL     1      27.887  65.847   8.083  1.00  0.00     0.171 HD
HETATM   17  O3  UNL     1      30.123  65.262  10.045  1.00  0.00    -0.273 OA
ATOM     18  H2  UNL     1      25.686  67.570   9.628  1.00  0.00     0.189 HD
BRANCH  15  19
HETATM   19  C9  UNL     1      30.707  66.720   8.324  1.00  0.00     0.105 C 
HETATM   20  C10 UNL     1      30.790  66.244   6.877  1.00  0.00     0.043 C 
HETATM   21  C11 UNL     1      32.094  66.956   6.481  1.00  0.00     0.233 C 
HETATM   22  N5  UNL     1      32.953  66.589   7.591  1.00  0.00    -0.074 N 
HETATM   23  C12 UNL     1      32.138  66.413   8.760  1.00  0.00     0.246 C 
ATOM     24  H52 UNL     1      33.528  65.772   7.387  1.00  0.00     0.277 HD
ATOM     25  H51 UNL     1      33.710  67.257   7.738  1.00  0.00     0.277 HD
ENDBRANCH  15  19
ENDBRANCH   9  11
ENDBRANCH   6   7
ENDBRANCH   5   6
ENDBRANCH   4   5
ENDBRANCH   3   4
TORSDOF 6
ENDMDL
MODEL 2
REMARK VINA RESULT: -7.090430896      1.735      2.864
REMARK  6 active torsions:
REMARK  status: ('A' for Active; 'I' for Inactive)
REMARK    1  A    between atoms: C3_3  and  O1_4 
REMARK    2  A    between atoms: O1_4  and  C4_5 
REMARK    3  A    between atoms: C4_5  and  C5_6 
REMARK    4  A    between atoms: C5_6  and  C6_7 
REMARK       I    between atoms: C6_7  and  N1_9 
REMARK    5  A    between atoms: N1_9  and  N2_11 
REMARK       I    between atoms: N2_11  and  C7_13 
REMARK       I    between atoms: N4_15  and  C8_17 
REMARK    6  A    between atoms: C8_17  and  C9_19 
ROOT
HETATM    1  C1  UNL     1      26.212  65.810   7.904  1.00  0.00     0.014 C 
HETATM    2  C2  UNL     1      25.366  65.053   8.305  1.00  0.00    -0.091 C 
HETATM    3  C3  UNL     1      24.328  64.133   8.769  1.00  0.00     0.260 C 
ENDROOT
BRANCH   3   4
HETATM    4  O1  UNL     1      24.031  64.279  10.115  1.00  0.00    -0.379 OA
BRANCH   4   5
HETATM    5  C4  UNL     1      24.340  63.135  10.818  1.00  0.00     0.178 C 
BRANCH   5   6
HETATM    6  C5  UNL     1      24.560  63.432  12.268  1.00  0.00     0.131 C 
BRANCH   6   7
HETATM    7  C6  UNL     1      25.876  64.076  12.494  1.00  0.00     0.238 C 
HETATM    8  O2  UNL     1      26.748  63.408  13.127  1.00  0.00    -0.272 OA
HETATM    9  N1  UNL     1      26.168  65.382  12.031  1.00  0.00    -0.268 N 
ATOM     10  H1  UNL     1      25.441  65.888  11.525  1.00  0.00     0.190 HD
BRANCH   9  11
HETATM   11  N2  UNL     1      27.393  66.013  12.227  1.00  0.00    -0.271 N 
HETATM   12  C7  UNL     1      28.526  65.632  11.465  1.00  0.00     0.209 C 
HETATM   13  N3  UNL     1      29.530  64.858  12.099  1.00  0.00    -0.062 NA
HETATM   14  N4  UNL     1      28.688  65.953  10.232  1.00  0.00    -0.300 N 
HETATM   15  C8  UNL     1      29.808  65.573   9.484  1.00  0.00     0.229 C 
ATOM     16  H4  UNL     1      27.965  66.511   9.777  1.00  0.00     0.171 HD
HETATM   17  O3  UNL     1      30.011  64.316   9.345  1.00  0.00    -0.273 OA
ATOM     18  H2  UNL     1      27.476  66.755  12.923  1.00  0.00     0.189 HD
BRANCH  15  19
HETATM   19  C9  UNL     1      30.775  66.459   8.842  1.00  0.00     0.105 C 
HETATM   20  C10 UNL     1      30.887  66.267   7.333  1.00  0.00     0.043 C 
HETATM   21  C11 UNL     1      32.142  67.122   7.090  1.00  0.00     0.233 C 
HETATM   22  N5  UNL     1      33.024  66.610   8.121  1.00  0.00    -0.074 N 
HETATM   23  C12 UNL     1      32.223  66.168   9.229  1.00  0.00     0.246 C 
ATOM     24  H52 UNL     1      33.650  65.884   7.775  1.00  0.00     0.277 HD
ATOM     25  H51 UNL     1      33.736  67.287   8.398  1.00  0.00     0.277 HD
ENDBRANCH  15  19
ENDBRANCH   9  11
ENDBRANCH   6   7
ENDBRANCH   5   6
ENDBRANCH   4   5
ENDBRANCH   3   4
TORSDOF 6
ENDMDL
MODEL 3
REMARK VINA RESULT: -7.036143251      2.307      5.905
REMARK  6 active torsions:
REMARK  status: ('A' for Active; 'I' for Inactive)
REMARK    1  A    between atoms: C3_3  and  O1_4 
REMARK    2  A    between atoms: O1_4  and  C4_5 
REMARK    3  A    between atoms: C4_5  and  C5_6 
REMARK    4  A    between atoms: C5_6  and  C6_7 
REMARK       I    between atoms: C6_7  and  N1_9 
REMARK    5  A    between atoms: N1_9  and  N2_11 
REMARK       I    between atoms: N2_11  and  C7_13 
REMARK       I    between atoms: N4_15  and  C8_17 
REMARK    6  A    between atoms: C8_17  and  C9_19 
ROOT
HETATM    1  C1  UNL     1      32.342  66.202   9.423  1.00  0.00     0.014 C 
HETATM    2  C2  UNL     1      32.339  66.551   8.271  1.00  0.00    -0.091 C 
HETATM    3  C3  UNL     1      32.359  66.985   6.874  1.00  0.00     0.260 C 
ENDROOT
BRANCH   3   4
HETATM    4  O1  UNL     1      31.099  67.273   6.374  1.00  0.00    -0.379 OA
BRANCH   4   5
HETATM    5  C4  UNL     1      30.285  66.162   6.416  1.00  0.00     0.178 C 
BRANCH   5   6
HETATM    6  C5  UNL     1      28.841  66.542   6.301  1.00  0.00     0.131 C 
BRANCH   6   7
HETATM    7  C6  UNL     1      28.142  66.404   7.602  1.00  0.00     0.238 C 
HETATM    8  O2  UNL     1      28.852  66.469   8.651  1.00  0.00    -0.272 OA
HETATM    9  N1  UNL     1      26.742  66.208   7.691  1.00  0.00    -0.268 N 
ATOM     10  H1  UNL     1      26.206  66.162   6.825  1.00  0.00     0.190 HD
BRANCH   9  11
HETATM   11  N2  UNL     1      26.058  66.075   8.896  1.00  0.00    -0.271 N 
HETATM   12  C7  UNL     1      26.246  64.926   9.703  1.00  0.00     0.209 C 
HETATM   13  N3  UNL     1      25.217  63.951   9.730  1.00  0.00    -0.062 NA
HETATM   14  N4  UNL     1      27.298  64.724  10.410  1.00  0.00    -0.300 N 
HETATM   15  C8  UNL     1      27.480  63.586  11.205  1.00  0.00     0.229 C 
ATOM     16  H4  UNL     1      28.038  65.427  10.392  1.00  0.00     0.171 HD
HETATM   17  O3  UNL     1      27.478  62.455  10.604  1.00  0.00    -0.273 OA
ATOM     18  H2  UNL     1      25.418  66.810   9.199  1.00  0.00     0.189 HD
BRANCH  15  19
HETATM   19  C9  UNL     1      27.670  63.550  12.653  1.00  0.00     0.105 C 
HETATM   20  C10 UNL     1      26.527  64.178  13.445  1.00  0.00     0.043 C 
HETATM   21  C11 UNL     1      27.202  64.207  14.826  1.00  0.00     0.233 C 
HETATM   22  N5  UNL     1      28.484  64.797  14.492  1.00  0.00    -0.074 N 
HETATM   23  C12 UNL     1      28.815  64.433  13.143  1.00  0.00     0.246 C 
ATOM     24  H52 UNL     1      28.501  65.806  14.642  1.00  0.00     0.277 HD
ATOM     25  H51 UNL     1      29.215  64.546  15.157  1.00  0.00     0.277 HD
ENDBRANCH  15  19
ENDBRANCH   9  11
ENDBRANCH   6   7
ENDBRANCH   5   6
ENDBRANCH   4   5
ENDBRANCH   3   4
TORSDOF 6
ENDMDL
MODEL 4
REMARK VINA RESULT: -6.860487560      1.175      1.180
REMARK  6 active torsions:
REMARK  status: ('A' for Active; 'I' for Inactive)
REMARK    1  A    between atoms: C3_3  and  O1_4 
REMARK    2  A    between atoms: O1_4  and  C4_5 
REMARK    3  A    between atoms: C4_5  and  C5_6 
REMARK    4  A    between atoms: C5_6  and  C6_7 
REMARK       I    between atoms: C6_7  and  N1_9 
REMARK    5  A    between atoms: N1_9  and  N2_11 
REMARK       I    between atoms: N2_11  and  C7_13 
REMARK       I    between atoms: N4_15  and  C8_17 
REMARK    6  A    between atoms: C8_17  and  C9_19 
ROOT
HETATM    1  C1  UNL     1      27.043  64.232  13.116  1.00  0.00     0.014 C 
HETATM    2  C2  UNL     1      25.888  63.938  12.946  1.00  0.00    -0.091 C 
HETATM    3  C3  UNL     1      24.487  63.563  12.757  1.00  0.00     0.260 C 
ENDROOT
BRANCH   3   4
HETATM    4  O1  UNL     1      24.028  63.799  11.471  1.00  0.00    -0.379 OA
BRANCH   4   5
HETATM    5  C4  UNL     1      24.637  62.957  10.566  1.00  0.00     0.178 C 
BRANCH   5   6
HETATM    6  C5  UNL     1      24.542  63.497   9.173  1.00  0.00     0.131 C 
BRANCH   6   7
HETATM    7  C6  UNL     1      25.389  64.702   9.003  1.00  0.00     0.238 C 
HETATM    8  O2  UNL     1      25.963  64.853   7.883  1.00  0.00    -0.272 OA
HETATM    9  N1  UNL     1      25.565  65.656  10.035  1.00  0.00    -0.268 N 
ATOM     10  H1  UNL     1      25.086  65.499  10.922  1.00  0.00     0.190 HD
BRANCH   9  11
HETATM   11  N2  UNL     1      26.353  66.795   9.906  1.00  0.00    -0.271 N 
HETATM   12  C7  UNL     1      27.764  66.706  10.009  1.00  0.00     0.209 C 
HETATM   13  N3  UNL     1      28.380  67.174  11.196  1.00  0.00    -0.062 NA
HETATM   14  N4  UNL     1      28.509  66.224   9.081  1.00  0.00    -0.300 N 
HETATM   15  C8  UNL     1      29.903  66.137   9.188  1.00  0.00     0.229 C 
ATOM     16  H4  UNL     1      28.066  65.889   8.226  1.00  0.00     0.171 HD
HETATM   17  O3  UNL     1      30.365  65.423  10.146  1.00  0.00    -0.273 OA
ATOM     18  H2  UNL     1      25.913  67.700   9.737  1.00  0.00     0.189 HD
BRANCH  15  19
HETATM   19  C9  UNL     1      30.889  66.776   8.322  1.00  0.00     0.105 C 
HETATM   20  C10 UNL     1      30.854  66.289   6.876  1.00  0.00     0.043 C 
HETATM   21  C11 UNL     1      32.157  66.942   6.387  1.00  0.00     0.233 C 
HETATM   22  N5  UNL     1      33.074  66.544   7.439  1.00  0.00    -0.074 N 
HETATM   23  C12 UNL     1      32.332  66.410   8.662  1.00  0.00     0.246 C 
ATOM     24  H52 UNL     1      33.597  65.702   7.204  1.00  0.00     0.277 HD
ATOM     25  H51 UNL     1      33.866  67.180   7.529  1.00  0.00     0.277 HD
ENDBRANCH  15  19
ENDBRANCH   9  11
ENDBRANCH   6   7
ENDBRANCH   5   6
ENDBRANCH   4   5
ENDBRANCH   3   4
TORSDOF 6
ENDMDL
MODEL 5
REMARK VINA RESULT: -6.795634467      1.785      2.652
REMARK  6 active torsions:
REMARK  status: ('A' for Active; 'I' for Inactive)
REMARK    1  A    between atoms: C3_3  and  O1_4 
REMARK    2  A    between atoms: O1_4  and  C4_5 
REMARK    3  A    between atoms: C4_5  and  C5_6 
REMARK    4  A    between atoms: C5_6  and  C6_7 
REMARK       I    between atoms: C6_7  and  N1_9 
REMARK    5  A    between atoms: N1_9  and  N2_11 
REMARK       I    between atoms: N2_11  and  C7_13 
REMARK       I    between atoms: N4_15  and  C8_17 
REMARK    6  A    between atoms: C8_17  and  C9_19 
ROOT
HETATM    1  C1  UNL     1      24.680  64.660   8.184  1.00  0.00     0.014 C 
HETATM    2  C2  UNL     1      24.874  63.799   9.003  1.00  0.00    -0.091 C 
HETATM    3  C3  UNL     1      25.094  62.738   9.986  1.00  0.00     0.260 C 
ENDROOT
BRANCH   3   4
HETATM    4  O1  UNL     1      25.460  63.219  11.233  1.00  0.00    -0.379 OA
BRANCH   4   5
HETATM    5  C4  UNL     1      24.363  63.333  12.060  1.00  0.00     0.178 C 
BRANCH   5   6
HETATM    6  C5  UNL     1      24.057  64.768  12.360  1.00  0.00     0.131 C 
BRANCH   6   7
HETATM    7  C6  UNL     1      25.297  65.575  12.461  1.00  0.00     0.238 C 
HETATM    8  O2  UNL     1      25.872  65.614  13.591  1.00  0.00    -0.272 OA
HETATM    9  N1  UNL     1      25.834  66.280  11.356  1.00  0.00    -0.268 N 
ATOM     10  H1  UNL     1      25.343  66.223  10.464  1.00  0.00     0.190 HD
BRANCH   9  11
HETATM   11  N2  UNL     1      26.994  67.045  11.420  1.00  0.00    -0.271 N 
HETATM   12  C7  UNL     1      28.214  66.541  10.904  1.00  0.00     0.209 C 
HETATM   13  N3  UNL     1      29.200  66.100  11.823  1.00  0.00    -0.062 NA
HETATM   14  N4  UNL     1      28.471  66.464   9.648  1.00  0.00    -0.300 N 
HETATM   15  C8  UNL     1      29.677  65.964   9.143  1.00  0.00     0.229 C 
ATOM     16  H4  UNL     1      27.762  66.782   8.987  1.00  0.00     0.171 HD
HETATM   17  O3  UNL     1      29.967  64.751   9.435  1.00  0.00    -0.273 OA
ATOM     18  H2  UNL     1      26.967  67.974  11.841  1.00  0.00     0.189 HD
BRANCH  15  19
HETATM   19  C9  UNL     1      30.644  66.680   8.316  1.00  0.00     0.105 C 
HETATM   20  C10 UNL     1      30.684  66.216   6.863  1.00  0.00     0.043 C 
HETATM   21  C11 UNL     1      31.955  66.960   6.424  1.00  0.00     0.233 C 
HETATM   22  N5  UNL     1      32.864  66.607   7.497  1.00  0.00    -0.074 N 
HETATM   23  C12 UNL     1      32.098  66.404   8.695  1.00  0.00     0.246 C 
ATOM     24  H52 UNL     1      33.449  65.804   7.266  1.00  0.00     0.277 HD
ATOM     25  H51 UNL     1      33.609  67.291   7.620  1.00  0.00     0.277 HD
ENDBRANCH  15  19
ENDBRANCH   9  11
ENDBRANCH   6   7
ENDBRANCH   5   6
ENDBRANCH   4   5
ENDBRANCH   3   4
TORSDOF 6
ENDMDL
