MODEL 1
REMARK VINA RESULT: -7.694408707      0.000      0.000
REMARK  6 active torsions:
REMARK  status: ('A' for Active; 'I' for Inactive)
REMARK       I    between atoms: N1_2  and  C2_4 
REMARK       I    between atoms: C2_4  and  N4_9 
REMARK    1  A    between atoms: N4_9  and  S1_11 
REMARK    2  A    between atoms: S1_11  and  N5_14 
REMARK    3  A    between atoms: N5_14  and  C4_16 
REMARK    4  A    between atoms: C4_16  and  C5_17 
REMARK    5  A    between atoms: C5_17  and  N6_18 
REMARK       I    between atoms: N6_18  and  C6_20 
REMARK       I    between atoms: C6_20  and  N7_22 
REMARK    6  A    between atoms: N7_22  and  N8_24 
ROOT
HETATM    1  C1  UNL     1      23.655  65.669  10.838  1.00  0.00     0.165 C 
HETATM    2  N1  UNL     1      23.954  64.355  11.338  1.00  0.00    -0.229 N 
ATOM      3  H1  UNL     1      23.411  63.551  11.022  1.00  0.00     0.177 HD
HETATM    4  C2  UNL     1      25.001  64.183  12.268  1.00  0.00     0.697 C 
HETATM    5  N2  UNL     1      24.967  64.928  13.334  1.00  0.00    -0.125 N 
ATOM      6  H2  UNL     1      24.202  65.592  13.453  1.00  0.00     0.197 HD
HETATM    7  C3  UNL     1      25.953  64.839  14.319  1.00  0.00     0.196 C 
HETATM    8  N3  UNL     1      26.758  64.774  15.149  1.00  0.00    -0.171 NA
HETATM    9  N4  UNL     1      26.060  63.252  12.085  1.00  0.00    -0.099 N 
ATOM     10  H4  UNL     1      26.287  62.608  12.843  1.00  0.00     0.199 HD
ENDROOT
BRANCH   9  11
HETATM   11  S1  UNL     1      26.974  63.174  10.621  1.00  0.00     0.333 S 
HETATM   12  O1  UNL     1      26.225  63.826   9.481  1.00  0.00    -0.182 OA
HETATM   13  O2  UNL     1      27.170  61.724  10.201  1.00  0.00    -0.182 OA
BRANCH  11  14
HETATM   14  N5  UNL     1      28.489  63.973  10.786  1.00  0.00    -0.301 N 
ATOM     15  H5  UNL     1      29.368  63.612  10.417  1.00  0.00     0.173 HD
BRANCH  14  16
HETATM   16  C4  UNL     1      28.366  65.218  11.511  1.00  0.00     0.153 C 
BRANCH  16  17
HETATM   17  C5  UNL     1      28.914  66.344  10.681  1.00  0.00     0.144 C 
BRANCH  17  18
HETATM   18  N6  UNL     1      30.349  66.341  10.560  1.00  0.00    -0.340 N 
HETATM   19  C6  UNL     1      31.059  65.861   9.452  1.00  0.00     0.335 C 
HETATM   20  O3  UNL     1      30.423  65.393   8.475  1.00  0.00    -0.246 OA
HETATM   21  N7  UNL     1      32.470  65.861   9.346  1.00  0.00    -0.237 N 
ATOM     22  H7  UNL     1      33.049  65.373  10.029  1.00  0.00     0.193 HD
ATOM     23  H6  UNL     1      30.889  66.716  11.340  1.00  0.00     0.164 HD
BRANCH  21  24
HETATM   24  N8  UNL     1      32.985  66.476   8.393  1.00  0.00    -0.245 N 
HETATM   25  N9  UNL     1      33.020  66.850   7.201  1.00  0.00    -0.331 N 
ATOM     26  H92 UNL     1      32.177  66.413   6.830  1.00  0.00     0.178 HD
ATOM     27  H91 UNL     1      33.442  67.354   6.421  1.00  0.00     0.178 HD
ATOM     28  H8  UNL     1      33.820  66.897   8.801  1.00  0.00     0.208 HD
ENDBRANCH  21  24
ENDBRANCH  17  18
ENDBRANCH  16  17
ENDBRANCH  14  16
ENDBRANCH  11  14
ENDBRANCH   9  11
TORSDOF 6
ENDMDL
MODEL 2
REMARK VINA RESULT: -7.669296183      1.815      2.148
REMARK  6 active torsions:
REMARK  status: ('A' for Active; 'I' for Inactive)
REMARK       I    between atoms: N1_2  and  C2_4 
REMARK       I    between atoms: C2_4  and  N4_9 
REMARK    1  A    between atoms: N4_9  and  S1_11 
REMARK    2  A    between atoms: S1_11  and  N5_14 
REMARK    3  A    between atoms: N5_14  and  C4_16 
REMARK    4  A    between atoms: C4_16  and  C5_17 
REMARK    5  A    between atoms: C5_17  and  N6_18 
REMARK       I    between atoms: N6_18  and  C6_20 
REMARK       I    between atoms: C6_20  and  N7_22 
REMARK    6  A    between atoms: N7_22  and  N8_24 
ROOT
HETATM    1  C1  UNL     1      23.905  64.045  13.727  1.00  0.00     0.165 C 
HETATM    2  N1  UNL     1      24.567  63.183  12.787  1.00  0.00    -0.229 N 
ATOM      3  H1  UNL     1      24.096  62.348  12.437  1.00  0.00     0.177 HD
HETATM    4  C2  UNL     1      25.872  63.497  12.351  1.00  0.00     0.697 C 
HETATM    5  N2  UNL     1      26.764  63.705  13.275  1.00  0.00    -0.125 N 
ATOM      6  H2  UNL     1      26.492  63.634  14.256  1.00  0.00     0.197 HD
HETATM    7  C3  UNL     1      28.086  64.021  12.956  1.00  0.00     0.196 C 
HETATM    8  N3  UNL     1      29.188  64.278  12.708  1.00  0.00    -0.171 NA
HETATM    9  N4  UNL     1      26.233  63.590  10.980  1.00  0.00    -0.099 N 
ATOM     10  H4  UNL     1      27.053  63.080  10.650  1.00  0.00     0.199 HD
ENDROOT
BRANCH   9  11
HETATM   11  S1  UNL     1      25.330  64.539   9.853  1.00  0.00     0.333 S 
HETATM   12  O1  UNL     1      23.847  64.438  10.130  1.00  0.00    -0.182 OA
HETATM   13  O2  UNL     1      25.517  63.997   8.442  1.00  0.00    -0.182 OA
BRANCH  11  14
HETATM   14  N5  UNL     1      25.774  66.198   9.934  1.00  0.00    -0.301 N 
ATOM     15  H5  UNL     1      25.170  66.965   9.641  1.00  0.00     0.173 HD
BRANCH  14  16
HETATM   16  C4  UNL     1      27.106  66.375  10.469  1.00  0.00     0.153 C 
BRANCH  16  17
HETATM   17  C5  UNL     1      28.121  66.175   9.379  1.00  0.00     0.144 C 
BRANCH  17  18
HETATM   18  N6  UNL     1      29.469  66.000   9.855  1.00  0.00    -0.340 N 
HETATM   19  C6  UNL     1      30.558  65.625   9.058  1.00  0.00     0.335 C 
HETATM   20  O3  UNL     1      30.377  65.422   7.832  1.00  0.00    -0.246 OA
HETATM   21  N7  UNL     1      31.879  65.455   9.538  1.00  0.00    -0.237 N 
ATOM     22  H7  UNL     1      32.086  64.784  10.277  1.00  0.00     0.193 HD
ATOM     23  H6  UNL     1      29.643  66.160  10.847  1.00  0.00     0.164 HD
BRANCH  21  24
HETATM   24  N8  UNL     1      32.780  66.150   9.032  1.00  0.00    -0.245 N 
HETATM   25  N9  UNL     1      33.379  66.654   8.058  1.00  0.00    -0.331 N 
ATOM     26  H92 UNL     1      32.824  66.302   7.279  1.00  0.00     0.178 HD
ATOM     27  H91 UNL     1      34.117  67.223   7.644  1.00  0.00     0.178 HD
ATOM     28  H8  UNL     1      33.309  66.481   9.838  1.00  0.00     0.208 HD
ENDBRANCH  21  24
ENDBRANCH  17  18
ENDBRANCH  16  17
ENDBRANCH  14  16
ENDBRANCH  11  14
ENDBRANCH   9  11
TORSDOF 6
ENDMDL
MODEL 3
REMARK VINA RESULT: -7.616896166      1.542      2.077
REMARK  6 active torsions:
REMARK  status: ('A' for Active; 'I' for Inactive)
REMARK       I    between atoms: N1_2  and  C2_4 
REMARK       I    between atoms: C2_4  and  N4_9 
REMARK    1  A    between atoms: N4_9  and  S1_11 
REMARK    2  A    between atoms: S1_11  and  N5_14 
REMARK    3  A    between atoms: N5_14  and  C4_16 
REMARK    4  A    between atoms: C4_16  and  C5_17 
REMARK    5  A    between atoms: C5_17  and  N6_18 
REMARK       I    between atoms: N6_18  and  C6_20 
REMARK       I    between atoms: C6_20  and  N7_22 
REMARK    6  A    between atoms: N7_22  and  N8_24 
ROOT
HETATM    1  C1  UNL     1      24.363  62.484   8.422  1.00  0.00     0.165 C 
HETATM    2  N1  UNL     1      24.433  62.312   9.848  1.00  0.00    -0.229 N 
ATOM      3  H1  UNL     1      24.273  61.393  10.262  1.00  0.00     0.177 HD
HETATM    4  C2  UNL     1      24.724  63.420  10.671  1.00  0.00     0.697 C 
HETATM    5  N2  UNL     1      23.982  64.477  10.515  1.00  0.00    -0.125 N 
ATOM      6  H2  UNL     1      23.236  64.464   9.819  1.00  0.00     0.197 HD
HETATM    7  C3  UNL     1      24.183  65.629  11.278  1.00  0.00     0.196 C 
HETATM    8  N3  UNL     1      24.331  66.591  11.907  1.00  0.00    -0.171 NA
HETATM    9  N4  UNL     1      25.768  63.420  11.636  1.00  0.00    -0.099 N 
ATOM     10  H4  UNL     1      25.559  63.717  12.589  1.00  0.00     0.199 HD
ENDROOT
BRANCH   9  11
HETATM   11  S1  UNL     1      27.380  62.933  11.248  1.00  0.00     0.333 S 
HETATM   12  O1  UNL     1      27.376  61.805  10.241  1.00  0.00    -0.182 OA
HETATM   13  O2  UNL     1      28.071  62.372  12.483  1.00  0.00    -0.182 OA
BRANCH  11  14
HETATM   14  N5  UNL     1      28.283  64.236  10.581  1.00  0.00    -0.301 N 
ATOM     15  H5  UNL     1      28.840  64.167   9.730  1.00  0.00     0.173 HD
BRANCH  14  16
HETATM   16  C4  UNL     1      28.159  65.440  11.372  1.00  0.00     0.153 C 
BRANCH  16  17
HETATM   17  C5  UNL     1      28.872  66.572  10.688  1.00  0.00     0.144 C 
BRANCH  17  18
HETATM   18  N6  UNL     1      30.299  66.403  10.604  1.00  0.00    -0.340 N 
HETATM   19  C6  UNL     1      30.982  65.888   9.494  1.00  0.00     0.335 C 
HETATM   20  O3  UNL     1      30.325  65.540   8.481  1.00  0.00    -0.246 OA
HETATM   21  N7  UNL     1      32.385  65.725   9.424  1.00  0.00    -0.237 N 
ATOM     22  H7  UNL     1      32.881  65.143  10.099  1.00  0.00     0.193 HD
ATOM     23  H6  UNL     1      30.855  66.678  11.413  1.00  0.00     0.164 HD
BRANCH  21  24
HETATM   24  N8  UNL     1      32.998  66.313   8.513  1.00  0.00    -0.245 N 
HETATM   25  N9  UNL     1      33.112  66.732   7.341  1.00  0.00    -0.331 N 
ATOM     26  H92 UNL     1      32.232  66.419   6.931  1.00  0.00     0.178 HD
ATOM     27  H91 UNL     1      33.614  67.214   6.596  1.00  0.00     0.178 HD
ATOM     28  H8  UNL     1      33.866  66.608   8.959  1.00  0.00     0.208 HD
ENDBRANCH  21  24
ENDBRANCH  17  18
ENDBRANCH  16  17
ENDBRANCH  14  16
ENDBRANCH  11  14
ENDBRANCH   9  11
TORSDOF 6
ENDMDL
MODEL 4
REMARK VINA RESULT: -7.551130812      1.716      2.822
REMARK  6 active torsions:
REMARK  status: ('A' for Active; 'I' for Inactive)
REMARK       I    between atoms: N1_2  and  C2_4 
REMARK       I    between atoms: C2_4  and  N4_9 
REMARK    1  A    between atoms: N4_9  and  S1_11 
REMARK    2  A    between atoms: S1_11  and  N5_14 
REMARK    3  A    between atoms: N5_14  and  C4_16 
REMARK    4  A    between atoms: C4_16  and  C5_17 
REMARK    5  A    between atoms: C5_17  and  N6_18 
REMARK       I    between atoms: N6_18  and  C6_20 
REMARK       I    between atoms: C6_20  and  N7_22 
REMARK    6  A    between atoms: N7_22  and  N8_24 
ROOT
HETATM    1  C1  UNL     1      23.852  65.654  12.184  1.00  0.00     0.165 C 
HETATM    2  N1  UNL     1      24.906  65.756  11.212  1.00  0.00    -0.229 N 
ATOM      3  H1  UNL     1      25.503  66.583  11.188  1.00  0.00     0.177 HD
HETATM    4  C2  UNL     1      25.110  64.706  10.292  1.00  0.00     0.697 C 
HETATM    5  N2  UNL     1      24.077  64.323   9.601  1.00  0.00    -0.125 N 
ATOM      6  H2  UNL     1      23.179  64.786   9.748  1.00  0.00     0.197 HD
HETATM    7  C3  UNL     1      24.167  63.293   8.662  1.00  0.00     0.196 C 
HETATM    8  N3  UNL     1      24.226  62.446   7.874  1.00  0.00    -0.171 NA
HETATM    9  N4  UNL     1      26.369  64.073  10.100  1.00  0.00    -0.099 N 
ATOM     10  H4  UNL     1      26.730  63.972   9.152  1.00  0.00     0.199 HD
ENDROOT
BRANCH   9  11
HETATM   11  S1  UNL     1      27.306  63.469  11.420  1.00  0.00     0.333 S 
HETATM   12  O1  UNL     1      27.738  62.043  11.168  1.00  0.00    -0.182 OA
HETATM   13  O2  UNL     1      26.459  63.419  12.685  1.00  0.00    -0.182 OA
BRANCH  11  14
HETATM   14  N5  UNL     1      28.720  64.416  11.668  1.00  0.00    -0.301 N 
ATOM     15  H5  UNL     1      29.662  64.031  11.726  1.00  0.00     0.173 HD
BRANCH  14  16
HETATM   16  C4  UNL     1      28.413  65.824  11.785  1.00  0.00     0.153 C 
BRANCH  16  17
HETATM   17  C5  UNL     1      28.959  66.562  10.595  1.00  0.00     0.144 C 
BRANCH  17  18
HETATM   18  N6  UNL     1      30.394  66.521  10.485  1.00  0.00    -0.340 N 
HETATM   19  C6  UNL     1      31.101  65.926   9.432  1.00  0.00     0.335 C 
HETATM   20  O3  UNL     1      30.461  65.381   8.498  1.00  0.00    -0.246 OA
HETATM   21  N7  UNL     1      32.512  65.890   9.336  1.00  0.00    -0.237 N 
ATOM     22  H7  UNL     1      33.077  65.457  10.066  1.00  0.00     0.193 HD
ATOM     23  H6  UNL     1      30.937  66.957  11.230  1.00  0.00     0.164 HD
BRANCH  21  24
HETATM   24  N8  UNL     1      33.044  66.404   8.333  1.00  0.00    -0.245 N 
HETATM   25  N9  UNL     1      33.014  66.852   7.168  1.00  0.00    -0.331 N 
ATOM     26  H92 UNL     1      32.032  66.720   6.928  1.00  0.00     0.178 HD
ATOM     27  H91 UNL     1      33.450  67.272   6.347  1.00  0.00     0.178 HD
ATOM     28  H8  UNL     1      34.019  66.519   8.611  1.00  0.00     0.208 HD
ENDBRANCH  21  24
ENDBRANCH  17  18
ENDBRANCH  16  17
ENDBRANCH  14  16
ENDBRANCH  11  14
ENDBRANCH   9  11
TORSDOF 6
ENDMDL
MODEL 5
REMARK VINA RESULT: -7.527108486      1.948      2.246
REMARK  6 active torsions:
REMARK  status: ('A' for Active; 'I' for Inactive)
REMARK       I    between atoms: N1_2  and  C2_4 
REMARK       I    between atoms: C2_4  and  N4_9 
REMARK    1  A    between atoms: N4_9  and  S1_11 
REMARK    2  A    between atoms: S1_11  and  N5_14 
REMARK    3  A    between atoms: N5_14  and  C4_16 
REMARK    4  A    between atoms: C4_16  and  C5_17 
REMARK    5  A    between atoms: C5_17  and  N6_18 
REMARK       I    between atoms: N6_18  and  C6_20 
REMARK       I    between atoms: C6_20  and  N7_22 
REMARK    6  A    between atoms: N7_22  and  N8_24 
ROOT
HETATM    1  C1  UNL     1      23.830  63.865  12.915  1.00  0.00     0.165 C 
HETATM    2  N1  UNL     1      24.616  63.192  11.917  1.00  0.00    -0.229 N 
ATOM      3  H1  UNL     1      24.192  62.475  11.328  1.00  0.00     0.177 HD
HETATM    4  C2  UNL     1      25.977  63.529  11.757  1.00  0.00     0.697 C 
HETATM    5  N2  UNL     1      26.719  63.491  12.825  1.00  0.00    -0.125 N 
ATOM      6  H2  UNL     1      26.298  63.226  13.716  1.00  0.00     0.197 HD
HETATM    7  C3  UNL     1      28.079  63.805  12.780  1.00  0.00     0.196 C 
HETATM    8  N3  UNL     1      29.210  64.055  12.760  1.00  0.00    -0.171 NA
HETATM    9  N4  UNL     1      26.546  63.896  10.507  1.00  0.00    -0.099 N 
ATOM     10  H4  UNL     1      27.399  63.429  10.199  1.00  0.00     0.199 HD
ENDROOT
BRANCH   9  11
HETATM   11  S1  UNL     1      25.842  65.105   9.495  1.00  0.00     0.333 S 
HETATM   12  O1  UNL     1      24.384  65.316   9.839  1.00  0.00    -0.182 OA
HETATM   13  O2  UNL     1      25.853  64.646   8.043  1.00  0.00    -0.182 OA
BRANCH  11  14
HETATM   14  N5  UNL     1      26.651  66.613   9.666  1.00  0.00    -0.301 N 
ATOM     15  H5  UNL     1      26.835  67.253   8.894  1.00  0.00     0.173 HD
BRANCH  14  16
HETATM   16  C4  UNL     1      27.038  66.866  11.036  1.00  0.00     0.153 C 
BRANCH  16  17
HETATM   17  C5  UNL     1      28.359  67.580  11.066  1.00  0.00     0.144 C 
BRANCH  17  18
HETATM   18  N6  UNL     1      29.502  66.703  11.085  1.00  0.00    -0.340 N 
HETATM   19  C6  UNL     1      30.157  66.215   9.947  1.00  0.00     0.335 C 
HETATM   20  O3  UNL     1      29.741  66.552   8.811  1.00  0.00    -0.246 OA
HETATM   21  N7  UNL     1      31.278  65.352   9.979  1.00  0.00    -0.237 N 
ATOM     22  H7  UNL     1      31.228  64.443  10.438  1.00  0.00     0.193 HD
ATOM     23  H6  UNL     1      29.860  66.415  11.995  1.00  0.00     0.164 HD
BRANCH  21  24
HETATM   24  N8  UNL     1      32.328  65.736   9.430  1.00  0.00    -0.245 N 
HETATM   25  N9  UNL     1      32.961  66.433   8.608  1.00  0.00    -0.331 N 
ATOM     26  H92 UNL     1      32.206  66.953   8.164  1.00  0.00     0.178 HD
ATOM     27  H91 UNL     1      33.821  66.747   8.159  1.00  0.00     0.178 HD
ATOM     28  H8  UNL     1      33.056  65.195   9.898  1.00  0.00     0.208 HD
ENDBRANCH  21  24
ENDBRANCH  17  18
ENDBRANCH  16  17
ENDBRANCH  14  16
ENDBRANCH  11  14
ENDBRANCH   9  11
TORSDOF 6
ENDMDL
