MODEL 1
REMARK VINA RESULT: -7.200321316      0.000      0.000
REMARK  11 active torsions:
REMARK  status: ('A' for Active; 'I' for Inactive)
REMARK    1  A    between atoms: C2_2  and  N1_3 
REMARK       I    between atoms: N1_3  and  C3_5 
REMARK    2  A    between atoms: C3_5  and  O2_7 
REMARK    3  A    between atoms: O2_7  and  C4_8 
REMARK    4  A    between atoms: C4_8  and  C5_9 
REMARK    5  A    between atoms: C6_11  and  C7_12 
REMARK    6  A    between atoms: C8_13  and  C9_14 
REMARK    7  A    between atoms: C10_16  and  C11_17 
REMARK    8  A    between atoms: C11_17  and  C12_18 
REMARK    9  A    between atoms: C13_20  and  C14_21 
REMARK   10  A    between atoms: C16_23  and  O5_24 
REMARK   11  A    between atoms: C17_26  and  O6_27 
ROOT
HETATM    1  C5  UNL     1     -38.275  15.344 -16.814  1.00  0.00     0.178 C 
HETATM    2  O3  UNL     1     -39.235  15.762 -17.735  1.00  0.00    -0.369 OA
HETATM    3  C6  UNL     1     -39.734  14.607 -18.276  1.00  0.00     0.176 C 
HETATM    4  C16 UNL     1     -39.637  13.517 -17.221  1.00  0.00     0.182 C 
HETATM    5  C17 UNL     1     -39.088  14.297 -16.044  1.00  0.00     0.180 C 
ENDROOT
BRANCH   3   6
HETATM    6  C7  UNL     1     -39.042  14.241 -19.523  1.00  0.00     0.006 C 
HETATM    7  C8  UNL     1     -39.448  14.716 -20.677  1.00  0.00     0.004 C 
BRANCH   7   8
HETATM    8  C9  UNL     1     -40.600  15.622 -20.744  1.00  0.00     0.151 A 
HETATM    9  O4  UNL     1     -41.679  14.970 -21.300  1.00  0.00    -0.376 OA
HETATM   10  C10 UNL     1     -41.758  15.891 -22.380  1.00  0.00     0.130 A 
HETATM   11  C13 UNL     1     -40.615  16.648 -21.843  1.00  0.00     0.047 A 
BRANCH  10  12
HETATM   12  C11 UNL     1     -43.135  16.492 -22.323  1.00  0.00     0.043 C 
BRANCH  12  13
HETATM   13  C12 UNL     1     -43.579  17.252 -23.518  1.00  0.00     0.088 C 
HETATM   14 BR1  UNL     1     -43.167  19.116 -23.341  1.00  0.00    -0.096 Br
ENDBRANCH  12  13
ENDBRANCH  10  12
BRANCH  11  15
HETATM   15  C14 UNL     1     -39.344  16.712 -22.658  1.00  0.00     0.005 C 
HETATM   16  C15 UNL     1     -39.111  18.094 -23.223  1.00  0.00     0.006 C 
ENDBRANCH  11  15
ENDBRANCH   7   8
ENDBRANCH   3   6
BRANCH   4  17
HETATM   17  O5  UNL     1     -38.719  12.538 -17.584  1.00  0.00    -0.390 OA
ATOM     18  H5  UNL     1     -37.910  12.621 -17.092  1.00  0.00     0.210 HD
ENDBRANCH   4  17
BRANCH   1  19
HETATM   19  C4  UNL     1     -37.770  16.425 -15.943  1.00  0.00     0.215 C 
BRANCH  19  20
HETATM   20  O2  UNL     1     -37.685  17.633 -16.645  1.00  0.00    -0.301 OA
BRANCH  20  21
HETATM   21  C3  UNL     1     -38.597  18.655 -16.670  1.00  0.00     0.360 C 
HETATM   22  N1  UNL     1     -38.360  19.884 -17.389  1.00  0.00    -0.337 N 
ATOM     23  H1  UNL     1     -37.481  19.996 -17.895  1.00  0.00     0.164 HD
HETATM   24  O1  UNL     1     -39.677  18.518 -16.047  1.00  0.00    -0.239 OA
BRANCH  22  25
HETATM   25  C2  UNL     1     -39.312  20.948 -17.416  1.00  0.00     0.120 C 
HETATM   26  C1  UNL     1     -39.588  21.363 -18.846  1.00  0.00     0.026 C 
ENDBRANCH  22  25
ENDBRANCH  20  21
ENDBRANCH  19  20
ENDBRANCH   1  19
BRANCH   5  27
HETATM   27  O6  UNL     1     -40.144  14.869 -15.377  1.00  0.00    -0.390 OA
ATOM     28  H6  UNL     1     -39.861  15.595 -14.833  1.00  0.00     0.210 HD
ENDBRANCH   5  27
TORSDOF 11
ENDMDL
MODEL 2
REMARK VINA RESULT: -7.157927132      1.978      2.207
REMARK  11 active torsions:
REMARK  status: ('A' for Active; 'I' for Inactive)
REMARK    1  A    between atoms: C2_2  and  N1_3 
REMARK       I    between atoms: N1_3  and  C3_5 
REMARK    2  A    between atoms: C3_5  and  O2_7 
REMARK    3  A    between atoms: O2_7  and  C4_8 
REMARK    4  A    between atoms: C4_8  and  C5_9 
REMARK    5  A    between atoms: C6_11  and  C7_12 
REMARK    6  A    between atoms: C8_13  and  C9_14 
REMARK    7  A    between atoms: C10_16  and  C11_17 
REMARK    8  A    between atoms: C11_17  and  C12_18 
REMARK    9  A    between atoms: C13_20  and  C14_21 
REMARK   10  A    between atoms: C16_23  and  O5_24 
REMARK   11  A    between atoms: C17_26  and  O6_27 
ROOT
HETATM    1  C5  UNL     1     -38.863  14.602 -17.472  1.00  0.00     0.178 C 
HETATM    2  O3  UNL     1     -40.112  14.890 -18.021  1.00  0.00    -0.369 OA
HETATM    3  C6  UNL     1     -40.714  13.671 -18.192  1.00  0.00     0.176 C 
HETATM    4  C16 UNL     1     -40.183  12.734 -17.118  1.00  0.00     0.182 C 
HETATM    5  C17 UNL     1     -39.285  13.668 -16.332  1.00  0.00     0.180 C 
ENDROOT
BRANCH   3   6
HETATM    6  C7  UNL     1     -40.504  13.141 -19.549  1.00  0.00     0.006 C 
HETATM    7  C8  UNL     1     -41.402  13.332 -20.487  1.00  0.00     0.004 C 
BRANCH   7   8
HETATM    8  C9  UNL     1     -42.631  14.079 -20.199  1.00  0.00     0.151 A 
HETATM    9  O4  UNL     1     -43.656  13.627 -21.002  1.00  0.00    -0.376 OA
HETATM   10  C10 UNL     1     -43.832  14.904 -21.602  1.00  0.00     0.130 A 
HETATM   11  C13 UNL     1     -42.753  15.464 -20.770  1.00  0.00     0.047 A 
BRANCH  10  12
HETATM   12  C11 UNL     1     -45.256  15.303 -21.332  1.00  0.00     0.043 C 
BRANCH  12  13
HETATM   13  C12 UNL     1     -46.100  15.596 -22.518  1.00  0.00     0.088 C 
HETATM   14 BR1  UNL     1     -47.942  15.789 -22.021  1.00  0.00    -0.096 Br
ENDBRANCH  12  13
ENDBRANCH  10  12
BRANCH  11  15
HETATM   15  C14 UNL     1     -41.506  15.972 -21.454  1.00  0.00     0.005 C 
HETATM   16  C15 UNL     1     -40.874  17.113 -20.689  1.00  0.00     0.006 C 
ENDBRANCH  11  15
ENDBRANCH   7   8
ENDBRANCH   3   6
BRANCH   4  17
HETATM   17  O5  UNL     1     -39.410  11.717 -17.667  1.00  0.00    -0.390 OA
ATOM     18  H5  UNL     1     -39.555  11.637 -18.603  1.00  0.00     0.210 HD
ENDBRANCH   4  17
BRANCH   1  19
HETATM   19  C4  UNL     1     -38.133  15.792 -16.990  1.00  0.00     0.215 C 
BRANCH  19  20
HETATM   20  O2  UNL     1     -38.997  16.884 -16.841  1.00  0.00    -0.301 OA
BRANCH  20  21
HETATM   21  C3  UNL     1     -38.666  18.210 -16.751  1.00  0.00     0.360 C 
HETATM   22  N1  UNL     1     -39.346  19.228 -17.515  1.00  0.00    -0.337 N 
ATOM     23  H1  UNL     1     -40.099  18.950 -18.145  1.00  0.00     0.164 HD
HETATM   24  O1  UNL     1     -37.739  18.552 -15.978  1.00  0.00    -0.239 OA
BRANCH  22  25
HETATM   25  C2  UNL     1     -39.001  20.611 -17.421  1.00  0.00     0.120 C 
HETATM   26  C1  UNL     1     -39.507  21.357 -18.637  1.00  0.00     0.026 C 
ENDBRANCH  22  25
ENDBRANCH  20  21
ENDBRANCH  19  20
ENDBRANCH   1  19
BRANCH   5  27
HETATM   27  O6  UNL     1     -40.055  14.323 -15.402  1.00  0.00    -0.390 OA
ATOM     28  H6  UNL     1     -40.732  14.845 -15.816  1.00  0.00     0.210 HD
ENDBRANCH   5  27
TORSDOF 11
ENDMDL
MODEL 3
REMARK VINA RESULT: -6.993055857      3.540      5.173
REMARK  11 active torsions:
REMARK  status: ('A' for Active; 'I' for Inactive)
REMARK    1  A    between atoms: C2_2  and  N1_3 
REMARK       I    between atoms: N1_3  and  C3_5 
REMARK    2  A    between atoms: C3_5  and  O2_7 
REMARK    3  A    between atoms: O2_7  and  C4_8 
REMARK    4  A    between atoms: C4_8  and  C5_9 
REMARK    5  A    between atoms: C6_11  and  C7_12 
REMARK    6  A    between atoms: C8_13  and  C9_14 
REMARK    7  A    between atoms: C10_16  and  C11_17 
REMARK    8  A    between atoms: C11_17  and  C12_18 
REMARK    9  A    between atoms: C13_20  and  C14_21 
REMARK   10  A    between atoms: C16_23  and  O5_24 
REMARK   11  A    between atoms: C17_26  and  O6_27 
ROOT
HETATM    1  C5  UNL     1     -40.716  13.029 -18.243  1.00  0.00     0.178 C 
HETATM    2  O3  UNL     1     -42.058  12.907 -18.601  1.00  0.00    -0.369 OA
HETATM    3  C6  UNL     1     -42.107  13.266 -19.921  1.00  0.00     0.176 C 
HETATM    4  C16 UNL     1     -40.772  12.905 -20.553  1.00  0.00     0.182 C 
HETATM    5  C17 UNL     1     -40.066  12.244 -19.387  1.00  0.00     0.180 C 
ENDROOT
BRANCH   3   6
HETATM    6  C7  UNL     1     -42.438  14.691 -20.091  1.00  0.00     0.006 C 
HETATM    7  C8  UNL     1     -43.556  15.052 -20.677  1.00  0.00     0.004 C 
BRANCH   7   8
HETATM    8  C9  UNL     1     -44.496  14.041 -21.172  1.00  0.00     0.151 A 
HETATM    9  O4  UNL     1     -45.177  14.528 -22.267  1.00  0.00    -0.376 OA
HETATM   10  C10 UNL     1     -46.436  14.395 -21.620  1.00  0.00     0.130 A 
HETATM   11  C13 UNL     1     -45.782  13.856 -20.416  1.00  0.00     0.047 A 
BRANCH  10  12
HETATM   12  C11 UNL     1     -47.260  13.482 -22.484  1.00  0.00     0.043 C 
BRANCH  12  13
HETATM   13  C12 UNL     1     -48.689  13.842 -22.659  1.00  0.00     0.088 C 
HETATM   14 BR1  UNL     1     -49.014  15.652 -22.113  1.00  0.00    -0.096 Br
ENDBRANCH  12  13
ENDBRANCH  10  12
BRANCH  11  15
HETATM   15  C14 UNL     1     -45.872  14.647 -19.131  1.00  0.00     0.005 C 
HETATM   16  C15 UNL     1     -46.798  13.990 -18.134  1.00  0.00     0.006 C 
ENDBRANCH  11  15
ENDBRANCH   7   8
ENDBRANCH   3   6
BRANCH   4  17
HETATM   17  O5  UNL     1     -40.063  14.041 -20.928  1.00  0.00    -0.390 OA
ATOM     18  H5  UNL     1     -39.269  13.815 -21.399  1.00  0.00     0.210 HD
ENDBRANCH   4  17
BRANCH   1  19
HETATM   19  C4  UNL     1     -40.398  12.467 -16.914  1.00  0.00     0.215 C 
BRANCH  19  20
HETATM   20  O2  UNL     1     -40.126  13.485 -15.992  1.00  0.00    -0.301 OA
BRANCH  20  21
HETATM   21  C3  UNL     1     -39.101  14.394 -16.023  1.00  0.00     0.360 C 
HETATM   22  N1  UNL     1     -39.139  15.626 -15.274  1.00  0.00    -0.337 N 
ATOM     23  H1  UNL     1     -39.959  15.828 -14.701  1.00  0.00     0.164 HD
HETATM   24  O1  UNL     1     -38.093  14.146 -16.729  1.00  0.00    -0.239 OA
BRANCH  22  25
HETATM   25  C2  UNL     1     -38.070  16.573 -15.306  1.00  0.00     0.120 C 
HETATM   26  C1  UNL     1     -38.398  17.696 -16.267  1.00  0.00     0.026 C 
ENDBRANCH  22  25
ENDBRANCH  20  21
ENDBRANCH  19  20
ENDBRANCH   1  19
BRANCH   5  27
HETATM   27  O6  UNL     1     -40.428  10.920 -19.360  1.00  0.00    -0.390 OA
ATOM     28  H6  UNL     1     -40.083  10.449 -20.110  1.00  0.00     0.210 HD
ENDBRANCH   5  27
TORSDOF 11
ENDMDL
MODEL 4
REMARK VINA RESULT: -6.565021334      2.806      4.096
REMARK  11 active torsions:
REMARK  status: ('A' for Active; 'I' for Inactive)
REMARK    1  A    between atoms: C2_2  and  N1_3 
REMARK       I    between atoms: N1_3  and  C3_5 
REMARK    2  A    between atoms: C3_5  and  O2_7 
REMARK    3  A    between atoms: O2_7  and  C4_8 
REMARK    4  A    between atoms: C4_8  and  C5_9 
REMARK    5  A    between atoms: C6_11  and  C7_12 
REMARK    6  A    between atoms: C8_13  and  C9_14 
REMARK    7  A    between atoms: C10_16  and  C11_17 
REMARK    8  A    between atoms: C11_17  and  C12_18 
REMARK    9  A    between atoms: C13_20  and  C14_21 
REMARK   10  A    between atoms: C16_23  and  O5_24 
REMARK   11  A    between atoms: C17_26  and  O6_27 
ROOT
HETATM    1  C5  UNL     1     -39.970  15.376 -18.526  1.00  0.00     0.178 C 
HETATM    2  O3  UNL     1     -41.166  14.804 -18.957  1.00  0.00    -0.369 OA
HETATM    3  C6  UNL     1     -41.117  14.867 -20.324  1.00  0.00     0.176 C 
HETATM    4  C16 UNL     1     -39.657  14.790 -20.743  1.00  0.00     0.182 C 
HETATM    5  C17 UNL     1     -38.977  14.603 -19.402  1.00  0.00     0.180 C 
ENDROOT
BRANCH   3   6
HETATM    6  C7  UNL     1     -41.783  16.074 -20.842  1.00  0.00     0.006 C 
HETATM    7  C8  UNL     1     -42.863  15.976 -21.583  1.00  0.00     0.004 C 
BRANCH   7   8
HETATM    8  C9  UNL     1     -43.425  14.660 -21.905  1.00  0.00     0.151 A 
HETATM    9  O4  UNL     1     -44.152  14.733 -23.074  1.00  0.00    -0.376 OA
HETATM   10  C10 UNL     1     -45.351  14.329 -22.427  1.00  0.00     0.130 A 
HETATM   11  C13 UNL     1     -44.641  14.217 -21.141  1.00  0.00     0.047 A 
BRANCH  10  12
HETATM   12  C11 UNL     1     -45.809  13.080 -23.129  1.00  0.00     0.043 C 
BRANCH  12  13
HETATM   13  C12 UNL     1     -47.246  12.734 -22.998  1.00  0.00     0.088 C 
HETATM   14 BR1  UNL     1     -48.272  14.253 -22.435  1.00  0.00    -0.096 Br
ENDBRANCH  12  13
ENDBRANCH  10  12
BRANCH  11  15
HETATM   15  C14 UNL     1     -45.043  15.138 -20.013  1.00  0.00     0.005 C 
HETATM   16  C15 UNL     1     -45.951  14.447 -19.023  1.00  0.00     0.006 C 
ENDBRANCH  11  15
ENDBRANCH   7   8
ENDBRANCH   3   6
BRANCH   4  17
HETATM   17  O5  UNL     1     -39.226  15.985 -21.307  1.00  0.00    -0.390 OA
ATOM     18  H5  UNL     1     -38.523  16.375 -20.800  1.00  0.00     0.210 HD
ENDBRANCH   4  17
BRANCH   1  19
HETATM   19  C4  UNL     1     -39.709  15.202 -17.083  1.00  0.00     0.215 C 
BRANCH  19  20
HETATM   20  O2  UNL     1     -39.667  16.439 -16.429  1.00  0.00    -0.301 OA
BRANCH  20  21
HETATM   21  C3  UNL     1     -38.868  17.513 -16.716  1.00  0.00     0.360 C 
HETATM   22  N1  UNL     1     -39.408  18.809 -17.051  1.00  0.00    -0.337 N 
ATOM     23  H1  UNL     1     -40.421  18.929 -17.075  1.00  0.00     0.164 HD
HETATM   24  O1  UNL     1     -37.622  17.367 -16.688  1.00  0.00    -0.239 OA
BRANCH  22  25
HETATM   25  C2  UNL     1     -38.574  19.929 -17.350  1.00  0.00     0.120 C 
HETATM   26  C1  UNL     1     -39.372  20.992 -18.076  1.00  0.00     0.026 C 
ENDBRANCH  22  25
ENDBRANCH  20  21
ENDBRANCH  19  20
ENDBRANCH   1  19
BRANCH   5  27
HETATM   27  O6  UNL     1     -38.979  13.263 -19.103  1.00  0.00    -0.390 OA
ATOM     28  H6  UNL     1     -38.396  13.066 -18.378  1.00  0.00     0.210 HD
ENDBRANCH   5  27
TORSDOF 11
ENDMDL
MODEL 5
REMARK VINA RESULT: -6.539994184      2.829      3.605
REMARK  11 active torsions:
REMARK  status: ('A' for Active; 'I' for Inactive)
REMARK    1  A    between atoms: C2_2  and  N1_3 
REMARK       I    between atoms: N1_3  and  C3_5 
REMARK    2  A    between atoms: C3_5  and  O2_7 
REMARK    3  A    between atoms: O2_7  and  C4_8 
REMARK    4  A    between atoms: C4_8  and  C5_9 
REMARK    5  A    between atoms: C6_11  and  C7_12 
REMARK    6  A    between atoms: C8_13  and  C9_14 
REMARK    7  A    between atoms: C10_16  and  C11_17 
REMARK    8  A    between atoms: C11_17  and  C12_18 
REMARK    9  A    between atoms: C13_20  and  C14_21 
REMARK   10  A    between atoms: C16_23  and  O5_24 
REMARK   11  A    between atoms: C17_26  and  O6_27 
ROOT
HETATM    1  C5  UNL     1     -39.302  13.767 -17.843  1.00  0.00     0.178 C 
HETATM    2  O3  UNL     1     -40.625  14.101 -18.132  1.00  0.00    -0.369 OA
HETATM    3  C6  UNL     1     -41.248  12.906 -18.373  1.00  0.00     0.176 C 
HETATM    4  C16 UNL     1     -40.549  11.839 -17.546  1.00  0.00     0.182 C 
HETATM    5  C17 UNL     1     -39.530  12.673 -16.795  1.00  0.00     0.180 C 
ENDROOT
BRANCH   3   6
HETATM    6  C7  UNL     1     -41.268  12.576 -19.808  1.00  0.00     0.006 C 
HETATM    7  C8  UNL     1     -42.185  13.084 -20.598  1.00  0.00     0.004 C 
BRANCH   7   8
HETATM    8  C9  UNL     1     -43.206  13.992 -20.064  1.00  0.00     0.151 A 
HETATM    9  O4  UNL     1     -44.311  13.273 -19.662  1.00  0.00    -0.376 OA
HETATM   10  C10 UNL     1     -45.162  13.952 -20.576  1.00  0.00     0.130 A 
HETATM   11  C13 UNL     1     -44.032  14.768 -21.051  1.00  0.00     0.047 A 
BRANCH  10  12
HETATM   12  C11 UNL     1     -46.241  14.595 -19.750  1.00  0.00     0.043 C 
BRANCH  12  13
HETATM   13  C12 UNL     1     -47.617  14.552 -20.304  1.00  0.00     0.088 C 
HETATM   14 BR1  UNL     1     -47.775  15.687 -21.842  1.00  0.00    -0.096 Br
ENDBRANCH  12  13
ENDBRANCH  10  12
BRANCH  11  15
HETATM   15  C14 UNL     1     -43.590  14.623 -22.488  1.00  0.00     0.005 C 
HETATM   16  C15 UNL     1     -43.812  15.895 -23.274  1.00  0.00     0.006 C 
ENDBRANCH  11  15
ENDBRANCH   7   8
ENDBRANCH   3   6
BRANCH   4  17
HETATM   17  O5  UNL     1     -39.879  10.927 -18.353  1.00  0.00    -0.390 OA
ATOM     18  H5  UNL     1     -39.074  10.628 -17.947  1.00  0.00     0.210 HD
ENDBRANCH   4  17
BRANCH   1  19
HETATM   19  C4  UNL     1     -38.499  14.893 -17.325  1.00  0.00     0.215 C 
BRANCH  19  20
HETATM   20  O2  UNL     1     -39.307  16.008 -17.071  1.00  0.00    -0.301 OA
BRANCH  20  21
HETATM   21  C3  UNL     1     -39.692  16.984 -17.951  1.00  0.00     0.360 C 
HETATM   22  N1  UNL     1     -40.363  16.683 -19.193  1.00  0.00    -0.337 N 
ATOM     23  H1  UNL     1     -40.556  15.708 -19.423  1.00  0.00     0.164 HD
HETATM   24  O1  UNL     1     -39.453  18.183 -17.669  1.00  0.00    -0.239 OA
BRANCH  22  25
HETATM   25  C2  UNL     1     -40.765  17.701 -20.110  1.00  0.00     0.120 C 
HETATM   26  C1  UNL     1     -40.776  17.154 -21.522  1.00  0.00     0.026 C 
ENDBRANCH  22  25
ENDBRANCH  20  21
ENDBRANCH  19  20
ENDBRANCH   1  19
BRANCH   5  27
HETATM   27  O6  UNL     1     -40.133  13.173 -15.667  1.00  0.00    -0.390 OA
ATOM     28  H6  UNL     1     -40.310  14.104 -15.749  1.00  0.00     0.210 HD
ENDBRANCH   5  27
TORSDOF 11
ENDMDL
