MODEL 1
REMARK VINA RESULT: -7.380736753      0.000      0.000
REMARK  10 active torsions:
REMARK  status: ('A' for Active; 'I' for Inactive)
REMARK    1  A    between atoms: N1_7  and  C6_9 
REMARK    2  A    between atoms: C6_9  and  C7_11 
REMARK    3  A    between atoms: C7_11  and  C8_12 
REMARK    4  A    between atoms: C7_11  and  C15_19 
REMARK    5  A    between atoms: C8_12  and  C9_13 
REMARK    6  A    between atoms: C9_13  and  C10_14 
REMARK    7  A    between atoms: C15_19  and  C16_21 
REMARK    8  A    between atoms: C16_21  and  O3_22 
REMARK    9  A    between atoms: C17_24  and  O4_25 
REMARK   10  A    between atoms: C17_24  and  C18_27 
ROOT
HETATM    1  C1  UNL     1     -43.204  19.756 -23.119  1.00  0.00     0.078 C 
HETATM    2  C2  UNL     1     -42.878  18.425 -23.747  1.00  0.00     0.158 C 
HETATM    3  C3  UNL     1     -43.802  18.075 -24.865  1.00  0.00     0.078 C 
HETATM    4  O1  UNL     1     -42.787  17.404 -22.774  1.00  0.00    -0.342 OA
HETATM    5  C4  UNL     1     -41.726  17.856 -22.028  1.00  0.00     0.206 C 
HETATM    6  C5  UNL     1     -40.741  16.794 -21.591  1.00  0.00     0.054 C 
HETATM    7  N1  UNL     1     -40.733  16.149 -20.500  1.00  0.00    -0.361 N 
ATOM      8  H1  UNL     1     -41.488  16.393 -19.861  1.00  0.00     0.162 HD
HETATM    9  C17 UNL     1     -40.060  16.989 -22.873  1.00  0.00     0.136 C 
HETATM   10  C19 UNL     1     -40.757  18.328 -23.076  1.00  0.00     0.201 C 
HETATM   11  O5  UNL     1     -41.546  18.402 -24.220  1.00  0.00    -0.344 OA
ENDROOT
BRANCH   7  12
HETATM   12  C6  UNL     1     -39.879  15.172 -20.026  1.00  0.00     0.280 C 
HETATM   13  F1  UNL     1     -39.049  14.607 -20.976  1.00  0.00    -0.226 F 
BRANCH  12  14
HETATM   14  C7  UNL     1     -40.626  14.071 -19.306  1.00  0.00     0.111 C 
BRANCH  14  15
HETATM   15  C8  UNL     1     -41.306  13.130 -20.253  1.00  0.00     0.017 C 
BRANCH  15  16
HETATM   16  C9  UNL     1     -42.678  12.825 -19.784  1.00  0.00     0.005 C 
BRANCH  16  17
HETATM   17  C10 UNL     1     -43.636  13.986 -19.927  1.00  0.00    -0.014 C 
HETATM   18  C11 UNL     1     -45.008  13.717 -19.413  1.00  0.00     0.004 C 
HETATM   19  C12 UNL     1     -45.789  14.907 -19.980  1.00  0.00     0.000 C 
HETATM   20  C13 UNL     1     -45.077  15.289 -21.250  1.00  0.00     0.000 C 
HETATM   21  C14 UNL     1     -43.831  14.432 -21.336  1.00  0.00     0.004 C 
ENDBRANCH  16  17
ENDBRANCH  15  16
ENDBRANCH  14  15
BRANCH  14  22
HETATM   22  C15 UNL     1     -39.769  13.430 -18.301  1.00  0.00     0.158 C 
HETATM   23  O2  UNL     1     -38.590  13.807 -18.124  1.00  0.00    -0.295 OA
BRANCH  22  24
HETATM   24  C16 UNL     1     -40.178  12.319 -17.412  1.00  0.00     0.242 C 
BRANCH  24  25
HETATM   25  O3  UNL     1     -39.915  11.093 -17.962  1.00  0.00    -0.394 OA
ATOM     26  H3  UNL     1     -39.055  10.769 -17.721  1.00  0.00     0.209 HD
ENDBRANCH  24  25
ENDBRANCH  22  24
ENDBRANCH  14  22
ENDBRANCH  12  14
ENDBRANCH   7  12
BRANCH   9  27
HETATM   27  O4  UNL     1     -38.683  17.210 -22.797  1.00  0.00    -0.380 OA
ATOM     28  H4  UNL     1     -38.139  16.432 -22.834  1.00  0.00     0.211 HD
ENDBRANCH   9  27
BRANCH   9  29
HETATM   29  C18 UNL     1     -40.369  16.045 -23.992  1.00  0.00     0.132 C 
HETATM   30 BR1  UNL     1     -38.951  16.252 -25.320  1.00  0.00    -0.093 Br
ENDBRANCH   9  29
TORSDOF 10
ENDMDL
MODEL 2
REMARK VINA RESULT: -7.277554254      2.170      5.568
REMARK  10 active torsions:
REMARK  status: ('A' for Active; 'I' for Inactive)
REMARK    1  A    between atoms: N1_7  and  C6_9 
REMARK    2  A    between atoms: C6_9  and  C7_11 
REMARK    3  A    between atoms: C7_11  and  C8_12 
REMARK    4  A    between atoms: C7_11  and  C15_19 
REMARK    5  A    between atoms: C8_12  and  C9_13 
REMARK    6  A    between atoms: C9_13  and  C10_14 
REMARK    7  A    between atoms: C15_19  and  C16_21 
REMARK    8  A    between atoms: C16_21  and  O3_22 
REMARK    9  A    between atoms: C17_24  and  O4_25 
REMARK   10  A    between atoms: C17_24  and  C18_27 
ROOT
HETATM    1  C1  UNL     1     -39.923  14.086 -17.545  1.00  0.00     0.078 C 
HETATM    2  C2  UNL     1     -39.998  15.381 -18.312  1.00  0.00     0.158 C 
HETATM    3  C3  UNL     1     -39.671  16.568 -17.470  1.00  0.00     0.078 C 
HETATM    4  O1  UNL     1     -41.237  15.512 -18.982  1.00  0.00    -0.342 OA
HETATM    5  C4  UNL     1     -41.173  14.445 -19.846  1.00  0.00     0.206 C 
HETATM    6  C5  UNL     1     -41.679  14.713 -21.246  1.00  0.00     0.054 C 
HETATM    7  N1  UNL     1     -42.845  14.513 -21.699  1.00  0.00    -0.361 N 
ATOM      8  H1  UNL     1     -43.500  14.126 -21.020  1.00  0.00     0.162 HD
HETATM    9  C17 UNL     1     -40.333  15.192 -21.571  1.00  0.00     0.136 C 
HETATM   10  C19 UNL     1     -39.755  14.500 -20.343  1.00  0.00     0.201 C 
HETATM   11  O5  UNL     1     -39.139  15.355 -19.434  1.00  0.00    -0.344 OA
ENDROOT
BRANCH   7  12
HETATM   12  C6  UNL     1     -43.386  14.728 -22.952  1.00  0.00     0.280 C 
HETATM   13  F1  UNL     1     -42.467  15.007 -23.946  1.00  0.00    -0.226 F 
BRANCH  12  14
HETATM   14  C7  UNL     1     -44.437  15.815 -22.933  1.00  0.00     0.111 C 
BRANCH  14  15
HETATM   15  C8  UNL     1     -45.154  15.893 -21.620  1.00  0.00     0.017 C 
BRANCH  15  16
HETATM   16  C9  UNL     1     -46.499  15.278 -21.726  1.00  0.00     0.005 C 
BRANCH  16  17
HETATM   17  C10 UNL     1     -46.867  14.427 -20.532  1.00  0.00    -0.014 C 
HETATM   18  C11 UNL     1     -48.236  14.677 -19.999  1.00  0.00     0.004 C 
HETATM   19  C12 UNL     1     -48.184  13.939 -18.658  1.00  0.00     0.000 C 
HETATM   20  C13 UNL     1     -46.742  13.984 -18.227  1.00  0.00     0.000 C 
HETATM   21  C14 UNL     1     -45.958  14.606 -19.365  1.00  0.00     0.004 C 
ENDBRANCH  16  17
ENDBRANCH  15  16
ENDBRANCH  14  15
BRANCH  14  22
HETATM   22  C15 UNL     1     -43.882  17.087 -23.415  1.00  0.00     0.158 C 
HETATM   23  O2  UNL     1     -43.105  17.761 -22.705  1.00  0.00    -0.295 OA
BRANCH  22  24
HETATM   24  C16 UNL     1     -44.154  17.692 -24.739  1.00  0.00     0.242 C 
BRANCH  24  25
HETATM   25  O3  UNL     1     -45.204  17.089 -25.376  1.00  0.00    -0.394 OA
ATOM     26  H3  UNL     1     -45.488  17.578 -26.141  1.00  0.00     0.209 HD
ENDBRANCH  24  25
ENDBRANCH  22  24
ENDBRANCH  14  22
ENDBRANCH  12  14
ENDBRANCH   7  12
BRANCH   9  27
HETATM   27  O4  UNL     1     -39.752  14.632 -22.711  1.00  0.00    -0.380 OA
ATOM     28  H4  UNL     1     -39.228  15.224 -23.237  1.00  0.00     0.211 HD
ENDBRANCH   9  27
BRANCH   9  29
HETATM   29  C18 UNL     1     -40.074  16.664 -21.532  1.00  0.00     0.132 C 
HETATM   30 BR1  UNL     1     -38.994  17.096 -23.102  1.00  0.00    -0.093 Br
ENDBRANCH   9  29
TORSDOF 10
ENDMDL
MODEL 3
REMARK VINA RESULT: -7.254778934      2.102      5.817
REMARK  10 active torsions:
REMARK  status: ('A' for Active; 'I' for Inactive)
REMARK    1  A    between atoms: N1_7  and  C6_9 
REMARK    2  A    between atoms: C6_9  and  C7_11 
REMARK    3  A    between atoms: C7_11  and  C8_12 
REMARK    4  A    between atoms: C7_11  and  C15_19 
REMARK    5  A    between atoms: C8_12  and  C9_13 
REMARK    6  A    between atoms: C9_13  and  C10_14 
REMARK    7  A    between atoms: C15_19  and  C16_21 
REMARK    8  A    between atoms: C16_21  and  O3_22 
REMARK    9  A    between atoms: C17_24  and  O4_25 
REMARK   10  A    between atoms: C17_24  and  C18_27 
ROOT
HETATM    1  C1  UNL     1     -39.958  14.097 -16.150  1.00  0.00     0.078 C 
HETATM    2  C2  UNL     1     -39.245  14.629 -17.366  1.00  0.00     0.158 C 
HETATM    3  C3  UNL     1     -38.080  15.493 -17.019  1.00  0.00     0.078 C 
HETATM    4  O1  UNL     1     -40.145  15.259 -18.257  1.00  0.00    -0.342 OA
HETATM    5  C4  UNL     1     -40.951  14.200 -18.597  1.00  0.00     0.206 C 
HETATM    6  C5  UNL     1     -41.339  14.123 -20.057  1.00  0.00     0.054 C 
HETATM    7  N1  UNL     1     -42.380  14.591 -20.607  1.00  0.00    -0.361 N 
ATOM      8  H1  UNL     1     -43.014  15.070 -19.969  1.00  0.00     0.162 HD
HETATM    9  C17 UNL     1     -40.094  13.384 -20.282  1.00  0.00     0.136 C 
HETATM   10  C19 UNL     1     -39.968  13.080 -18.794  1.00  0.00     0.201 C 
HETATM   11  O5  UNL     1     -38.810  13.574 -18.199  1.00  0.00    -0.344 OA
ENDROOT
BRANCH   7  12
HETATM   12  C6  UNL     1     -42.807  14.565 -21.921  1.00  0.00     0.280 C 
HETATM   13  F1  UNL     1     -41.799  14.492 -22.863  1.00  0.00    -0.226 F 
BRANCH  12  14
HETATM   14  C7  UNL     1     -43.702  15.739 -22.246  1.00  0.00     0.111 C 
BRANCH  14  15
HETATM   15  C8  UNL     1     -44.889  15.821 -21.334  1.00  0.00     0.017 C 
BRANCH  15  16
HETATM   16  C9  UNL     1     -45.885  14.781 -21.687  1.00  0.00     0.005 C 
BRANCH  16  17
HETATM   17  C10 UNL     1     -46.537  14.139 -20.483  1.00  0.00    -0.014 C 
HETATM   18  C11 UNL     1     -47.932  14.595 -20.224  1.00  0.00     0.004 C 
HETATM   19  C12 UNL     1     -48.181  14.042 -18.818  1.00  0.00     0.000 C 
HETATM   20  C13 UNL     1     -46.830  14.000 -18.155  1.00  0.00     0.000 C 
HETATM   21  C14 UNL     1     -45.808  14.381 -19.206  1.00  0.00     0.004 C 
ENDBRANCH  16  17
ENDBRANCH  15  16
ENDBRANCH  14  15
BRANCH  14  22
HETATM   22  C15 UNL     1     -42.920  16.977 -22.359  1.00  0.00     0.158 C 
HETATM   23  O2  UNL     1     -41.867  17.136 -21.704  1.00  0.00    -0.295 OA
BRANCH  22  24
HETATM   24  C16 UNL     1     -43.260  18.128 -23.226  1.00  0.00     0.242 C 
BRANCH  24  25
HETATM   25  O3  UNL     1     -43.453  19.276 -22.507  1.00  0.00    -0.394 OA
ATOM     26  H3  UNL     1     -42.738  19.893 -22.619  1.00  0.00     0.209 HD
ENDBRANCH  24  25
ENDBRANCH  22  24
ENDBRANCH  14  22
ENDBRANCH  12  14
ENDBRANCH   7  12
BRANCH   9  27
HETATM   27  O4  UNL     1     -40.224  12.178 -20.973  1.00  0.00    -0.380 OA
ATOM     28  H4  UNL     1     -40.975  11.647 -20.735  1.00  0.00     0.211 HD
ENDBRANCH   9  27
BRANCH   9  29
HETATM   29  C18 UNL     1     -38.902  14.137 -20.781  1.00  0.00     0.132 C 
HETATM   30 BR1  UNL     1     -38.416  13.359 -22.506  1.00  0.00    -0.093 Br
ENDBRANCH   9  29
TORSDOF 10
ENDMDL
MODEL 4
REMARK VINA RESULT: -7.193918697      2.263      3.579
REMARK  10 active torsions:
REMARK  status: ('A' for Active; 'I' for Inactive)
REMARK    1  A    between atoms: N1_7  and  C6_9 
REMARK    2  A    between atoms: C6_9  and  C7_11 
REMARK    3  A    between atoms: C7_11  and  C8_12 
REMARK    4  A    between atoms: C7_11  and  C15_19 
REMARK    5  A    between atoms: C8_12  and  C9_13 
REMARK    6  A    between atoms: C9_13  and  C10_14 
REMARK    7  A    between atoms: C15_19  and  C16_21 
REMARK    8  A    between atoms: C16_21  and  O3_22 
REMARK    9  A    between atoms: C17_24  and  O4_25 
REMARK   10  A    between atoms: C17_24  and  C18_27 
ROOT
HETATM    1  C1  UNL     1     -38.762  13.989 -25.701  1.00  0.00     0.078 C 
HETATM    2  C2  UNL     1     -39.402  15.305 -25.342  1.00  0.00     0.158 C 
HETATM    3  C3  UNL     1     -38.863  16.444 -26.139  1.00  0.00     0.078 C 
HETATM    4  O1  UNL     1     -39.350  15.540 -23.948  1.00  0.00    -0.342 OA
HETATM    5  C4  UNL     1     -40.108  14.493 -23.484  1.00  0.00     0.206 C 
HETATM    6  C5  UNL     1     -41.059  14.831 -22.357  1.00  0.00     0.054 C 
HETATM    7  N1  UNL     1     -40.851  14.726 -21.111  1.00  0.00    -0.361 N 
ATOM      8  H1  UNL     1     -39.927  14.369 -20.867  1.00  0.00     0.162 HD
HETATM    9  C17 UNL     1     -42.032  15.221 -23.380  1.00  0.00     0.136 C 
HETATM   10  C19 UNL     1     -41.260  14.459 -24.450  1.00  0.00     0.201 C 
HETATM   11  O5  UNL     1     -40.805  15.245 -25.505  1.00  0.00    -0.344 OA
ENDROOT
BRANCH   7  12
HETATM   12  C6  UNL     1     -41.656  15.009 -20.025  1.00  0.00     0.280 C 
HETATM   13  F1  UNL     1     -41.068  15.788 -19.047  1.00  0.00    -0.226 F 
BRANCH  12  14
HETATM   14  C7  UNL     1     -42.209  13.754 -19.390  1.00  0.00     0.111 C 
BRANCH  14  15
HETATM   15  C8  UNL     1     -43.535  13.359 -19.965  1.00  0.00     0.017 C 
BRANCH  15  16
HETATM   16  C9  UNL     1     -44.473  14.507 -19.939  1.00  0.00     0.005 C 
BRANCH  16  17
HETATM   17  C10 UNL     1     -45.926  14.095 -19.875  1.00  0.00    -0.014 C 
HETATM   18  C11 UNL     1     -46.847  14.971 -20.654  1.00  0.00     0.004 C 
HETATM   19  C12 UNL     1     -48.216  14.513 -20.141  1.00  0.00     0.000 C 
HETATM   20  C13 UNL     1     -47.980  14.035 -18.733  1.00  0.00     0.000 C 
HETATM   21  C14 UNL     1     -46.485  14.079 -18.493  1.00  0.00     0.004 C 
ENDBRANCH  16  17
ENDBRANCH  15  16
ENDBRANCH  14  15
BRANCH  14  22
HETATM   22  C15 UNL     1     -41.197  12.689 -19.373  1.00  0.00     0.158 C 
HETATM   23  O2  UNL     1     -41.058  11.916 -20.346  1.00  0.00    -0.295 OA
BRANCH  22  24
HETATM   24  C16 UNL     1     -40.259  12.418 -18.260  1.00  0.00     0.242 C 
BRANCH  24  25
HETATM   25  O3  UNL     1     -39.975  11.085 -18.137  1.00  0.00    -0.394 OA
ATOM     26  H3  UNL     1     -39.434  10.902 -17.377  1.00  0.00     0.209 HD
ENDBRANCH  24  25
ENDBRANCH  22  24
ENDBRANCH  14  22
ENDBRANCH  12  14
ENDBRANCH   7  12
BRANCH   9  27
HETATM   27  O4  UNL     1     -43.300  14.650 -23.255  1.00  0.00    -0.380 OA
ATOM     28  H4  UNL     1     -43.921  15.140 -22.728  1.00  0.00     0.211 HD
ENDBRANCH   9  27
BRANCH   9  29
HETATM   29  C18 UNL     1     -42.152  16.670 -23.730  1.00  0.00     0.132 C 
HETATM   30 BR1  UNL     1     -43.764  17.338 -22.851  1.00  0.00    -0.093 Br
ENDBRANCH   9  29
TORSDOF 10
ENDMDL
MODEL 5
REMARK VINA RESULT: -7.144845562      3.003      6.142
REMARK  10 active torsions:
REMARK  status: ('A' for Active; 'I' for Inactive)
REMARK    1  A    between atoms: N1_7  and  C6_9 
REMARK    2  A    between atoms: C6_9  and  C7_11 
REMARK    3  A    between atoms: C7_11  and  C8_12 
REMARK    4  A    between atoms: C7_11  and  C15_19 
REMARK    5  A    between atoms: C8_12  and  C9_13 
REMARK    6  A    between atoms: C9_13  and  C10_14 
REMARK    7  A    between atoms: C15_19  and  C16_21 
REMARK    8  A    between atoms: C16_21  and  O3_22 
REMARK    9  A    between atoms: C17_24  and  O4_25 
REMARK   10  A    between atoms: C17_24  and  C18_27 
ROOT
HETATM    1  C1  UNL     1     -39.630  13.214 -17.885  1.00  0.00     0.078 C 
HETATM    2  C2  UNL     1     -39.577  14.638 -18.377  1.00  0.00     0.158 C 
HETATM    3  C3  UNL     1     -38.852  15.544 -17.440  1.00  0.00     0.078 C 
HETATM    4  O1  UNL     1     -40.866  15.116 -18.710  1.00  0.00    -0.342 OA
HETATM    5  C4  UNL     1     -41.196  14.265 -19.737  1.00  0.00     0.206 C 
HETATM    6  C5  UNL     1     -41.893  14.909 -20.914  1.00  0.00     0.054 C 
HETATM    7  N1  UNL     1     -43.141  15.010 -21.114  1.00  0.00    -0.361 N 
ATOM      8  H1  UNL     1     -43.719  14.602 -20.380  1.00  0.00     0.162 HD
HETATM    9  C17 UNL     1     -40.566  15.213 -21.453  1.00  0.00     0.136 C 
HETATM   10  C19 UNL     1     -39.921  14.186 -20.530  1.00  0.00     0.201 C 
HETATM   11  O5  UNL     1     -38.975  14.710 -19.653  1.00  0.00    -0.344 OA
ENDROOT
BRANCH   7  12
HETATM   12  C6  UNL     1     -43.855  15.578 -22.152  1.00  0.00     0.280 C 
HETATM   13  F1  UNL     1     -43.924  16.957 -22.130  1.00  0.00    -0.226 F 
BRANCH  12  14
HETATM   14  C7  UNL     1     -45.255  15.015 -22.246  1.00  0.00     0.111 C 
BRANCH  14  15
HETATM   15  C8  UNL     1     -46.251  15.833 -21.482  1.00  0.00     0.017 C 
BRANCH  15  16
HETATM   16  C9  UNL     1     -47.188  14.952 -20.745  1.00  0.00     0.005 C 
BRANCH  16  17
HETATM   17  C10 UNL     1     -48.625  15.089 -21.196  1.00  0.00    -0.014 C 
HETATM   18  C11 UNL     1     -49.182  13.871 -21.849  1.00  0.00     0.004 C 
HETATM   19  C12 UNL     1     -50.476  14.414 -22.463  1.00  0.00     0.000 C 
HETATM   20  C13 UNL     1     -50.208  15.868 -22.749  1.00  0.00     0.000 C 
HETATM   21  C14 UNL     1     -48.842  16.188 -22.179  1.00  0.00     0.004 C 
ENDBRANCH  16  17
ENDBRANCH  15  16
ENDBRANCH  14  15
BRANCH  14  22
HETATM   22  C15 UNL     1     -45.616  14.744 -23.644  1.00  0.00     0.158 C 
HETATM   23  O2  UNL     1     -46.345  13.775 -23.945  1.00  0.00    -0.295 OA
BRANCH  22  24
HETATM   24  C16 UNL     1     -45.187  15.551 -24.809  1.00  0.00     0.242 C 
BRANCH  24  25
HETATM   25  O3  UNL     1     -45.992  16.639 -25.008  1.00  0.00    -0.394 OA
ATOM     26  H3  UNL     1     -45.595  17.276 -25.592  1.00  0.00     0.209 HD
ENDBRANCH  24  25
ENDBRANCH  22  24
ENDBRANCH  14  22
ENDBRANCH  12  14
ENDBRANCH   7  12
BRANCH   9  27
HETATM   27  O4  UNL     1     -40.347  14.823 -22.775  1.00  0.00    -0.380 OA
ATOM     28  H4  UNL     1     -39.794  15.401 -23.288  1.00  0.00     0.211 HD
ENDBRANCH   9  27
BRANCH   9  29
HETATM   29  C18 UNL     1     -40.000  16.578 -21.219  1.00  0.00     0.132 C 
HETATM   30 BR1  UNL     1     -39.234  17.176 -22.914  1.00  0.00    -0.093 Br
ENDBRANCH   9  29
TORSDOF 10
ENDMDL
