MODEL 1
REMARK VINA RESULT: -6.699953725      0.000      0.000
REMARK  14 active torsions:
REMARK  status: ('A' for Active; 'I' for Inactive)
REMARK    1  A    between atoms: C2_2  and  C3_3 
REMARK    2  A    between atoms: C3_3  and  C4_4 
REMARK    3  A    between atoms: C4_4  and  C5_5 
REMARK    4  A    between atoms: C5_5  and  C6_6 
REMARK    5  A    between atoms: C5_5  and  O1_8 
REMARK    6  A    between atoms: O1_8  and  C7_9 
REMARK    7  A    between atoms: C7_9  and  C9_17 
REMARK    8  A    between atoms: N1_10  and  N2_12 
REMARK    9  A    between atoms: N2_12  and  C8_14 
REMARK   10  A    between atoms: C9_17  and  O2_18 
REMARK   11  A    between atoms: C9_17  and  N4_20 
REMARK   12  A    between atoms: N4_20  and  C10_22 
REMARK       I    between atoms: N5_25  and  C13_26 
REMARK   13  A    between atoms: C13_26  and  O4_28 
REMARK   14  A    between atoms: O4_28  and  C14_29 
ROOT
HETATM    1  C7  UNL     1     -41.033  15.310 -19.629  1.00  0.00     0.214 C 
HETATM    2  N1  UNL     1     -41.131  16.080 -18.661  1.00  0.00    -0.274 N 
ATOM      3  H1  UNL     1     -42.013  16.024 -18.151  1.00  0.00     0.189 HD
ENDROOT
BRANCH   1   4
HETATM    4  O1  UNL     1     -42.195  14.540 -19.786  1.00  0.00    -0.293 OA
BRANCH   4   5
HETATM    5  C5  UNL     1     -43.451  14.974 -20.212  1.00  0.00     0.065 C 
BRANCH   5   6
HETATM    6  C4  UNL     1     -44.609  14.198 -19.795  1.00  0.00     0.007 C 
BRANCH   6   7
HETATM    7  C3  UNL     1     -45.792  14.758 -19.145  1.00  0.00     0.029 C 
BRANCH   7   8
HETATM    8  C2  UNL     1     -46.723  13.907 -18.362  1.00  0.00    -0.001 C 
HETATM    9  C1  UNL     1     -48.180  14.043 -18.589  1.00  0.00     0.005 C 
ENDBRANCH   7   8
ENDBRANCH   6   7
ENDBRANCH   5   6
BRANCH   5  10
HETATM   10  C6  UNL     1     -43.446  15.594 -21.577  1.00  0.00     0.179 C 
HETATM   11 CL1  UNL     1     -44.907  16.334 -22.144  1.00  0.00    -0.123 Cl
ENDBRANCH   5  10
ENDBRANCH   4   5
ENDBRANCH   1   4
BRANCH   1  12
HETATM   12  C9  UNL     1     -39.914  15.169 -20.516  1.00  0.00     0.190 C 
BRANCH  12  13
HETATM   13  O2  UNL     1     -38.773  14.866 -19.940  1.00  0.00    -0.343 OA
ATOM     14  H2  UNL     1     -38.016  15.343 -20.261  1.00  0.00     0.219 HD
ENDBRANCH  12  13
BRANCH  12  15
HETATM   15  N4  UNL     1     -39.880  15.312 -21.914  1.00  0.00    -0.361 N 
ATOM     16  H4  UNL     1     -40.347  14.620 -22.500  1.00  0.00     0.162 HD
BRANCH  15  17
HETATM   17  C10 UNL     1     -39.183  16.442 -22.548  1.00  0.00     0.103 C 
HETATM   18  C11 UNL     1     -39.566  16.395 -24.023  1.00  0.00     0.047 C 
HETATM   19  C12 UNL     1     -40.978  16.881 -24.012  1.00  0.00     0.130 C 
HETATM   20  N5  UNL     1     -41.004  17.874 -22.975  1.00  0.00    -0.326 N 
HETATM   21  C13 UNL     1     -42.031  18.824 -22.797  1.00  0.00     0.362 C 
HETATM   22  C16 UNL     1     -39.826  17.754 -22.143  1.00  0.00     0.153 C 
HETATM   23  O3  UNL     1     -41.944  19.643 -21.855  1.00  0.00    -0.238 OA
BRANCH  21  24
HETATM   24  O4  UNL     1     -43.130  18.875 -23.630  1.00  0.00    -0.304 OA
BRANCH  24  25
HETATM   25  C14 UNL     1     -43.350  19.903 -24.570  1.00  0.00     0.176 C 
HETATM   26  C15 UNL     1     -42.942  19.488 -25.946  1.00  0.00     0.034 C 
ENDBRANCH  24  25
ENDBRANCH  21  24
ENDBRANCH  15  17
ENDBRANCH  12  15
ENDBRANCH   1  12
BRANCH   2  27
HETATM   27  N2  UNL     1     -40.239  16.986 -18.179  1.00  0.00    -0.277 N 
ATOM     28  H2  UNL     1     -39.968  17.741 -18.809  1.00  0.00     0.189 HD
BRANCH  27  29
HETATM   29  C8  UNL     1     -39.650  16.988 -16.894  1.00  0.00     0.199 C 
HETATM   30  N3  UNL     1     -40.087  17.938 -15.933  1.00  0.00    -0.068 NA
HETATM   31  S1  UNL     1     -38.499  15.937 -16.495  1.00  0.00    -0.043 SA
ENDBRANCH  27  29
ENDBRANCH   2  27
TORSDOF 14
ENDMDL
MODEL 2
REMARK VINA RESULT: -6.651651119      2.206      2.507
REMARK  14 active torsions:
REMARK  status: ('A' for Active; 'I' for Inactive)
REMARK    1  A    between atoms: C2_2  and  C3_3 
REMARK    2  A    between atoms: C3_3  and  C4_4 
REMARK    3  A    between atoms: C4_4  and  C5_5 
REMARK    4  A    between atoms: C5_5  and  C6_6 
REMARK    5  A    between atoms: C5_5  and  O1_8 
REMARK    6  A    between atoms: O1_8  and  C7_9 
REMARK    7  A    between atoms: C7_9  and  C9_17 
REMARK    8  A    between atoms: N1_10  and  N2_12 
REMARK    9  A    between atoms: N2_12  and  C8_14 
REMARK   10  A    between atoms: C9_17  and  O2_18 
REMARK   11  A    between atoms: C9_17  and  N4_20 
REMARK   12  A    between atoms: N4_20  and  C10_22 
REMARK       I    between atoms: N5_25  and  C13_26 
REMARK   13  A    between atoms: C13_26  and  O4_28 
REMARK   14  A    between atoms: O4_28  and  C14_29 
ROOT
HETATM    1  C7  UNL     1     -42.064  12.939 -20.181  1.00  0.00     0.214 C 
HETATM    2  N1  UNL     1     -41.955  12.599 -18.993  1.00  0.00    -0.274 N 
ATOM      3  H1  UNL     1     -42.798  12.714 -18.430  1.00  0.00     0.189 HD
ENDROOT
BRANCH   1   4
HETATM    4  O1  UNL     1     -43.354  13.415 -20.458  1.00  0.00    -0.293 OA
BRANCH   4   5
HETATM    5  C5  UNL     1     -43.842  14.708 -20.264  1.00  0.00     0.065 C 
BRANCH   5   6
HETATM    6  C4  UNL     1     -45.019  14.863 -19.422  1.00  0.00     0.007 C 
BRANCH   6   7
HETATM    7  C3  UNL     1     -45.977  13.798 -19.131  1.00  0.00     0.029 C 
BRANCH   7   8
HETATM    8  C2  UNL     1     -47.179  14.043 -18.293  1.00  0.00    -0.001 C 
HETATM    9  C1  UNL     1     -48.502  14.139 -18.951  1.00  0.00     0.005 C 
ENDBRANCH   7   8
ENDBRANCH   6   7
ENDBRANCH   5   6
BRANCH   5  10
HETATM   10  C6  UNL     1     -43.679  15.602 -21.455  1.00  0.00     0.179 C 
HETATM   11 CL1  UNL     1     -45.097  16.338 -22.125  1.00  0.00    -0.123 Cl
ENDBRANCH   5  10
ENDBRANCH   4   5
ENDBRANCH   1   4
BRANCH   1  12
HETATM   12  C9  UNL     1     -41.051  12.882 -21.196  1.00  0.00     0.190 C 
BRANCH  12  13
HETATM   13  O2  UNL     1     -40.367  11.762 -21.246  1.00  0.00    -0.343 OA
ATOM     14  H2  UNL     1     -40.161  11.373 -20.404  1.00  0.00     0.219 HD
ENDBRANCH  12  13
BRANCH  12  15
HETATM   15  N4  UNL     1     -40.699  13.864 -22.138  1.00  0.00    -0.361 N 
ATOM     16  H4  UNL     1     -41.339  14.077 -22.903  1.00  0.00     0.162 HD
BRANCH  15  17
HETATM   17  C10 UNL     1     -39.423  14.590 -22.041  1.00  0.00     0.103 C 
HETATM   18  C11 UNL     1     -39.219  15.260 -23.396  1.00  0.00     0.047 C 
HETATM   19  C12 UNL     1     -40.205  16.380 -23.361  1.00  0.00     0.130 C 
HETATM   20  N5  UNL     1     -40.205  16.812 -21.992  1.00  0.00    -0.326 N 
HETATM   21  C13 UNL     1     -40.742  18.032 -21.533  1.00  0.00     0.362 C 
HETATM   22  C16 UNL     1     -39.575  15.811 -21.156  1.00  0.00     0.153 C 
HETATM   23  O3  UNL     1     -40.683  18.301 -20.313  1.00  0.00    -0.238 OA
BRANCH  21  24
HETATM   24  O4  UNL     1     -41.333  18.937 -22.391  1.00  0.00    -0.304 OA
BRANCH  24  25
HETATM   25  C14 UNL     1     -42.716  19.213 -22.403  1.00  0.00     0.176 C 
HETATM   26  C15 UNL     1     -43.207  19.499 -23.785  1.00  0.00     0.034 C 
ENDBRANCH  24  25
ENDBRANCH  21  24
ENDBRANCH  15  17
ENDBRANCH  12  15
ENDBRANCH   1  12
BRANCH   2  27
HETATM   27  N2  UNL     1     -40.880  12.097 -18.328  1.00  0.00    -0.277 N 
ATOM     28  H2  UNL     1     -40.555  11.174 -18.615  1.00  0.00     0.189 HD
BRANCH  27  29
HETATM   29  C8  UNL     1     -40.167  12.726 -17.281  1.00  0.00     0.199 C 
HETATM   30  N3  UNL     1     -40.228  12.174 -15.974  1.00  0.00    -0.068 NA
HETATM   31  S1  UNL     1     -39.289  14.050 -17.537  1.00  0.00    -0.043 SA
ENDBRANCH  27  29
ENDBRANCH   2  27
TORSDOF 14
ENDMDL
MODEL 3
REMARK VINA RESULT: -6.493691234      2.927      5.536
REMARK  14 active torsions:
REMARK  status: ('A' for Active; 'I' for Inactive)
REMARK    1  A    between atoms: C2_2  and  C3_3 
REMARK    2  A    between atoms: C3_3  and  C4_4 
REMARK    3  A    between atoms: C4_4  and  C5_5 
REMARK    4  A    between atoms: C5_5  and  C6_6 
REMARK    5  A    between atoms: C5_5  and  O1_8 
REMARK    6  A    between atoms: O1_8  and  C7_9 
REMARK    7  A    between atoms: C7_9  and  C9_17 
REMARK    8  A    between atoms: N1_10  and  N2_12 
REMARK    9  A    between atoms: N2_12  and  C8_14 
REMARK   10  A    between atoms: C9_17  and  O2_18 
REMARK   11  A    between atoms: C9_17  and  N4_20 
REMARK   12  A    between atoms: N4_20  and  C10_22 
REMARK       I    between atoms: N5_25  and  C13_26 
REMARK   13  A    between atoms: C13_26  and  O4_28 
REMARK   14  A    between atoms: O4_28  and  C14_29 
ROOT
HETATM    1  C7  UNL     1     -43.002  15.479 -21.807  1.00  0.00     0.214 C 
HETATM    2  N1  UNL     1     -42.488  16.600 -21.937  1.00  0.00    -0.274 N 
ATOM      3  H1  UNL     1     -43.110  17.323 -22.299  1.00  0.00     0.189 HD
ENDROOT
BRANCH   1   4
HETATM    4  O1  UNL     1     -44.347  15.487 -22.208  1.00  0.00    -0.293 OA
BRANCH   4   5
HETATM    5  C5  UNL     1     -45.474  15.609 -21.395  1.00  0.00     0.065 C 
BRANCH   5   6
HETATM    6  C4  UNL     1     -45.328  15.270 -19.987  1.00  0.00     0.007 C 
BRANCH   6   7
HETATM    7  C3  UNL     1     -45.763  14.010 -19.388  1.00  0.00     0.029 C 
BRANCH   7   8
HETATM    8  C2  UNL     1     -46.771  13.975 -18.298  1.00  0.00    -0.001 C 
HETATM    9  C1  UNL     1     -48.206  14.081 -18.646  1.00  0.00     0.005 C 
ENDBRANCH   7   8
ENDBRANCH   6   7
ENDBRANCH   5   6
BRANCH   5  10
HETATM   10  C6  UNL     1     -46.761  15.282 -22.090  1.00  0.00     0.179 C 
HETATM   11 CL1  UNL     1     -48.190  16.137 -21.611  1.00  0.00    -0.123 Cl
ENDBRANCH   5  10
ENDBRANCH   4   5
ENDBRANCH   1   4
BRANCH   1  12
HETATM   12  C9  UNL     1     -42.371  14.286 -21.320  1.00  0.00     0.190 C 
BRANCH  12  13
HETATM   13  O2  UNL     1     -42.206  13.334 -22.209  1.00  0.00    -0.343 OA
ATOM     14  H2  UNL     1     -42.429  12.459 -21.914  1.00  0.00     0.219 HD
ENDBRANCH  12  13
BRANCH  12  15
HETATM   15  N4  UNL     1     -41.909  14.006 -20.022  1.00  0.00    -0.361 N 
ATOM     16  H4  UNL     1     -42.383  14.423 -19.221  1.00  0.00     0.162 HD
BRANCH  15  17
HETATM   17  C10 UNL     1     -40.753  13.124 -19.799  1.00  0.00     0.103 C 
HETATM   18  C11 UNL     1     -39.523  13.943 -20.173  1.00  0.00     0.047 C 
HETATM   19  C12 UNL     1     -39.400  14.894 -19.029  1.00  0.00     0.130 C 
HETATM   20  N5  UNL     1     -39.817  14.131 -17.887  1.00  0.00    -0.326 N 
HETATM   21  C13 UNL     1     -39.584  14.498 -16.546  1.00  0.00     0.362 C 
HETATM   22  C16 UNL     1     -40.511  12.935 -18.315  1.00  0.00     0.153 C 
HETATM   23  O3  UNL     1     -39.995  13.751 -15.630  1.00  0.00    -0.238 OA
BRANCH  21  24
HETATM   24  O4  UNL     1     -38.917  15.659 -16.213  1.00  0.00    -0.304 OA
BRANCH  24  25
HETATM   25  C14 UNL     1     -39.557  16.901 -16.025  1.00  0.00     0.176 C 
HETATM   26  C15 UNL     1     -38.680  18.041 -16.435  1.00  0.00     0.034 C 
ENDBRANCH  24  25
ENDBRANCH  21  24
ENDBRANCH  15  17
ENDBRANCH  12  15
ENDBRANCH   1  12
BRANCH   2  27
HETATM   27  N2  UNL     1     -41.219  17.010 -21.670  1.00  0.00    -0.277 N 
ATOM     28  H2  UNL     1     -40.996  17.204 -20.694  1.00  0.00     0.189 HD
BRANCH  27  29
HETATM   29  C8  UNL     1     -40.177  17.192 -22.609  1.00  0.00     0.199 C 
HETATM   30  N3  UNL     1     -39.632  18.491 -22.794  1.00  0.00    -0.068 NA
HETATM   31  S1  UNL     1     -39.594  15.963 -23.469  1.00  0.00    -0.043 SA
ENDBRANCH  27  29
ENDBRANCH   2  27
TORSDOF 14
ENDMDL
MODEL 4
REMARK VINA RESULT: -6.404902612      2.306      3.033
REMARK  14 active torsions:
REMARK  status: ('A' for Active; 'I' for Inactive)
REMARK    1  A    between atoms: C2_2  and  C3_3 
REMARK    2  A    between atoms: C3_3  and  C4_4 
REMARK    3  A    between atoms: C4_4  and  C5_5 
REMARK    4  A    between atoms: C5_5  and  C6_6 
REMARK    5  A    between atoms: C5_5  and  O1_8 
REMARK    6  A    between atoms: O1_8  and  C7_9 
REMARK    7  A    between atoms: C7_9  and  C9_17 
REMARK    8  A    between atoms: N1_10  and  N2_12 
REMARK    9  A    between atoms: N2_12  and  C8_14 
REMARK   10  A    between atoms: C9_17  and  O2_18 
REMARK   11  A    between atoms: C9_17  and  N4_20 
REMARK   12  A    between atoms: N4_20  and  C10_22 
REMARK       I    between atoms: N5_25  and  C13_26 
REMARK   13  A    between atoms: C13_26  and  O4_28 
REMARK   14  A    between atoms: O4_28  and  C14_29 
ROOT
HETATM    1  C7  UNL     1     -41.778  13.396 -19.735  1.00  0.00     0.214 C 
HETATM    2  N1  UNL     1     -41.258  14.391 -19.208  1.00  0.00    -0.274 N 
ATOM      3  H1  UNL     1     -41.911  15.118 -18.916  1.00  0.00     0.189 HD
ENDROOT
BRANCH   1   4
HETATM    4  O1  UNL     1     -43.173  13.528 -19.804  1.00  0.00    -0.293 OA
BRANCH   4   5
HETATM    5  C5  UNL     1     -43.902  14.665 -20.156  1.00  0.00     0.065 C 
BRANCH   5   6
HETATM    6  C4  UNL     1     -45.203  14.851 -19.530  1.00  0.00     0.007 C 
BRANCH   6   7
HETATM    7  C3  UNL     1     -46.043  13.766 -19.028  1.00  0.00     0.029 C 
BRANCH   7   8
HETATM    8  C2  UNL     1     -47.281  14.038 -18.254  1.00  0.00    -0.001 C 
HETATM    9  C1  UNL     1     -48.560  14.201 -18.982  1.00  0.00     0.005 C 
ENDBRANCH   7   8
ENDBRANCH   6   7
ENDBRANCH   5   6
BRANCH   5  10
HETATM   10  C6  UNL     1     -43.715  15.087 -21.582  1.00  0.00     0.179 C 
HETATM   11 CL1  UNL     1     -44.614  16.453 -22.155  1.00  0.00    -0.123 Cl
ENDBRANCH   5  10
ENDBRANCH   4   5
ENDBRANCH   1   4
BRANCH   1  12
HETATM   12  C9  UNL     1     -41.110  12.227 -20.232  1.00  0.00     0.190 C 
BRANCH  12  13
HETATM   13  O2  UNL     1     -40.461  11.524 -19.332  1.00  0.00    -0.343 OA
ATOM     14  H2  UNL     1     -39.922  10.822 -19.676  1.00  0.00     0.219 HD
ENDBRANCH  12  13
BRANCH  12  15
HETATM   15  N4  UNL     1     -41.060  11.740 -21.549  1.00  0.00    -0.361 N 
ATOM     16  H4  UNL     1     -41.852  11.214 -21.919  1.00  0.00     0.162 HD
BRANCH  15  17
HETATM   17  C10 UNL     1     -39.886  11.975 -22.405  1.00  0.00     0.103 C 
HETATM   18  C11 UNL     1     -40.436  12.286 -23.793  1.00  0.00     0.047 C 
HETATM   19  C12 UNL     1     -40.972  13.670 -23.631  1.00  0.00     0.130 C 
HETATM   20  N5  UNL     1     -40.056  14.302 -22.724  1.00  0.00    -0.326 N 
HETATM   21  C13 UNL     1     -39.969  15.693 -22.508  1.00  0.00     0.362 C 
HETATM   22  C16 UNL     1     -39.242  13.303 -22.065  1.00  0.00     0.153 C 
HETATM   23  O3  UNL     1     -39.129  16.129 -21.690  1.00  0.00    -0.238 OA
BRANCH  21  24
HETATM   24  O4  UNL     1     -40.784  16.587 -23.171  1.00  0.00    -0.304 OA
BRANCH  24  25
HETATM   25  C14 UNL     1     -40.592  17.983 -23.150  1.00  0.00     0.176 C 
HETATM   26  C15 UNL     1     -41.641  18.672 -22.338  1.00  0.00     0.034 C 
ENDBRANCH  24  25
ENDBRANCH  21  24
ENDBRANCH  15  17
ENDBRANCH  12  15
ENDBRANCH   1  12
BRANCH   2  27
HETATM   27  N2  UNL     1     -39.947  14.657 -18.962  1.00  0.00    -0.277 N 
ATOM     28  H2  UNL     1     -39.398  15.016 -19.743  1.00  0.00     0.189 HD
BRANCH  27  29
HETATM   29  C8  UNL     1     -39.268  14.485 -17.734  1.00  0.00     0.199 C 
HETATM   30  N3  UNL     1     -38.643  13.240 -17.456  1.00  0.00    -0.068 NA
HETATM   31  S1  UNL     1     -39.185  15.668 -16.646  1.00  0.00    -0.043 SA
ENDBRANCH  27  29
ENDBRANCH   2  27
TORSDOF 14
ENDMDL
MODEL 5
REMARK VINA RESULT: -6.400445860      3.095      6.001
REMARK  14 active torsions:
REMARK  status: ('A' for Active; 'I' for Inactive)
REMARK    1  A    between atoms: C2_2  and  C3_3 
REMARK    2  A    between atoms: C3_3  and  C4_4 
REMARK    3  A    between atoms: C4_4  and  C5_5 
REMARK    4  A    between atoms: C5_5  and  C6_6 
REMARK    5  A    between atoms: C5_5  and  O1_8 
REMARK    6  A    between atoms: O1_8  and  C7_9 
REMARK    7  A    between atoms: C7_9  and  C9_17 
REMARK    8  A    between atoms: N1_10  and  N2_12 
REMARK    9  A    between atoms: N2_12  and  C8_14 
REMARK   10  A    between atoms: C9_17  and  O2_18 
REMARK   11  A    between atoms: C9_17  and  N4_20 
REMARK   12  A    between atoms: N4_20  and  C10_22 
REMARK       I    between atoms: N5_25  and  C13_26 
REMARK   13  A    between atoms: C13_26  and  O4_28 
REMARK   14  A    between atoms: O4_28  and  C14_29 
ROOT
HETATM    1  C7  UNL     1     -42.896  15.744 -22.058  1.00  0.00     0.214 C 
HETATM    2  N1  UNL     1     -42.931  16.473 -23.061  1.00  0.00    -0.274 N 
ATOM      3  H1  UNL     1     -43.657  16.242 -23.740  1.00  0.00     0.189 HD
ENDROOT
BRANCH   1   4
HETATM    4  O1  UNL     1     -43.887  14.752 -22.115  1.00  0.00    -0.293 OA
BRANCH   4   5
HETATM    5  C5  UNL     1     -45.141  14.769 -21.504  1.00  0.00     0.065 C 
BRANCH   5   6
HETATM    6  C4  UNL     1     -45.311  13.976 -20.295  1.00  0.00     0.007 C 
BRANCH   6   7
HETATM    7  C3  UNL     1     -45.734  14.514 -19.004  1.00  0.00     0.029 C 
BRANCH   7   8
HETATM    8  C2  UNL     1     -46.894  13.947 -18.270  1.00  0.00    -0.001 C 
HETATM    9  C1  UNL     1     -48.256  14.152 -18.815  1.00  0.00     0.005 C 
ENDBRANCH   7   8
ENDBRANCH   6   7
ENDBRANCH   5   6
BRANCH   5  10
HETATM   10  C6  UNL     1     -46.284  14.877 -22.468  1.00  0.00     0.179 C 
HETATM   11 CL1  UNL     1     -47.640  15.859 -22.022  1.00  0.00    -0.123 Cl
ENDBRANCH   5  10
ENDBRANCH   4   5
ENDBRANCH   1   4
BRANCH   1  12
HETATM   12  C9  UNL     1     -41.991  15.838 -20.948  1.00  0.00     0.190 C 
BRANCH  12  13
HETATM   13  O2  UNL     1     -41.174  16.865 -20.973  1.00  0.00    -0.343 OA
ATOM     14  H2  UNL     1     -40.763  17.079 -20.144  1.00  0.00     0.219 HD
ENDBRANCH  12  13
BRANCH  12  15
HETATM   15  N4  UNL     1     -41.868  14.978 -19.843  1.00  0.00    -0.361 N 
ATOM     16  H4  UNL     1     -42.294  15.240 -18.954  1.00  0.00     0.162 HD
BRANCH  15  17
HETATM   17  C10 UNL     1     -41.136  13.706 -19.945  1.00  0.00     0.103 C 
HETATM   18  C11 UNL     1     -39.694  14.079 -20.272  1.00  0.00     0.047 C 
HETATM   19  C12 UNL     1     -39.190  14.612 -18.972  1.00  0.00     0.130 C 
HETATM   20  N5  UNL     1     -39.842  13.805 -17.980  1.00  0.00    -0.326 N 
HETATM   21  C13 UNL     1     -39.455  13.726 -16.626  1.00  0.00     0.362 C 
HETATM   22  C16 UNL     1     -40.952  13.090 -18.573  1.00  0.00     0.153 C 
HETATM   23  O3  UNL     1     -40.101  12.985 -15.852  1.00  0.00    -0.238 OA
BRANCH  21  24
HETATM   24  O4  UNL     1     -38.386  14.443 -16.130  1.00  0.00    -0.304 OA
BRANCH  24  25
HETATM   25  C14 UNL     1     -38.517  15.503 -15.209  1.00  0.00     0.176 C 
HETATM   26  C15 UNL     1     -39.245  16.664 -15.806  1.00  0.00     0.034 C 
ENDBRANCH  24  25
ENDBRANCH  21  24
ENDBRANCH  15  17
ENDBRANCH  12  15
ENDBRANCH   1  12
BRANCH   2  27
HETATM   27  N2  UNL     1     -42.148  17.535 -23.390  1.00  0.00    -0.277 N 
ATOM     28  H2  UNL     1     -41.227  17.323 -23.774  1.00  0.00     0.189 HD
BRANCH  27  29
HETATM   29  C8  UNL     1     -42.480  18.903 -23.254  1.00  0.00     0.199 C 
HETATM   30  N3  UNL     1     -42.102  19.593 -22.072  1.00  0.00    -0.068 NA
HETATM   31  S1  UNL     1     -43.274  19.694 -24.408  1.00  0.00    -0.043 SA
ENDBRANCH  27  29
ENDBRANCH   2  27
TORSDOF 14
ENDMDL
