MODEL 1
REMARK VINA RESULT: -7.137238322      0.000      0.000
REMARK  11 active torsions:
REMARK  status: ('A' for Active; 'I' for Inactive)
REMARK    1  A    between atoms: C2_2  and  C4_4 
REMARK    2  A    between atoms: C4_4  and  N1_5 
REMARK       I    between atoms: N1_5  and  C5_6 
REMARK    3  A    between atoms: C5_6  and  O2_8 
REMARK    4  A    between atoms: O2_8  and  C6_9 
REMARK    5  A    between atoms: C10_13  and  O3_14 
REMARK    6  A    between atoms: C10_13  and  C11_16 
REMARK       I    between atoms: C11_16  and  N2_18 
REMARK    7  A    between atoms: N2_18  and  C12_20 
REMARK    8  A    between atoms: C12_20  and  C13_21 
REMARK    9  A    between atoms: C12_20  and  C16_24 
REMARK   10  A    between atoms: C16_24  and  O5_25 
REMARK   11  A    between atoms: C16_24  and  N3_27 
ROOT
HETATM    1  C11 UNL     1     -42.225  14.002 -21.152  1.00  0.00     0.278 C 
HETATM    2  O4  UNL     1     -41.335  13.179 -20.967  1.00  0.00    -0.265 OA
HETATM    3  N2  UNL     1     -41.853  15.377 -21.021  1.00  0.00    -0.346 N 
ATOM      4  H2  UNL     1     -42.619  16.032 -21.178  1.00  0.00     0.163 HD
ENDROOT
BRANCH   1   5
HETATM    5  C10 UNL     1     -43.578  13.692 -21.496  1.00  0.00     0.171 C 
HETATM    6  C4  UNL     1     -44.817  13.592 -20.798  1.00  0.00     0.133 C 
BRANCH   6   7
HETATM    7  C2  UNL     1     -45.207  14.335 -19.598  1.00  0.00     0.045 C 
HETATM    8  C1  UNL     1     -46.355  13.963 -18.763  1.00  0.00     0.017 C 
HETATM    9  C3  UNL     1     -45.536  15.787 -20.102  1.00  0.00     0.017 C 
ENDBRANCH   6   7
BRANCH   6  10
HETATM   10  N1  UNL     1     -45.982  13.516 -21.681  1.00  0.00    -0.347 NA
HETATM   11  C5  UNL     1     -47.024  13.405 -22.479  1.00  0.00     0.441 C 
HETATM   12  O1  UNL     1     -47.470  12.358 -23.062  1.00  0.00    -0.221 OA
BRANCH  11  13
HETATM   13  O2  UNL     1     -47.849  14.535 -22.817  1.00  0.00    -0.282 OA
BRANCH  13  14
HETATM   14  C6  UNL     1     -48.955  14.956 -22.124  1.00  0.00     0.062 C 
HETATM   15  C7  UNL     1     -49.253  14.234 -20.849  1.00  0.00     0.046 C 
HETATM   16  C8  UNL     1     -50.231  14.956 -22.964  1.00  0.00     0.046 C 
HETATM   17  C9  UNL     1     -48.713  16.427 -21.755  1.00  0.00     0.046 C 
ENDBRANCH  13  14
ENDBRANCH  11  13
ENDBRANCH   6  10
BRANCH   5  18
HETATM   18  O3  UNL     1     -43.715  13.412 -22.806  1.00  0.00    -0.353 OA
ATOM     19  H3  UNL     1     -44.585  13.090 -23.009  1.00  0.00     0.218 HD
ENDBRANCH   5  18
ENDBRANCH   1   5
BRANCH   3  20
HETATM   20  C12 UNL     1     -40.615  15.996 -20.714  1.00  0.00     0.136 C 
BRANCH  20  21
HETATM   21  C13 UNL     1     -40.404  17.164 -21.636  1.00  0.00     0.004 C 
HETATM   22  C14 UNL     1     -39.383  16.978 -22.712  1.00  0.00     0.012 C 
HETATM   23  C15 UNL     1     -41.729  17.384 -22.429  1.00  0.00     0.012 C 
ENDBRANCH  20  21
BRANCH  20  24
HETATM   24  C16 UNL     1     -40.593  16.323 -19.255  1.00  0.00     0.238 C 
BRANCH  24  25
HETATM   25  O5  UNL     1     -40.342  17.735 -19.187  1.00  0.00    -0.375 OA
ATOM     26  H5  UNL     1     -40.620  18.079 -20.029  1.00  0.00     0.212 HD
ENDBRANCH  24  25
BRANCH  24  27
HETATM   27  N3  UNL     1     -39.703  15.653 -18.417  1.00  0.00    -0.386 N 
HETATM   28  C17 UNL     1     -39.074  16.502 -17.442  1.00  0.00     0.122 C 
HETATM   29  C18 UNL     1     -39.724  16.199 -16.077  1.00  0.00     0.056 C 
HETATM   30  C19 UNL     1     -39.138  14.896 -15.630  1.00  0.00     0.173 C 
HETATM   31  F1  UNL     1     -37.890  15.151 -15.097  1.00  0.00    -0.249 F 
HETATM   32  C20 UNL     1     -38.930  14.036 -16.861  1.00  0.00     0.056 C 
HETATM   33  C21 UNL     1     -39.974  14.353 -17.951  1.00  0.00     0.122 C 
ENDBRANCH  24  27
ENDBRANCH  20  24
ENDBRANCH   3  20
TORSDOF 11
ENDMDL
MODEL 2
REMARK VINA RESULT: -7.108161077      1.792      2.462
REMARK  11 active torsions:
REMARK  status: ('A' for Active; 'I' for Inactive)
REMARK    1  A    between atoms: C2_2  and  C4_4 
REMARK    2  A    between atoms: C4_4  and  N1_5 
REMARK       I    between atoms: N1_5  and  C5_6 
REMARK    3  A    between atoms: C5_6  and  O2_8 
REMARK    4  A    between atoms: O2_8  and  C6_9 
REMARK    5  A    between atoms: C10_13  and  O3_14 
REMARK    6  A    between atoms: C10_13  and  C11_16 
REMARK       I    between atoms: C11_16  and  N2_18 
REMARK    7  A    between atoms: N2_18  and  C12_20 
REMARK    8  A    between atoms: C12_20  and  C13_21 
REMARK    9  A    between atoms: C12_20  and  C16_24 
REMARK   10  A    between atoms: C16_24  and  O5_25 
REMARK   11  A    between atoms: C16_24  and  N3_27 
ROOT
HETATM    1  C11 UNL     1     -43.277  14.607 -20.101  1.00  0.00     0.278 C 
HETATM    2  O4  UNL     1     -43.008  13.486 -19.682  1.00  0.00    -0.265 OA
HETATM    3  N2  UNL     1     -42.185  15.527 -20.192  1.00  0.00    -0.346 N 
ATOM      4  H2  UNL     1     -42.446  16.450 -20.540  1.00  0.00     0.163 HD
ENDROOT
BRANCH   1   5
HETATM    5  C10 UNL     1     -44.574  15.047 -20.510  1.00  0.00     0.171 C 
HETATM    6  C4  UNL     1     -45.132  15.651 -21.676  1.00  0.00     0.133 C 
BRANCH   6   7
HETATM    7  C2  UNL     1     -44.661  15.493 -23.053  1.00  0.00     0.045 C 
HETATM    8  C1  UNL     1     -45.204  16.261 -24.179  1.00  0.00     0.017 C 
HETATM    9  C3  UNL     1     -44.954  13.992 -23.418  1.00  0.00     0.017 C 
ENDBRANCH   6   7
BRANCH   6  10
HETATM   10  N1  UNL     1     -46.595  15.645 -21.695  1.00  0.00    -0.347 NA
HETATM   11  C5  UNL     1     -47.911  15.654 -21.752  1.00  0.00     0.441 C 
HETATM   12  O1  UNL     1     -48.662  16.011 -22.724  1.00  0.00    -0.221 OA
BRANCH  11  13
HETATM   13  O2  UNL     1     -48.725  15.232 -20.642  1.00  0.00    -0.282 OA
BRANCH  13  14
HETATM   14  C6  UNL     1     -49.035  13.935 -20.323  1.00  0.00     0.062 C 
HETATM   15  C7  UNL     1     -48.301  12.873 -21.078  1.00  0.00     0.046 C 
HETATM   16  C8  UNL     1     -50.527  13.626 -20.426  1.00  0.00     0.046 C 
HETATM   17  C9  UNL     1     -48.683  13.748 -18.840  1.00  0.00     0.046 C 
ENDBRANCH  13  14
ENDBRANCH  11  13
ENDBRANCH   6  10
BRANCH   5  18
HETATM   18  O3  UNL     1     -45.499  14.856 -19.552  1.00  0.00    -0.353 OA
ATOM     19  H3  UNL     1     -45.374  14.032 -19.098  1.00  0.00     0.218 HD
ENDBRANCH   5  18
ENDBRANCH   1   5
BRANCH   3  20
HETATM   20  C12 UNL     1     -40.806  15.392 -19.887  1.00  0.00     0.136 C 
BRANCH  20  21
HETATM   21  C13 UNL     1     -39.998  15.654 -21.126  1.00  0.00     0.004 C 
HETATM   22  C14 UNL     1     -38.917  14.667 -21.429  1.00  0.00     0.012 C 
HETATM   23  C15 UNL     1     -40.956  15.527 -22.351  1.00  0.00     0.012 C 
ENDBRANCH  20  21
BRANCH  20  24
HETATM   24  C16 UNL     1     -40.486  16.269 -18.719  1.00  0.00     0.238 C 
BRANCH  24  25
HETATM   25  O5  UNL     1     -40.325  17.586 -19.268  1.00  0.00    -0.375 OA
ATOM     26  H5  UNL     1     -39.558  17.945 -18.837  1.00  0.00     0.212 HD
ENDBRANCH  24  25
BRANCH  24  27
HETATM   27  N3  UNL     1     -39.389  15.964 -17.915  1.00  0.00    -0.386 N 
HETATM   28  C17 UNL     1     -39.035  17.012 -16.997  1.00  0.00     0.122 C 
HETATM   29  C18 UNL     1     -39.488  16.567 -15.591  1.00  0.00     0.056 C 
HETATM   30  C19 UNL     1     -38.486  15.549 -15.145  1.00  0.00     0.173 C 
HETATM   31  F1  UNL     1     -37.370  16.222 -14.688  1.00  0.00    -0.249 F 
HETATM   32  C20 UNL     1     -38.058  14.756 -16.364  1.00  0.00     0.056 C 
HETATM   33  C21 UNL     1     -39.195  14.667 -17.404  1.00  0.00     0.122 C 
ENDBRANCH  24  27
ENDBRANCH  20  24
ENDBRANCH   3  20
TORSDOF 11
ENDMDL
MODEL 3
REMARK VINA RESULT: -7.024516282      1.794      2.300
REMARK  11 active torsions:
REMARK  status: ('A' for Active; 'I' for Inactive)
REMARK    1  A    between atoms: C2_2  and  C4_4 
REMARK    2  A    between atoms: C4_4  and  N1_5 
REMARK       I    between atoms: N1_5  and  C5_6 
REMARK    3  A    between atoms: C5_6  and  O2_8 
REMARK    4  A    between atoms: O2_8  and  C6_9 
REMARK    5  A    between atoms: C10_13  and  O3_14 
REMARK    6  A    between atoms: C10_13  and  C11_16 
REMARK       I    between atoms: C11_16  and  N2_18 
REMARK    7  A    between atoms: N2_18  and  C12_20 
REMARK    8  A    between atoms: C12_20  and  C13_21 
REMARK    9  A    between atoms: C12_20  and  C16_24 
REMARK   10  A    between atoms: C16_24  and  O5_25 
REMARK   11  A    between atoms: C16_24  and  N3_27 
ROOT
HETATM    1  C11 UNL     1     -43.639  13.956 -19.874  1.00  0.00     0.278 C 
HETATM    2  O4  UNL     1     -43.047  12.890 -19.745  1.00  0.00    -0.265 OA
HETATM    3  N2  UNL     1     -42.827  15.105 -20.131  1.00  0.00    -0.346 N 
ATOM      4  H2  UNL     1     -43.353  15.973 -20.229  1.00  0.00     0.163 HD
ENDROOT
BRANCH   1   5
HETATM    5  C10 UNL     1     -45.057  14.127 -19.802  1.00  0.00     0.171 C 
HETATM    6  C4  UNL     1     -46.047  14.819 -20.561  1.00  0.00     0.133 C 
BRANCH   6   7
HETATM    7  C2  UNL     1     -46.002  15.114 -21.994  1.00  0.00     0.045 C 
HETATM    8  C1  UNL     1     -47.048  15.873 -22.689  1.00  0.00     0.017 C 
HETATM    9  C3  UNL     1     -45.991  13.711 -22.703  1.00  0.00     0.017 C 
ENDBRANCH   6   7
BRANCH   6  10
HETATM   10  N1  UNL     1     -47.418  14.438 -20.221  1.00  0.00    -0.347 NA
HETATM   11  C5  UNL     1     -48.637  14.073 -19.881  1.00  0.00     0.441 C 
HETATM   12  O1  UNL     1     -49.001  13.325 -18.909  1.00  0.00    -0.221 OA
BRANCH  11  13
HETATM   13  O2  UNL     1     -49.796  14.505 -20.619  1.00  0.00    -0.282 OA
BRANCH  13  14
HETATM   14  C6  UNL     1     -50.357  13.850 -21.685  1.00  0.00     0.062 C 
HETATM   15  C7  UNL     1     -49.638  12.630 -22.167  1.00  0.00     0.046 C 
HETATM   16  C8  UNL     1     -50.593  14.754 -22.894  1.00  0.00     0.046 C 
HETATM   17  C9  UNL     1     -51.753  13.394 -21.240  1.00  0.00     0.046 C 
ENDBRANCH  13  14
ENDBRANCH  11  13
ENDBRANCH   6  10
BRANCH   5  18
HETATM   18  O3  UNL     1     -45.592  13.483 -18.748  1.00  0.00    -0.353 OA
ATOM     19  H3  UNL     1     -46.422  13.862 -18.486  1.00  0.00     0.218 HD
ENDBRANCH   5  18
ENDBRANCH   1   5
BRANCH   3  20
HETATM   20  C12 UNL     1     -41.424  15.259 -20.276  1.00  0.00     0.136 C 
BRANCH  20  21
HETATM   21  C13 UNL     1     -41.128  15.857 -21.622  1.00  0.00     0.004 C 
HETATM   22  C14 UNL     1     -40.555  14.928 -22.644  1.00  0.00     0.012 C 
HETATM   23  C15 UNL     1     -42.487  16.294 -22.253  1.00  0.00     0.012 C 
ENDBRANCH  20  21
BRANCH  20  24
HETATM   24  C16 UNL     1     -40.905  16.033 -19.105  1.00  0.00     0.238 C 
BRANCH  24  25
HETATM   25  O5  UNL     1     -40.492  17.298 -19.642  1.00  0.00    -0.375 OA
ATOM     26  H5  UNL     1     -40.873  17.338 -20.512  1.00  0.00     0.212 HD
ENDBRANCH  24  25
BRANCH  24  27
HETATM   27  N3  UNL     1     -39.875  15.497 -18.334  1.00  0.00    -0.386 N 
HETATM   28  C17 UNL     1     -39.239  16.455 -17.473  1.00  0.00     0.122 C 
HETATM   29  C18 UNL     1     -39.717  16.173 -16.034  1.00  0.00     0.056 C 
HETATM   30  C19 UNL     1     -38.966  14.958 -15.588  1.00  0.00     0.173 C 
HETATM   31  F1  UNL     1     -37.701  15.357 -15.202  1.00  0.00    -0.249 F 
HETATM   32  C20 UNL     1     -38.798  14.050 -16.791  1.00  0.00     0.056 C 
HETATM   33  C21 UNL     1     -39.971  14.206 -17.780  1.00  0.00     0.122 C 
ENDBRANCH  24  27
ENDBRANCH  20  24
ENDBRANCH   3  20
TORSDOF 11
ENDMDL
MODEL 4
REMARK VINA RESULT: -7.008172242      1.920      2.290
REMARK  11 active torsions:
REMARK  status: ('A' for Active; 'I' for Inactive)
REMARK    1  A    between atoms: C2_2  and  C4_4 
REMARK    2  A    between atoms: C4_4  and  N1_5 
REMARK       I    between atoms: N1_5  and  C5_6 
REMARK    3  A    between atoms: C5_6  and  O2_8 
REMARK    4  A    between atoms: O2_8  and  C6_9 
REMARK    5  A    between atoms: C10_13  and  O3_14 
REMARK    6  A    between atoms: C10_13  and  C11_16 
REMARK       I    between atoms: C11_16  and  N2_18 
REMARK    7  A    between atoms: N2_18  and  C12_20 
REMARK    8  A    between atoms: C12_20  and  C13_21 
REMARK    9  A    between atoms: C12_20  and  C16_24 
REMARK   10  A    between atoms: C16_24  and  O5_25 
REMARK   11  A    between atoms: C16_24  and  N3_27 
ROOT
HETATM    1  C11 UNL     1     -42.853  14.864 -23.067  1.00  0.00     0.278 C 
HETATM    2  O4  UNL     1     -41.877  14.372 -23.623  1.00  0.00    -0.265 OA
HETATM    3  N2  UNL     1     -42.685  16.187 -22.548  1.00  0.00    -0.346 N 
ATOM      4  H2  UNL     1     -43.515  16.562 -22.090  1.00  0.00     0.163 HD
ENDROOT
BRANCH   1   5
HETATM    5  C10 UNL     1     -44.126  14.230 -22.917  1.00  0.00     0.171 C 
HETATM    6  C4  UNL     1     -44.925  13.780 -21.826  1.00  0.00     0.133 C 
BRANCH   6   7
HETATM    7  C2  UNL     1     -44.953  14.339 -20.473  1.00  0.00     0.045 C 
HETATM    8  C1  UNL     1     -45.645  13.691 -19.352  1.00  0.00     0.017 C 
HETATM    9  C3  UNL     1     -45.658  15.737 -20.621  1.00  0.00     0.017 C 
ENDBRANCH   6   7
BRANCH   6  10
HETATM   10  N1  UNL     1     -46.299  13.444 -22.205  1.00  0.00    -0.347 NA
HETATM   11  C5  UNL     1     -47.525  13.101 -22.540  1.00  0.00     0.441 C 
HETATM   12  O1  UNL     1     -48.024  11.927 -22.635  1.00  0.00    -0.221 OA
BRANCH  11  13
HETATM   13  O2  UNL     1     -48.528  14.081 -22.867  1.00  0.00    -0.282 OA
BRANCH  13  14
HETATM   14  C6  UNL     1     -49.321  14.747 -21.968  1.00  0.00     0.062 C 
HETATM   15  C7  UNL     1     -49.179  14.345 -20.534  1.00  0.00     0.046 C 
HETATM   16  C8  UNL     1     -50.807  14.694 -22.317  1.00  0.00     0.046 C 
HETATM   17  C9  UNL     1     -48.936  16.231 -22.053  1.00  0.00     0.046 C 
ENDBRANCH  13  14
ENDBRANCH  11  13
ENDBRANCH   6  10
BRANCH   5  18
HETATM   18  O3  UNL     1     -44.712  13.986 -24.104  1.00  0.00    -0.353 OA
ATOM     19  H3  UNL     1     -44.399  14.573 -24.782  1.00  0.00     0.218 HD
ENDBRANCH   5  18
ENDBRANCH   1   5
BRANCH   3  20
HETATM   20  C12 UNL     1     -41.576  17.071 -22.554  1.00  0.00     0.136 C 
BRANCH  20  21
HETATM   21  C13 UNL     1     -41.925  18.297 -23.350  1.00  0.00     0.004 C 
HETATM   22  C14 UNL     1     -41.804  18.174 -24.835  1.00  0.00     0.012 C 
HETATM   23  C15 UNL     1     -43.444  18.582 -23.134  1.00  0.00     0.012 C 
ENDBRANCH  20  21
BRANCH  20  24
HETATM   24  C16 UNL     1     -41.161  17.326 -21.139  1.00  0.00     0.238 C 
BRANCH  24  25
HETATM   25  O5  UNL     1     -40.488  18.593 -21.165  1.00  0.00    -0.375 OA
ATOM     26  H5  UNL     1     -41.174  19.244 -21.074  1.00  0.00     0.212 HD
ENDBRANCH  24  25
BRANCH  24  27
HETATM   27  N3  UNL     1     -40.365  16.390 -20.482  1.00  0.00    -0.386 N 
HETATM   28  C17 UNL     1     -40.957  15.870 -19.279  1.00  0.00     0.122 C 
HETATM   29  C18 UNL     1     -41.431  14.434 -19.580  1.00  0.00     0.056 C 
HETATM   30  C19 UNL     1     -40.194  13.591 -19.588  1.00  0.00     0.173 C 
HETATM   31  F1  UNL     1     -39.858  13.318 -18.277  1.00  0.00    -0.249 F 
HETATM   32  C20 UNL     1     -39.070  14.425 -20.171  1.00  0.00     0.056 C 
HETATM   33  C21 UNL     1     -39.602  15.447 -21.196  1.00  0.00     0.122 C 
ENDBRANCH  24  27
ENDBRANCH  20  24
ENDBRANCH   3  20
TORSDOF 11
ENDMDL
MODEL 5
REMARK VINA RESULT: -7.006369455      2.802      7.540
REMARK  11 active torsions:
REMARK  status: ('A' for Active; 'I' for Inactive)
REMARK    1  A    between atoms: C2_2  and  C4_4 
REMARK    2  A    between atoms: C4_4  and  N1_5 
REMARK       I    between atoms: N1_5  and  C5_6 
REMARK    3  A    between atoms: C5_6  and  O2_8 
REMARK    4  A    between atoms: O2_8  and  C6_9 
REMARK    5  A    between atoms: C10_13  and  O3_14 
REMARK    6  A    between atoms: C10_13  and  C11_16 
REMARK       I    between atoms: C11_16  and  N2_18 
REMARK    7  A    between atoms: N2_18  and  C12_20 
REMARK    8  A    between atoms: C12_20  and  C13_21 
REMARK    9  A    between atoms: C12_20  and  C16_24 
REMARK   10  A    between atoms: C16_24  and  O5_25 
REMARK   11  A    between atoms: C16_24  and  N3_27 
ROOT
HETATM    1  C11 UNL     1     -42.553  13.469 -21.108  1.00  0.00     0.278 C 
HETATM    2  O4  UNL     1     -42.406  12.813 -22.134  1.00  0.00    -0.265 OA
HETATM    3  N2  UNL     1     -43.553  14.490 -21.148  1.00  0.00    -0.346 N 
ATOM      4  H2  UNL     1     -43.644  15.017 -20.279  1.00  0.00     0.163 HD
ENDROOT
BRANCH   1   5
HETATM    5  C10 UNL     1     -41.820  13.280 -19.895  1.00  0.00     0.171 C 
HETATM    6  C4  UNL     1     -40.547  13.680 -19.392  1.00  0.00     0.133 C 
BRANCH   6   7
HETATM    7  C2  UNL     1     -39.812  14.897 -19.742  1.00  0.00     0.045 C 
HETATM    8  C1  UNL     1     -40.459  16.204 -19.905  1.00  0.00     0.017 C 
HETATM    9  C3  UNL     1     -39.161  14.598 -21.141  1.00  0.00     0.017 C 
ENDBRANCH   6   7
BRANCH   6  10
HETATM   10  N1  UNL     1     -40.386  13.452 -17.955  1.00  0.00    -0.347 NA
HETATM   11  C5  UNL     1     -40.247  13.205 -16.670  1.00  0.00     0.441 C 
HETATM   12  O1  UNL     1     -40.314  12.079 -16.065  1.00  0.00    -0.221 OA
BRANCH  11  13
HETATM   13  O2  UNL     1     -39.983  14.251 -15.716  1.00  0.00    -0.282 OA
BRANCH  13  14
HETATM   14  C6  UNL     1     -39.086  15.274 -15.877  1.00  0.00     0.062 C 
HETATM   15  C7  UNL     1     -39.637  16.564 -16.397  1.00  0.00     0.046 C 
HETATM   16  C8  UNL     1     -37.890  14.898 -16.750  1.00  0.00     0.046 C 
HETATM   17  C9  UNL     1     -38.498  15.571 -14.490  1.00  0.00     0.046 C 
ENDBRANCH  13  14
ENDBRANCH  11  13
ENDBRANCH   6  10
BRANCH   5  18
HETATM   18  O3  UNL     1     -42.495  12.524 -19.009  1.00  0.00    -0.353 OA
ATOM     19  H3  UNL     1     -42.371  11.596 -19.169  1.00  0.00     0.218 HD
ENDBRANCH   5  18
ENDBRANCH   1   5
BRANCH   3  20
HETATM   20  C12 UNL     1     -44.442  14.905 -22.172  1.00  0.00     0.136 C 
BRANCH  20  21
HETATM   21  C13 UNL     1     -45.590  15.654 -21.558  1.00  0.00     0.004 C 
HETATM   22  C14 UNL     1     -46.921  15.474 -22.215  1.00  0.00     0.012 C 
HETATM   23  C15 UNL     1     -45.815  15.079 -20.125  1.00  0.00     0.012 C 
ENDBRANCH  20  21
BRANCH  20  24
HETATM   24  C16 UNL     1     -43.664  15.662 -23.202  1.00  0.00     0.238 C 
BRANCH  24  25
HETATM   25  O5  UNL     1     -43.191  14.670 -24.125  1.00  0.00    -0.375 OA
ATOM     26  H5  UNL     1     -43.963  14.381 -24.599  1.00  0.00     0.212 HD
ENDBRANCH  24  25
BRANCH  24  27
HETATM   27  N3  UNL     1     -42.599  16.467 -22.798  1.00  0.00    -0.386 N 
HETATM   28  C17 UNL     1     -41.360  16.159 -23.458  1.00  0.00     0.122 C 
HETATM   29  C18 UNL     1     -41.092  17.276 -24.486  1.00  0.00     0.056 C 
HETATM   30  C19 UNL     1     -40.622  18.454 -23.692  1.00  0.00     0.173 C 
HETATM   31  F1  UNL     1     -39.286  18.262 -23.397  1.00  0.00    -0.249 F 
HETATM   32  C20 UNL     1     -41.373  18.454 -22.375  1.00  0.00     0.056 C 
HETATM   33  C21 UNL     1     -42.778  17.837 -22.530  1.00  0.00     0.122 C 
ENDBRANCH  24  27
ENDBRANCH  20  24
ENDBRANCH   3  20
TORSDOF 11
ENDMDL
