MODEL 1
REMARK VINA RESULT: -6.894096708      0.000      0.000
REMARK  10 active torsions:
REMARK  status: ('A' for Active; 'I' for Inactive)
REMARK    1  A    between atoms: C3_5  and  C4_6 
REMARK    2  A    between atoms: C4_6  and  N2_7 
REMARK    3  A    between atoms: N2_7  and  C5_9 
REMARK    4  A    between atoms: C5_9  and  N3_11 
REMARK    5  A    between atoms: N3_11  and  C6_13 
REMARK    6  A    between atoms: C6_13  and  C7_14 
REMARK    7  A    between atoms: C7_14  and  N4_15 
REMARK    8  A    between atoms: N4_15  and  C8_17 
REMARK    9  A    between atoms: C8_17  and  C9_18 
REMARK       I    between atoms: N5_22  and  C12_23 
REMARK   10  A    between atoms: C12_23  and  C13_25 
ROOT
HETATM    1  C7  UNL     1     -40.759  17.338 -20.825  1.00  0.00     0.138 C 
ENDROOT
BRANCH   1   2
HETATM    2  C6  UNL     1     -41.021  16.465 -19.566  1.00  0.00     0.141 C 
BRANCH   2   3
HETATM    3  N3  UNL     1     -40.373  17.003 -18.432  1.00  0.00    -0.366 N 
ATOM      4  H3  UNL     1     -40.538  18.002 -18.305  1.00  0.00     0.161 HD
BRANCH   3   5
HETATM    5  C5  UNL     1     -39.565  16.455 -17.466  1.00  0.00     0.167 C 
HETATM    6  S1  UNL     1     -39.598  17.237 -15.940  1.00  0.00    -0.041 SA
BRANCH   5   7
HETATM    7  N2  UNL     1     -38.705  15.370 -17.475  1.00  0.00    -0.362 N 
ATOM      8  H2  UNL     1     -37.721  15.605 -17.606  1.00  0.00     0.162 HD
BRANCH   7   9
HETATM    9  C4  UNL     1     -38.971  13.983 -17.330  1.00  0.00     0.179 C 
BRANCH   9  10
HETATM   10  C3  UNL     1     -39.653  13.443 -18.593  1.00  0.00     0.034 A 
HETATM   11  N1  UNL     1     -39.137  13.643 -19.769  1.00  0.00    -0.356 N 
HETATM   12  C2  UNL     1     -39.751  13.181 -20.845  1.00  0.00     0.047 A 
ATOM     13  H1  UNL     1     -38.261  14.157 -19.862  1.00  0.00     0.166 HD
HETATM   14  C1  UNL     1     -39.315  13.316 -22.290  1.00  0.00     0.076 C 
HETATM   15  S2  UNL     1     -41.130  12.419 -20.183  1.00  0.00    -0.087 SA
HETATM   16  C19 UNL     1     -40.828  12.748 -18.535  1.00  0.00     0.078 A 
ENDBRANCH   9  10
ENDBRANCH   7   9
ENDBRANCH   5   7
ENDBRANCH   3   5
ENDBRANCH   2   3
ENDBRANCH   1   2
BRANCH   1  17
HETATM   17  N4  UNL     1     -41.051  16.600 -21.998  1.00  0.00    -0.398 N 
ATOM     18  H4  UNL     1     -40.447  15.831 -22.289  1.00  0.00     0.158 HD
BRANCH  17  19
HETATM   19  C8  UNL     1     -42.181  16.942 -22.754  1.00  0.00     0.099 C 
BRANCH  19  20
HETATM   20  C9  UNL     1     -43.441  16.199 -22.657  1.00  0.00     0.138 C 
HETATM   21  F1  UNL     1     -44.286  16.997 -21.821  1.00  0.00    -0.237 F 
HETATM   22  C10 UNL     1     -44.205  16.152 -23.958  1.00  0.00     0.069 C 
HETATM   23  C11 UNL     1     -45.705  15.883 -23.615  1.00  0.00     0.129 C 
HETATM   24  N5  UNL     1     -45.635  14.967 -22.480  1.00  0.00    -0.352 N 
HETATM   25  C12 UNL     1     -46.619  15.032 -21.481  1.00  0.00     0.224 C 
HETATM   26  C17 UNL     1     -44.542  14.041 -22.428  1.00  0.00     0.129 C 
HETATM   27  O1  UNL     1     -47.572  15.875 -21.532  1.00  0.00    -0.273 OA
HETATM   28  C18 UNL     1     -43.283  14.846 -22.056  1.00  0.00     0.069 C 
BRANCH  25  29
HETATM   29  C13 UNL     1     -46.591  14.126 -20.330  1.00  0.00     0.078 C 
HETATM   30  C14 UNL     1     -47.790  14.126 -19.413  1.00  0.00     0.014 C 
HETATM   31  C15 UNL     1     -46.792  13.985 -18.246  1.00  0.00     0.002 C 
HETATM   32  C16 UNL     1     -45.763  14.616 -19.159  1.00  0.00     0.014 C 
ENDBRANCH  25  29
ENDBRANCH  19  20
ENDBRANCH  17  19
ENDBRANCH   1  17
TORSDOF 10
ENDMDL
MODEL 2
REMARK VINA RESULT: -6.826196353      1.065      3.044
REMARK  10 active torsions:
REMARK  status: ('A' for Active; 'I' for Inactive)
REMARK    1  A    between atoms: C3_5  and  C4_6 
REMARK    2  A    between atoms: C4_6  and  N2_7 
REMARK    3  A    between atoms: N2_7  and  C5_9 
REMARK    4  A    between atoms: C5_9  and  N3_11 
REMARK    5  A    between atoms: N3_11  and  C6_13 
REMARK    6  A    between atoms: C6_13  and  C7_14 
REMARK    7  A    between atoms: C7_14  and  N4_15 
REMARK    8  A    between atoms: N4_15  and  C8_17 
REMARK    9  A    between atoms: C8_17  and  C9_18 
REMARK       I    between atoms: N5_22  and  C12_23 
REMARK   10  A    between atoms: C12_23  and  C13_25 
ROOT
HETATM    1  C7  UNL     1     -40.436  16.915 -21.186  1.00  0.00     0.138 C 
ENDROOT
BRANCH   1   2
HETATM    2  C6  UNL     1     -39.527  16.219 -22.235  1.00  0.00     0.141 C 
BRANCH   2   3
HETATM    3  N3  UNL     1     -38.877  15.095 -21.678  1.00  0.00    -0.366 N 
ATOM      4  H3  UNL     1     -37.862  15.121 -21.778  1.00  0.00     0.161 HD
BRANCH   3   5
HETATM    5  C5  UNL     1     -39.334  13.975 -21.027  1.00  0.00     0.167 C 
HETATM    6  S1  UNL     1     -40.007  12.757 -22.029  1.00  0.00    -0.041 SA
BRANCH   5   7
HETATM    7  N2  UNL     1     -39.364  13.621 -19.688  1.00  0.00    -0.362 N 
ATOM      8  H2  UNL     1     -38.549  13.100 -19.366  1.00  0.00     0.162 HD
BRANCH   7   9
HETATM    9  C4  UNL     1     -40.346  13.867 -18.692  1.00  0.00     0.179 C 
BRANCH   9  10
HETATM   10  C3  UNL     1     -39.727  14.646 -17.525  1.00  0.00     0.034 A 
HETATM   11  N1  UNL     1     -39.487  15.919 -17.623  1.00  0.00    -0.356 N 
HETATM   12  C2  UNL     1     -38.940  16.567 -16.608  1.00  0.00     0.047 A 
ATOM     13  H1  UNL     1     -39.719  16.418 -18.482  1.00  0.00     0.166 HD
HETATM   14  C1  UNL     1     -38.581  18.037 -16.533  1.00  0.00     0.076 C 
HETATM   15  S2  UNL     1     -38.748  15.330 -15.444  1.00  0.00    -0.087 SA
HETATM   16  C19 UNL     1     -39.394  14.034 -16.349  1.00  0.00     0.078 A 
ENDBRANCH   9  10
ENDBRANCH   7   9
ENDBRANCH   5   7
ENDBRANCH   3   5
ENDBRANCH   2   3
ENDBRANCH   1   2
BRANCH   1  17
HETATM   17  N4  UNL     1     -41.571  17.478 -21.821  1.00  0.00    -0.398 N 
ATOM     18  H4  UNL     1     -41.950  18.371 -21.506  1.00  0.00     0.158 HD
BRANCH  17  19
HETATM   19  C8  UNL     1     -42.163  16.790 -22.889  1.00  0.00     0.099 C 
BRANCH  19  20
HETATM   20  C9  UNL     1     -43.446  16.092 -22.755  1.00  0.00     0.138 C 
HETATM   21  F1  UNL     1     -44.235  16.917 -21.891  1.00  0.00    -0.237 F 
HETATM   22  C10 UNL     1     -44.251  16.076 -24.032  1.00  0.00     0.069 C 
HETATM   23  C11 UNL     1     -45.749  15.860 -23.642  1.00  0.00     0.129 C 
HETATM   24  N5  UNL     1     -45.676  14.938 -22.511  1.00  0.00    -0.352 N 
HETATM   25  C12 UNL     1     -46.626  15.035 -21.482  1.00  0.00     0.224 C 
HETATM   26  C17 UNL     1     -44.616  13.974 -22.496  1.00  0.00     0.129 C 
HETATM   27  O1  UNL     1     -47.548  15.911 -21.501  1.00  0.00    -0.273 OA
HETATM   28  C18 UNL     1     -43.317  14.732 -22.162  1.00  0.00     0.069 C 
BRANCH  25  29
HETATM   29  C13 UNL     1     -46.594  14.125 -20.334  1.00  0.00     0.078 C 
HETATM   30  C14 UNL     1     -47.784  14.133 -19.406  1.00  0.00     0.014 C 
HETATM   31  C15 UNL     1     -46.775  13.979 -18.249  1.00  0.00     0.002 C 
HETATM   32  C16 UNL     1     -45.750  14.603 -19.170  1.00  0.00     0.014 C 
ENDBRANCH  25  29
ENDBRANCH  19  20
ENDBRANCH  17  19
ENDBRANCH   1  17
TORSDOF 10
ENDMDL
MODEL 3
REMARK VINA RESULT: -6.745115999      3.494      7.690
REMARK  10 active torsions:
REMARK  status: ('A' for Active; 'I' for Inactive)
REMARK    1  A    between atoms: C3_5  and  C4_6 
REMARK    2  A    between atoms: C4_6  and  N2_7 
REMARK    3  A    between atoms: N2_7  and  C5_9 
REMARK    4  A    between atoms: C5_9  and  N3_11 
REMARK    5  A    between atoms: N3_11  and  C6_13 
REMARK    6  A    between atoms: C6_13  and  C7_14 
REMARK    7  A    between atoms: C7_14  and  N4_15 
REMARK    8  A    between atoms: N4_15  and  C8_17 
REMARK    9  A    between atoms: C8_17  and  C9_18 
REMARK       I    between atoms: N5_22  and  C12_23 
REMARK   10  A    between atoms: C12_23  and  C13_25 
ROOT
HETATM    1  C7  UNL     1     -45.459  13.573 -19.793  1.00  0.00     0.138 C 
ENDROOT
BRANCH   1   2
HETATM    2  C6  UNL     1     -46.354  14.082 -18.629  1.00  0.00     0.141 C 
BRANCH   2   3
HETATM    3  N3  UNL     1     -47.665  13.569 -18.736  1.00  0.00    -0.366 N 
ATOM      4  H3  UNL     1     -47.910  12.919 -17.988  1.00  0.00     0.161 HD
BRANCH   3   5
HETATM    5  C5  UNL     1     -48.678  13.766 -19.642  1.00  0.00     0.167 C 
HETATM    6  S1  UNL     1     -50.039  12.737 -19.470  1.00  0.00    -0.041 SA
BRANCH   5   7
HETATM    7  N2  UNL     1     -48.826  14.650 -20.698  1.00  0.00    -0.362 N 
ATOM      8  H2  UNL     1     -48.833  15.635 -20.433  1.00  0.00     0.162 HD
BRANCH   7   9
HETATM    9  C4  UNL     1     -48.967  14.408 -22.090  1.00  0.00     0.179 C 
BRANCH   9  10
HETATM   10  C3  UNL     1     -47.587  14.315 -22.751  1.00  0.00     0.034 A 
HETATM   11  N1  UNL     1     -46.888  15.384 -22.993  1.00  0.00    -0.356 N 
HETATM   12  C2  UNL     1     -45.706  15.280 -23.577  1.00  0.00     0.047 A 
ATOM     13  H1  UNL     1     -47.251  16.301 -22.733  1.00  0.00     0.166 HD
HETATM   14  C1  UNL     1     -44.753  16.400 -23.944  1.00  0.00     0.076 C 
HETATM   15  S2  UNL     1     -45.555  13.593 -23.804  1.00  0.00    -0.087 SA
HETATM   16  C19 UNL     1     -47.047  13.116 -23.123  1.00  0.00     0.078 A 
ENDBRANCH   9  10
ENDBRANCH   7   9
ENDBRANCH   5   7
ENDBRANCH   3   5
ENDBRANCH   2   3
ENDBRANCH   1   2
BRANCH   1  17
HETATM   17  N4  UNL     1     -44.491  14.552 -20.127  1.00  0.00    -0.398 N 
ATOM     18  H4  UNL     1     -44.645  15.533 -19.891  1.00  0.00     0.158 HD
BRANCH  17  19
HETATM   19  C8  UNL     1     -43.320  14.154 -20.787  1.00  0.00     0.099 C 
BRANCH  19  20
HETATM   20  C9  UNL     1     -41.985  14.465 -20.268  1.00  0.00     0.138 C 
HETATM   21  F1  UNL     1     -41.723  13.465 -19.277  1.00  0.00    -0.237 F 
HETATM   22  C10 UNL     1     -40.886  14.234 -21.277  1.00  0.00     0.069 C 
HETATM   23  C11 UNL     1     -39.555  14.027 -20.484  1.00  0.00     0.129 C 
HETATM   24  N5  UNL     1     -39.682  14.949 -19.359  1.00  0.00    -0.352 N 
HETATM   25  C12 UNL     1     -39.118  14.605 -18.120  1.00  0.00     0.224 C 
HETATM   26  C17 UNL     1     -40.398  16.173 -19.569  1.00  0.00     0.129 C 
HETATM   27  O1  UNL     1     -38.504  13.505 -17.945  1.00  0.00    -0.273 OA
HETATM   28  C18 UNL     1     -41.894  15.815 -19.647  1.00  0.00     0.069 C 
BRANCH  25  29
HETATM   29  C13 UNL     1     -39.216  15.505 -16.968  1.00  0.00     0.078 C 
HETATM   30  C14 UNL     1     -37.940  16.137 -16.468  1.00  0.00     0.014 C 
HETATM   31  C15 UNL     1     -38.490  15.921 -15.043  1.00  0.00     0.002 C 
HETATM   32  C16 UNL     1     -39.333  14.807 -15.628  1.00  0.00     0.014 C 
ENDBRANCH  25  29
ENDBRANCH  19  20
ENDBRANCH  17  19
ENDBRANCH   1  17
TORSDOF 10
ENDMDL
MODEL 4
REMARK VINA RESULT: -6.728210527      3.520      7.465
REMARK  10 active torsions:
REMARK  status: ('A' for Active; 'I' for Inactive)
REMARK    1  A    between atoms: C3_5  and  C4_6 
REMARK    2  A    between atoms: C4_6  and  N2_7 
REMARK    3  A    between atoms: N2_7  and  C5_9 
REMARK    4  A    between atoms: C5_9  and  N3_11 
REMARK    5  A    between atoms: N3_11  and  C6_13 
REMARK    6  A    between atoms: C6_13  and  C7_14 
REMARK    7  A    between atoms: C7_14  and  N4_15 
REMARK    8  A    between atoms: N4_15  and  C8_17 
REMARK    9  A    between atoms: C8_17  and  C9_18 
REMARK       I    between atoms: N5_22  and  C12_23 
REMARK   10  A    between atoms: C12_23  and  C13_25 
ROOT
HETATM    1  C7  UNL     1     -45.372  13.658 -19.572  1.00  0.00     0.138 C 
ENDROOT
BRANCH   1   2
HETATM    2  C6  UNL     1     -46.700  13.625 -20.379  1.00  0.00     0.141 C 
BRANCH   2   3
HETATM    3  N3  UNL     1     -47.052  14.917 -20.828  1.00  0.00    -0.366 N 
ATOM      4  H3  UNL     1     -47.016  15.626 -20.096  1.00  0.00     0.161 HD
BRANCH   3   5
HETATM    5  C5  UNL     1     -47.435  15.412 -22.051  1.00  0.00     0.167 C 
HETATM    6  S1  UNL     1     -49.101  15.781 -22.215  1.00  0.00    -0.041 SA
BRANCH   5   7
HETATM    7  N2  UNL     1     -46.727  15.679 -23.211  1.00  0.00    -0.362 N 
ATOM      8  H2  UNL     1     -47.213  16.276 -23.881  1.00  0.00     0.162 HD
BRANCH   7   9
HETATM    9  C4  UNL     1     -45.434  15.258 -23.619  1.00  0.00     0.179 C 
BRANCH   9  10
HETATM   10  C3  UNL     1     -44.535  16.477 -23.861  1.00  0.00     0.034 A 
HETATM   11  N1  UNL     1     -43.693  16.876 -22.955  1.00  0.00    -0.356 N 
HETATM   12  C2  UNL     1     -42.938  17.939 -23.180  1.00  0.00     0.047 A 
ATOM     13  H1  UNL     1     -43.615  16.372 -22.073  1.00  0.00     0.166 HD
HETATM   14  C1  UNL     1     -41.911  18.557 -22.254  1.00  0.00     0.076 C 
HETATM   15  S2  UNL     1     -43.427  18.412 -24.747  1.00  0.00    -0.087 SA
HETATM   16  C19 UNL     1     -44.593  17.195 -25.022  1.00  0.00     0.078 A 
ENDBRANCH   9  10
ENDBRANCH   7   9
ENDBRANCH   5   7
ENDBRANCH   3   5
ENDBRANCH   2   3
ENDBRANCH   1   2
BRANCH   1  17
HETATM   17  N4  UNL     1     -44.446  14.531 -20.195  1.00  0.00    -0.398 N 
ATOM     18  H4  UNL     1     -44.637  15.531 -20.253  1.00  0.00     0.158 HD
BRANCH  17  19
HETATM   19  C8  UNL     1     -43.264  13.999 -20.729  1.00  0.00     0.099 C 
BRANCH  19  20
HETATM   20  C9  UNL     1     -41.939  14.365 -20.216  1.00  0.00     0.138 C 
HETATM   21  F1  UNL     1     -41.643  13.391 -19.209  1.00  0.00    -0.237 F 
HETATM   22  C10 UNL     1     -40.834  14.155 -21.222  1.00  0.00     0.069 C 
HETATM   23  C11 UNL     1     -39.496  14.007 -20.428  1.00  0.00     0.129 C 
HETATM   24  N5  UNL     1     -39.655  14.942 -19.318  1.00  0.00    -0.352 N 
HETATM   25  C12 UNL     1     -39.079  14.638 -18.074  1.00  0.00     0.224 C 
HETATM   26  C17 UNL     1     -40.412  16.137 -19.547  1.00  0.00     0.129 C 
HETATM   27  O1  UNL     1     -38.427  13.563 -17.882  1.00  0.00    -0.273 OA
HETATM   28  C18 UNL     1     -41.895  15.727 -19.617  1.00  0.00     0.069 C 
BRANCH  25  29
HETATM   29  C13 UNL     1     -39.206  15.554 -16.937  1.00  0.00     0.078 C 
HETATM   30  C14 UNL     1     -37.970  16.301 -16.502  1.00  0.00     0.014 C 
HETATM   31  C15 UNL     1     -38.444  16.072 -15.052  1.00  0.00     0.002 C 
HETATM   32  C16 UNL     1     -39.212  14.879 -15.579  1.00  0.00     0.014 C 
ENDBRANCH  25  29
ENDBRANCH  19  20
ENDBRANCH  17  19
ENDBRANCH   1  17
TORSDOF 10
ENDMDL
MODEL 5
REMARK VINA RESULT: -6.709105873      3.553      7.792
REMARK  10 active torsions:
REMARK  status: ('A' for Active; 'I' for Inactive)
REMARK    1  A    between atoms: C3_5  and  C4_6 
REMARK    2  A    between atoms: C4_6  and  N2_7 
REMARK    3  A    between atoms: N2_7  and  C5_9 
REMARK    4  A    between atoms: C5_9  and  N3_11 
REMARK    5  A    between atoms: N3_11  and  C6_13 
REMARK    6  A    between atoms: C6_13  and  C7_14 
REMARK    7  A    between atoms: C7_14  and  N4_15 
REMARK    8  A    between atoms: N4_15  and  C8_17 
REMARK    9  A    between atoms: C8_17  and  C9_18 
REMARK       I    between atoms: N5_22  and  C12_23 
REMARK   10  A    between atoms: C12_23  and  C13_25 
ROOT
HETATM    1  C7  UNL     1     -44.443  13.968 -21.383  1.00  0.00     0.138 C 
ENDROOT
BRANCH   1   2
HETATM    2  C6  UNL     1     -44.509  15.480 -21.031  1.00  0.00     0.141 C 
BRANCH   2   3
HETATM    3  N3  UNL     1     -45.134  16.214 -22.063  1.00  0.00    -0.366 N 
ATOM      4  H3  UNL     1     -44.943  17.216 -22.022  1.00  0.00     0.161 HD
BRANCH   3   5
HETATM    5  C5  UNL     1     -45.946  15.854 -23.110  1.00  0.00     0.167 C 
HETATM    6  S1  UNL     1     -45.222  15.903 -24.663  1.00  0.00    -0.041 SA
BRANCH   5   7
HETATM    7  N2  UNL     1     -47.270  15.451 -23.167  1.00  0.00    -0.362 N 
ATOM      8  H2  UNL     1     -47.469  14.734 -23.865  1.00  0.00     0.162 HD
BRANCH   7   9
HETATM    9  C4  UNL     1     -48.395  15.873 -22.411  1.00  0.00     0.179 C 
BRANCH   9  10
HETATM   10  C3  UNL     1     -48.606  14.938 -21.213  1.00  0.00     0.034 A 
HETATM   11  N1  UNL     1     -47.756  14.908 -20.231  1.00  0.00    -0.356 N 
HETATM   12  C2  UNL     1     -47.951  14.084 -19.216  1.00  0.00     0.047 A 
ATOM     13  H1  UNL     1     -46.940  15.520 -20.243  1.00  0.00     0.166 HD
HETATM   14  C1  UNL     1     -47.078  13.901 -17.991  1.00  0.00     0.076 C 
HETATM   15  S2  UNL     1     -49.406  13.301 -19.652  1.00  0.00    -0.087 SA
HETATM   16  C19 UNL     1     -49.679  14.095 -21.139  1.00  0.00     0.078 A 
ENDBRANCH   9  10
ENDBRANCH   7   9
ENDBRANCH   5   7
ENDBRANCH   3   5
ENDBRANCH   2   3
ENDBRANCH   1   2
BRANCH   1  17
HETATM   17  N4  UNL     1     -43.112  13.600 -21.701  1.00  0.00    -0.398 N 
ATOM     18  H4  UNL     1     -42.918  12.720 -22.179  1.00  0.00     0.158 HD
BRANCH  17  19
HETATM   19  C8  UNL     1     -42.065  14.464 -21.350  1.00  0.00     0.099 C 
BRANCH  19  20
HETATM   20  C9  UNL     1     -41.142  14.168 -20.249  1.00  0.00     0.138 C 
HETATM   21  F1  UNL     1     -41.852  14.521 -19.057  1.00  0.00    -0.237 F 
HETATM   22  C10 UNL     1     -40.890  12.691 -20.065  1.00  0.00     0.069 C 
HETATM   23  C11 UNL     1     -40.413  12.475 -18.593  1.00  0.00     0.129 C 
HETATM   24  N5  UNL     1     -39.597  13.655 -18.323  1.00  0.00    -0.352 N 
HETATM   25  C12 UNL     1     -39.573  14.194 -17.027  1.00  0.00     0.224 C 
HETATM   26  C17 UNL     1     -38.859  14.227 -19.410  1.00  0.00     0.129 C 
HETATM   27  O1  UNL     1     -40.251  13.686 -16.077  1.00  0.00    -0.273 OA
HETATM   28  C18 UNL     1     -39.874  14.944 -20.320  1.00  0.00     0.069 C 
BRANCH  25  29
HETATM   29  C13 UNL     1     -38.762  15.372 -16.711  1.00  0.00     0.078 C 
HETATM   30  C14 UNL     1     -38.427  15.620 -15.260  1.00  0.00     0.014 C 
HETATM   31  C15 UNL     1     -38.641  17.119 -15.554  1.00  0.00     0.002 C 
HETATM   32  C16 UNL     1     -39.524  16.683 -16.703  1.00  0.00     0.014 C 
ENDBRANCH  25  29
ENDBRANCH  19  20
ENDBRANCH  17  19
ENDBRANCH   1  17
TORSDOF 10
ENDMDL
