MODEL 1
REMARK VINA RESULT: -6.171342984      0.000      0.000
REMARK  6 active torsions:
REMARK  status: ('A' for Active; 'I' for Inactive)
REMARK    1  A    between atoms: C2_2  and  C3_3 
REMARK    2  A    between atoms: C2_2  and  C5_9 
REMARK    3  A    between atoms: C3_3  and  O1_4 
REMARK    4  A    between atoms: C3_3  and  C4_6 
REMARK    5  A    between atoms: C4_6  and  O2_7 
REMARK    6  A    between atoms: C7_12  and  O4_14 
ROOT
HETATM    1  C5  UNL     1     -15.486  -3.870  29.372  1.00  0.00     0.139 C 
HETATM    2  O3  UNL     1     -15.086  -3.911  30.731  1.00  0.00    -0.375 OA
HETATM    3  C6  UNL     1     -14.974  -5.270  30.597  1.00  0.00     0.166 C 
HETATM    4  C7  UNL     1     -13.887  -5.949  31.365  1.00  0.00     0.081 C 
HETATM    5  C8  UNL     1     -14.031  -7.445  31.142  1.00  0.00     0.049 C 
HETATM    6  C9  UNL     1     -12.506  -5.545  30.990  1.00  0.00     0.040 C 
HETATM    7  C10 UNL     1     -12.447  -4.416  30.002  1.00  0.00     0.004 C 
HETATM    8  C11 UNL     1     -13.274  -4.802  28.804  1.00  0.00     0.014 C 
HETATM    9  C12 UNL     1     -14.708  -5.090  29.150  1.00  0.00     0.012 C 
HETATM   10  C13 UNL     1     -15.259  -6.182  28.300  1.00  0.00     0.020 C 
ENDROOT
BRANCH   1  11
HETATM   11  C2  UNL     1     -16.976  -3.905  29.306  1.00  0.00     0.042 C 
HETATM   12  C1  UNL     1     -17.551  -3.617  27.964  1.00  0.00     0.015 C 
BRANCH  11  13
HETATM   13  C3  UNL     1     -17.461  -2.819  30.256  1.00  0.00     0.148 C 
BRANCH  13  14
HETATM   14  O1  UNL     1     -16.786  -1.646  29.938  1.00  0.00    -0.393 OA
ATOM     15  H1  UNL     1     -17.315  -0.916  30.238  1.00  0.00     0.210 HD
ENDBRANCH  13  14
BRANCH  13  16
HETATM   16  C4  UNL     1     -18.941  -2.576  30.126  1.00  0.00     0.196 C 
BRANCH  16  17
HETATM   17  O2  UNL     1     -19.699  -3.430  30.897  1.00  0.00    -0.398 OA
ATOM     18  H2  UNL     1     -20.383  -3.868  30.405  1.00  0.00     0.209 HD
ENDBRANCH  16  17
ENDBRANCH  13  16
ENDBRANCH  11  13
ENDBRANCH   1  11
BRANCH   4  19
HETATM   19  O4  UNL     1     -14.128  -5.703  32.730  1.00  0.00    -0.388 OA
ATOM     20  H4  UNL     1     -13.361  -5.998  33.207  1.00  0.00     0.210 HD
ENDBRANCH   4  19
TORSDOF 6
ENDMDL
MODEL 2
REMARK VINA RESULT: -6.136630942      1.783      2.780
REMARK  6 active torsions:
REMARK  status: ('A' for Active; 'I' for Inactive)
REMARK    1  A    between atoms: C2_2  and  C3_3 
REMARK    2  A    between atoms: C2_2  and  C5_9 
REMARK    3  A    between atoms: C3_3  and  O1_4 
REMARK    4  A    between atoms: C3_3  and  C4_6 
REMARK    5  A    between atoms: C4_6  and  O2_7 
REMARK    6  A    between atoms: C7_12  and  O4_14 
ROOT
HETATM    1  C5  UNL     1     -15.741  -3.884  30.343  1.00  0.00     0.139 C 
HETATM    2  O3  UNL     1     -16.187  -4.996  29.585  1.00  0.00    -0.375 OA
HETATM    3  C6  UNL     1     -15.042  -4.874  28.842  1.00  0.00     0.166 C 
HETATM    4  C7  UNL     1     -14.418  -6.132  28.331  1.00  0.00     0.081 C 
HETATM    5  C8  UNL     1     -13.240  -5.739  27.457  1.00  0.00     0.049 C 
HETATM    6  C9  UNL     1     -13.937  -7.065  29.384  1.00  0.00     0.040 C 
HETATM    7  C10 UNL     1     -14.293  -6.647  30.781  1.00  0.00     0.004 C 
HETATM    8  C11 UNL     1     -13.788  -5.244  30.989  1.00  0.00     0.014 C 
HETATM    9  C12 UNL     1     -14.367  -4.261  30.010  1.00  0.00     0.012 C 
HETATM   10  C13 UNL     1     -13.373  -3.214  29.644  1.00  0.00     0.020 C 
ENDROOT
BRANCH   1  11
HETATM   11  C2  UNL     1     -16.339  -2.640  29.774  1.00  0.00     0.042 C 
HETATM   12  C1  UNL     1     -15.982  -1.388  30.493  1.00  0.00     0.015 C 
BRANCH  11  13
HETATM   13  C3  UNL     1     -17.847  -2.816  29.882  1.00  0.00     0.148 C 
BRANCH  13  14
HETATM   14  O1  UNL     1     -18.368  -1.663  30.458  1.00  0.00    -0.393 OA
ATOM     15  H1  UNL     1     -19.288  -1.614  30.226  1.00  0.00     0.210 HD
ENDBRANCH  13  14
BRANCH  13  16
HETATM   16  C4  UNL     1     -18.488  -3.016  28.535  1.00  0.00     0.196 C 
BRANCH  16  17
HETATM   17  O2  UNL     1     -18.940  -4.303  28.336  1.00  0.00    -0.398 OA
ATOM     18  H2  UNL     1     -19.772  -4.476  28.759  1.00  0.00     0.209 HD
ENDBRANCH  16  17
ENDBRANCH  13  16
ENDBRANCH  11  13
ENDBRANCH   1  11
BRANCH   4  19
HETATM   19  O4  UNL     1     -15.367  -6.758  27.501  1.00  0.00    -0.388 OA
ATOM     20  H4  UNL     1     -15.052  -7.639  27.331  1.00  0.00     0.210 HD
ENDBRANCH   4  19
TORSDOF 6
ENDMDL
MODEL 3
REMARK VINA RESULT: -6.070538652      1.778      2.529
REMARK  6 active torsions:
REMARK  status: ('A' for Active; 'I' for Inactive)
REMARK    1  A    between atoms: C2_2  and  C3_3 
REMARK    2  A    between atoms: C2_2  and  C5_9 
REMARK    3  A    between atoms: C3_3  and  O1_4 
REMARK    4  A    between atoms: C3_3  and  C4_6 
REMARK    5  A    between atoms: C4_6  and  O2_7 
REMARK    6  A    between atoms: C7_12  and  O4_14 
ROOT
HETATM    1  C5  UNL     1     -14.971  -3.150  30.722  1.00  0.00     0.139 C 
HETATM    2  O3  UNL     1     -15.742  -4.338  30.796  1.00  0.00    -0.375 OA
HETATM    3  C6  UNL     1     -14.746  -4.958  30.088  1.00  0.00     0.166 C 
HETATM    4  C7  UNL     1     -14.463  -6.390  30.410  1.00  0.00     0.081 C 
HETATM    5  C8  UNL     1     -13.408  -6.881  29.434  1.00  0.00     0.049 C 
HETATM    6  C9  UNL     1     -13.981  -6.638  31.794  1.00  0.00     0.040 C 
HETATM    7  C10 UNL     1     -13.998  -5.422  32.675  1.00  0.00     0.004 C 
HETATM    8  C11 UNL     1     -13.217  -4.336  31.985  1.00  0.00     0.014 C 
HETATM    9  C12 UNL     1     -13.772  -3.983  30.633  1.00  0.00     0.012 C 
HETATM   10  C13 UNL     1     -12.685  -3.627  29.680  1.00  0.00     0.020 C 
ENDROOT
BRANCH   1  11
HETATM   11  C2  UNL     1     -15.424  -2.354  29.544  1.00  0.00     0.042 C 
HETATM   12  C1  UNL     1     -15.135  -0.897  29.623  1.00  0.00     0.015 C 
BRANCH  11  13
HETATM   13  C3  UNL     1     -16.936  -2.518  29.485  1.00  0.00     0.148 C 
BRANCH  13  14
HETATM   14  O1  UNL     1     -17.495  -1.616  30.383  1.00  0.00    -0.393 OA
ATOM     15  H1  UNL     1     -18.418  -1.826  30.469  1.00  0.00     0.210 HD
ENDBRANCH  13  14
BRANCH  13  16
HETATM   16  C4  UNL     1     -17.481  -2.234  28.112  1.00  0.00     0.196 C 
BRANCH  16  17
HETATM   17  O2  UNL     1     -17.767  -3.376  27.396  1.00  0.00    -0.398 OA
ATOM     18  H2  UNL     1     -17.903  -3.212  26.470  1.00  0.00     0.209 HD
ENDBRANCH  16  17
ENDBRANCH  13  16
ENDBRANCH  11  13
ENDBRANCH   1  11
BRANCH   4  19
HETATM   19  O4  UNL     1     -15.643  -7.113  30.154  1.00  0.00    -0.388 OA
ATOM     20  H4  UNL     1     -16.176  -7.067  30.939  1.00  0.00     0.210 HD
ENDBRANCH   4  19
TORSDOF 6
ENDMDL
MODEL 4
REMARK VINA RESULT: -5.951977298      1.905      3.021
REMARK  6 active torsions:
REMARK  status: ('A' for Active; 'I' for Inactive)
REMARK    1  A    between atoms: C2_2  and  C3_3 
REMARK    2  A    between atoms: C2_2  and  C5_9 
REMARK    3  A    between atoms: C3_3  and  O1_4 
REMARK    4  A    between atoms: C3_3  and  C4_6 
REMARK    5  A    between atoms: C4_6  and  O2_7 
REMARK    6  A    between atoms: C7_12  and  O4_14 
ROOT
HETATM    1  C5  UNL     1     -16.284  -4.073  30.166  1.00  0.00     0.139 C 
HETATM    2  O3  UNL     1     -15.584  -4.911  29.261  1.00  0.00    -0.375 OA
HETATM    3  C6  UNL     1     -14.463  -4.172  29.536  1.00  0.00     0.166 C 
HETATM    4  C7  UNL     1     -13.153  -4.890  29.548  1.00  0.00     0.081 C 
HETATM    5  C8  UNL     1     -12.062  -3.855  29.766  1.00  0.00     0.049 C 
HETATM    6  C9  UNL     1     -13.024  -5.941  30.592  1.00  0.00     0.040 C 
HETATM    7  C10 UNL     1     -14.287  -6.198  31.361  1.00  0.00     0.004 C 
HETATM    8  C11 UNL     1     -14.761  -4.886  31.928  1.00  0.00     0.014 C 
HETATM    9  C12 UNL     1     -15.021  -3.850  30.871  1.00  0.00     0.012 C 
HETATM   10  C13 UNL     1     -14.667  -2.486  31.353  1.00  0.00     0.020 C 
ENDROOT
BRANCH   1  11
HETATM   11  C2  UNL     1     -16.926  -2.965  29.401  1.00  0.00     0.042 C 
HETATM   12  C1  UNL     1     -18.037  -2.275  30.109  1.00  0.00     0.015 C 
BRANCH  11  13
HETATM   13  C3  UNL     1     -17.508  -3.605  28.148  1.00  0.00     0.148 C 
BRANCH  13  14
HETATM   14  O1  UNL     1     -18.526  -4.464  28.546  1.00  0.00    -0.393 OA
ATOM     15  H1  UNL     1     -19.353  -4.021  28.400  1.00  0.00     0.210 HD
ENDBRANCH  13  14
BRANCH  13  16
HETATM   16  C4  UNL     1     -18.080  -2.581  27.206  1.00  0.00     0.196 C 
BRANCH  16  17
HETATM   17  O2  UNL     1     -19.223  -3.011  26.568  1.00  0.00    -0.398 OA
ATOM     18  H2  UNL     1     -19.563  -3.825  26.919  1.00  0.00     0.209 HD
ENDBRANCH  16  17
ENDBRANCH  13  16
ENDBRANCH  11  13
ENDBRANCH   1  11
BRANCH   4  19
HETATM   19  O4  UNL     1     -12.966  -5.434  28.264  1.00  0.00    -0.388 OA
ATOM     20  H4  UNL     1     -13.038  -4.718  27.643  1.00  0.00     0.210 HD
ENDBRANCH   4  19
TORSDOF 6
ENDMDL
MODEL 5
REMARK VINA RESULT: -5.948734607      2.485      3.980
REMARK  6 active torsions:
REMARK  status: ('A' for Active; 'I' for Inactive)
REMARK    1  A    between atoms: C2_2  and  C3_3 
REMARK    2  A    between atoms: C2_2  and  C5_9 
REMARK    3  A    between atoms: C3_3  and  O1_4 
REMARK    4  A    between atoms: C3_3  and  C4_6 
REMARK    5  A    between atoms: C4_6  and  O2_7 
REMARK    6  A    between atoms: C7_12  and  O4_14 
ROOT
HETATM    1  C5  UNL     1     -14.881  -4.603  30.931  1.00  0.00     0.139 C 
HETATM    2  O3  UNL     1     -13.668  -5.269  31.240  1.00  0.00    -0.375 OA
HETATM    3  C6  UNL     1     -13.045  -4.051  31.158  1.00  0.00     0.166 C 
HETATM    4  C7  UNL     1     -11.902  -3.800  32.085  1.00  0.00     0.081 C 
HETATM    5  C8  UNL     1     -11.314  -2.444  31.735  1.00  0.00     0.049 C 
HETATM    6  C9  UNL     1     -12.252  -3.806  33.530  1.00  0.00     0.040 C 
HETATM    7  C10 UNL     1     -13.671  -4.206  33.813  1.00  0.00     0.004 C 
HETATM    8  C11 UNL     1     -14.577  -3.311  33.009  1.00  0.00     0.014 C 
HETATM    9  C12 UNL     1     -14.319  -3.392  31.531  1.00  0.00     0.012 C 
HETATM   10  C13 UNL     1     -14.523  -2.070  30.874  1.00  0.00     0.020 C 
ENDROOT
BRANCH   1  11
HETATM   11  C2  UNL     1     -15.109  -4.677  29.458  1.00  0.00     0.042 C 
HETATM   12  C1  UNL     1     -16.445  -4.201  29.006  1.00  0.00     0.015 C 
BRANCH  11  13
HETATM   13  C3  UNL     1     -15.001  -6.151  29.093  1.00  0.00     0.148 C 
BRANCH  13  14
HETATM   14  O1  UNL     1     -15.618  -6.883  30.100  1.00  0.00    -0.393 OA
ATOM     15  H1  UNL     1     -16.531  -6.992  29.861  1.00  0.00     0.210 HD
ENDBRANCH  13  14
BRANCH  13  16
HETATM   16  C4  UNL     1     -15.679  -6.458  27.785  1.00  0.00     0.196 C 
BRANCH  16  17
HETATM   17  O2  UNL     1     -16.458  -7.593  27.833  1.00  0.00    -0.398 OA
ATOM     18  H2  UNL     1     -16.696  -7.846  28.717  1.00  0.00     0.209 HD
ENDBRANCH  16  17
ENDBRANCH  13  16
ENDBRANCH  11  13
ENDBRANCH   1  11
BRANCH   4  19
HETATM   19  O4  UNL     1     -10.919  -4.768  31.804  1.00  0.00    -0.388 OA
ATOM     20  H4  UNL     1     -10.079  -4.389  32.031  1.00  0.00     0.210 HD
ENDBRANCH   4  19
TORSDOF 6
ENDMDL
