MODEL 1
REMARK VINA RESULT: -7.197579272      0.000      0.000
REMARK  3 active torsions:
REMARK  status: ('A' for Active; 'I' for Inactive)
REMARK    1  A    between atoms: N1_3  and  N2_5 
REMARK       I    between atoms: N2_5  and  C3_7 
REMARK       I    between atoms: C3_7  and  N4_12 
REMARK    2  A    between atoms: N3_8  and  O1_10 
REMARK    3  A    between atoms: N4_12  and  C4_14 
ROOT
HETATM    1  N2  UNL     1     -18.182  -3.906  28.385  1.00  0.00    -0.131 N 
ATOM      2  H2  UNL     1     -17.719  -4.513  27.707  1.00  0.00     0.205 HD
HETATM    3  C3  UNL     1     -17.423  -3.419  29.485  1.00  0.00     0.713 C 
HETATM    4  N3  UNL     1     -18.072  -3.279  30.590  1.00  0.00    -0.098 N 
ATOM      5  H3  UNL     1     -17.563  -2.932  31.403  1.00  0.00     0.213 HD
HETATM    6  N4  UNL     1     -16.045  -3.102  29.394  1.00  0.00    -0.214 N 
ATOM      7  H4  UNL     1     -15.787  -2.251  28.894  1.00  0.00     0.178 HD
ENDROOT
BRANCH   1   8
HETATM    8  N1  UNL     1     -19.529  -3.594  28.187  1.00  0.00    -0.302 N 
HETATM    9  C2  UNL     1     -19.895  -2.574  27.461  1.00  0.00     0.076 C 
HETATM   10  C1  UNL     1     -21.298  -2.217  27.234  1.00  0.00     0.056 C 
ATOM     11  H1  UNL     1     -20.244  -4.178  28.621  1.00  0.00     0.186 HD
ENDBRANCH   1   8
BRANCH   4  12
HETATM   12  O1  UNL     1     -19.386  -3.564  30.740  1.00  0.00    -0.276 OA
ATOM     13  H1  UNL     1     -19.741  -4.445  30.763  1.00  0.00     0.245 HD
ENDBRANCH   4  12
BRANCH   6  14
HETATM   14  C4  UNL     1     -14.996  -3.885  29.950  1.00  0.00     0.051 C 
HETATM   15  C5  UNL     1     -13.655  -3.221  29.715  1.00  0.00     0.036 C 
HETATM   16  C6  UNL     1     -12.730  -4.445  29.779  1.00  0.00    -0.011 C 
HETATM   17  C7  UNL     1     -12.787  -4.970  31.177  1.00  0.00     0.009 C 
HETATM   18  C11 UNL     1     -13.468  -5.357  28.796  1.00  0.00     0.012 C 
HETATM   19  C8  UNL     1     -14.187  -5.302  31.608  1.00  0.00    -0.011 C 
HETATM   20  C9  UNL     1     -14.862  -6.222  30.581  1.00  0.00     0.012 C 
HETATM   21  C12 UNL     1     -15.093  -4.070  31.449  1.00  0.00     0.036 C 
HETATM   22  C10 UNL     1     -14.887  -5.269  29.378  1.00  0.00     0.015 C 
ENDBRANCH   6  14
TORSDOF 3
ENDMDL
MODEL 2
REMARK VINA RESULT: -7.180352630      0.720      1.554
REMARK  3 active torsions:
REMARK  status: ('A' for Active; 'I' for Inactive)
REMARK    1  A    between atoms: N1_3  and  N2_5 
REMARK       I    between atoms: N2_5  and  C3_7 
REMARK       I    between atoms: C3_7  and  N4_12 
REMARK    2  A    between atoms: N3_8  and  O1_10 
REMARK    3  A    between atoms: N4_12  and  C4_14 
ROOT
HETATM    1  N2  UNL     1     -18.263  -3.890  28.532  1.00  0.00    -0.131 N 
ATOM      2  H2  UNL     1     -17.750  -4.524  27.918  1.00  0.00     0.205 HD
HETATM    3  C3  UNL     1     -17.589  -3.349  29.662  1.00  0.00     0.713 C 
HETATM    4  N3  UNL     1     -18.317  -3.165  30.709  1.00  0.00    -0.098 N 
ATOM      5  H3  UNL     1     -17.870  -2.778  31.540  1.00  0.00     0.213 HD
HETATM    6  N4  UNL     1     -16.208  -3.026  29.656  1.00  0.00    -0.214 N 
ATOM      7  H4  UNL     1     -15.918  -2.196  29.139  1.00  0.00     0.178 HD
ENDROOT
BRANCH   1   8
HETATM    8  N1  UNL     1     -19.593  -3.597  28.223  1.00  0.00    -0.302 N 
HETATM    9  C2  UNL     1     -19.913  -2.579  27.473  1.00  0.00     0.076 C 
HETATM   10  C1  UNL     1     -21.297  -2.242  27.131  1.00  0.00     0.056 C 
ATOM     11  H1  UNL     1     -20.333  -4.194  28.594  1.00  0.00     0.186 HD
ENDBRANCH   1   8
BRANCH   4  12
HETATM   12  O1  UNL     1     -19.637  -3.452  30.776  1.00  0.00    -0.276 OA
ATOM     13  H1  UNL     1     -20.083  -3.727  31.568  1.00  0.00     0.245 HD
ENDBRANCH   4  12
BRANCH   6  14
HETATM   14  C4  UNL     1     -15.199  -3.776  30.321  1.00  0.00     0.051 C 
HETATM   15  C5  UNL     1     -15.196  -3.463  31.803  1.00  0.00     0.036 C 
HETATM   16  C6  UNL     1     -13.744  -3.820  32.153  1.00  0.00    -0.011 C 
HETATM   17  C7  UNL     1     -13.589  -5.293  31.954  1.00  0.00     0.009 C 
HETATM   18  C11 UNL     1     -13.029  -3.019  31.062  1.00  0.00     0.012 C 
HETATM   19  C8  UNL     1     -13.953  -5.725  30.563  1.00  0.00    -0.011 C 
HETATM   20  C9  UNL     1     -13.197  -4.885  29.524  1.00  0.00     0.012 C 
HETATM   21  C12 UNL     1     -15.385  -5.275  30.229  1.00  0.00     0.036 C 
HETATM   22  C10 UNL     1     -13.806  -3.509  29.830  1.00  0.00     0.015 C 
ENDBRANCH   6  14
TORSDOF 3
ENDMDL
MODEL 3
REMARK VINA RESULT: -6.906577324      0.745      1.969
REMARK  3 active torsions:
REMARK  status: ('A' for Active; 'I' for Inactive)
REMARK    1  A    between atoms: N1_3  and  N2_5 
REMARK       I    between atoms: N2_5  and  C3_7 
REMARK       I    between atoms: C3_7  and  N4_12 
REMARK    2  A    between atoms: N3_8  and  O1_10 
REMARK    3  A    between atoms: N4_12  and  C4_14 
ROOT
HETATM    1  N2  UNL     1     -17.907  -4.049  28.469  1.00  0.00    -0.131 N 
ATOM      2  H2  UNL     1     -17.394  -4.666  27.838  1.00  0.00     0.205 HD
HETATM    3  C3  UNL     1     -17.224  -3.512  29.595  1.00  0.00     0.713 C 
HETATM    4  N3  UNL     1     -17.938  -3.352  30.655  1.00  0.00    -0.098 N 
ATOM      5  H3  UNL     1     -17.484  -2.968  31.484  1.00  0.00     0.213 HD
HETATM    6  N4  UNL     1     -15.849  -3.166  29.572  1.00  0.00    -0.214 N 
ATOM      7  H4  UNL     1     -15.580  -2.326  29.060  1.00  0.00     0.178 HD
ENDROOT
BRANCH   1   8
HETATM    8  N1  UNL     1     -19.247  -3.773  28.185  1.00  0.00    -0.302 N 
HETATM    9  C2  UNL     1     -19.596  -2.737  27.473  1.00  0.00     0.076 C 
HETATM   10  C1  UNL     1     -20.990  -2.417  27.157  1.00  0.00     0.056 C 
ATOM     11  H1  UNL     1     -19.970  -4.396  28.543  1.00  0.00     0.186 HD
ENDBRANCH   1   8
BRANCH   4  12
HETATM   12  O1  UNL     1     -19.252  -3.661  30.739  1.00  0.00    -0.276 OA
ATOM     13  H1  UNL     1     -19.599  -4.373  31.264  1.00  0.00     0.245 HD
ENDBRANCH   4  12
BRANCH   6  14
HETATM   14  C4  UNL     1     -14.818  -3.909  30.211  1.00  0.00     0.051 C 
HETATM   15  C5  UNL     1     -15.244  -5.349  30.407  1.00  0.00     0.036 C 
HETATM   16  C6  UNL     1     -14.356  -5.736  31.598  1.00  0.00    -0.011 C 
HETATM   17  C7  UNL     1     -12.938  -5.696  31.125  1.00  0.00     0.009 C 
HETATM   18  C11 UNL     1     -14.678  -4.566  32.531  1.00  0.00     0.012 C 
HETATM   19  C8  UNL     1     -12.561  -4.359  30.555  1.00  0.00    -0.011 C 
HETATM   20  C9  UNL     1     -12.908  -3.236  31.544  1.00  0.00     0.012 C 
HETATM   21  C12 UNL     1     -13.528  -3.977  29.422  1.00  0.00     0.036 C 
HETATM   22  C10 UNL     1     -14.435  -3.393  31.568  1.00  0.00     0.015 C 
ENDBRANCH   6  14
TORSDOF 3
ENDMDL
MODEL 4
REMARK VINA RESULT: -6.881756906      1.857      2.281
REMARK  3 active torsions:
REMARK  status: ('A' for Active; 'I' for Inactive)
REMARK    1  A    between atoms: N1_3  and  N2_5 
REMARK       I    between atoms: N2_5  and  C3_7 
REMARK       I    between atoms: C3_7  and  N4_12 
REMARK    2  A    between atoms: N3_8  and  O1_10 
REMARK    3  A    between atoms: N4_12  and  C4_14 
ROOT
HETATM    1  N2  UNL     1     -17.005  -2.945  28.771  1.00  0.00    -0.131 N 
ATOM      2  H2  UNL     1     -16.712  -1.970  28.845  1.00  0.00     0.205 HD
HETATM    3  C3  UNL     1     -16.376  -3.906  29.610  1.00  0.00     0.713 C 
HETATM    4  N3  UNL     1     -16.221  -5.077  29.095  1.00  0.00    -0.098 N 
ATOM      5  H3  UNL     1     -15.773  -5.795  29.665  1.00  0.00     0.213 HD
HETATM    6  N4  UNL     1     -15.943  -3.616  30.929  1.00  0.00    -0.214 N 
ATOM      7  H4  UNL     1     -16.657  -3.516  31.650  1.00  0.00     0.178 HD
ENDROOT
BRANCH   1   8
HETATM    8  N1  UNL     1     -18.005  -3.270  27.852  1.00  0.00    -0.302 N 
HETATM    9  C2  UNL     1     -18.367  -2.441  26.912  1.00  0.00     0.076 C 
HETATM   10  C1  UNL     1     -19.412  -2.750  25.933  1.00  0.00     0.056 C 
ATOM     11  H1  UNL     1     -18.464  -4.179  27.918  1.00  0.00     0.186 HD
ENDBRANCH   1   8
BRANCH   4  12
HETATM   12  O1  UNL     1     -16.613  -5.414  27.845  1.00  0.00    -0.276 OA
ATOM     13  H1  UNL     1     -17.139  -6.178  27.640  1.00  0.00     0.245 HD
ENDBRANCH   4  12
BRANCH   6  14
HETATM   14  C4  UNL     1     -14.584  -3.455  31.316  1.00  0.00     0.051 C 
HETATM   15  C5  UNL     1     -13.846  -2.589  30.317  1.00  0.00     0.036 C 
HETATM   16  C6  UNL     1     -12.408  -3.075  30.545  1.00  0.00    -0.011 C 
HETATM   17  C7  UNL     1     -12.019  -2.677  31.932  1.00  0.00     0.009 C 
HETATM   18  C11 UNL     1     -12.641  -4.584  30.430  1.00  0.00     0.012 C 
HETATM   19  C8  UNL     1     -12.964  -3.214  32.969  1.00  0.00    -0.011 C 
HETATM   20  C9  UNL     1     -13.146  -4.729  32.796  1.00  0.00     0.012 C 
HETATM   21  C12 UNL     1     -14.402  -2.769  32.652  1.00  0.00     0.036 C 
HETATM   22  C10 UNL     1     -13.812  -4.740  31.412  1.00  0.00     0.015 C 
ENDBRANCH   6  14
TORSDOF 3
ENDMDL
MODEL 5
REMARK VINA RESULT: -6.607279039      1.530      2.335
REMARK  3 active torsions:
REMARK  status: ('A' for Active; 'I' for Inactive)
REMARK    1  A    between atoms: N1_3  and  N2_5 
REMARK       I    between atoms: N2_5  and  C3_7 
REMARK       I    between atoms: C3_7  and  N4_12 
REMARK    2  A    between atoms: N3_8  and  O1_10 
REMARK    3  A    between atoms: N4_12  and  C4_14 
ROOT
HETATM    1  N2  UNL     1     -18.838  -3.046  29.024  1.00  0.00    -0.131 N 
ATOM      2  H2  UNL     1     -18.852  -2.507  29.890  1.00  0.00     0.205 HD
HETATM    3  C3  UNL     1     -17.653  -3.760  28.691  1.00  0.00     0.713 C 
HETATM    4  N3  UNL     1     -17.384  -3.835  27.433  1.00  0.00    -0.098 N 
ATOM      5  H3  UNL     1     -16.542  -4.339  27.154  1.00  0.00     0.213 HD
HETATM    6  N4  UNL     1     -16.812  -4.358  29.663  1.00  0.00    -0.214 N 
ATOM      7  H4  UNL     1     -17.145  -5.208  30.119  1.00  0.00     0.178 HD
ENDROOT
BRANCH   1   8
HETATM    8  N1  UNL     1     -19.982  -3.049  28.223  1.00  0.00    -0.302 N 
HETATM    9  C2  UNL     1     -20.772  -2.013  28.155  1.00  0.00     0.076 C 
HETATM   10  C1  UNL     1     -21.979  -1.982  27.326  1.00  0.00     0.056 C 
ATOM     11  H1  UNL     1     -20.206  -3.882  27.678  1.00  0.00     0.186 HD
ENDBRANCH   1   8
BRANCH   4  12
HETATM   12  O1  UNL     1     -18.146  -3.287  26.460  1.00  0.00    -0.276 OA
ATOM     13  H1  UNL     1     -17.814  -2.702  25.789  1.00  0.00     0.245 HD
ENDBRANCH   4  12
BRANCH   6  14
HETATM   14  C4  UNL     1     -15.537  -3.858  30.047  1.00  0.00     0.051 C 
HETATM   15  C5  UNL     1     -14.436  -4.584  29.301  1.00  0.00     0.036 C 
HETATM   16  C6  UNL     1     -13.268  -4.381  30.277  1.00  0.00    -0.011 C 
HETATM   17  C7  UNL     1     -12.966  -2.918  30.310  1.00  0.00     0.009 C 
HETATM   18  C11 UNL     1     -13.945  -4.854  31.566  1.00  0.00     0.012 C 
HETATM   19  C8  UNL     1     -14.163  -2.094  30.691  1.00  0.00    -0.011 C 
HETATM   20  C9  UNL     1     -14.786  -2.620  31.991  1.00  0.00     0.012 C 
HETATM   21  C12 UNL     1     -15.332  -2.391  29.736  1.00  0.00     0.036 C 
HETATM   22  C10 UNL     1     -15.227  -4.009  31.508  1.00  0.00     0.015 C 
ENDBRANCH   6  14
TORSDOF 3
ENDMDL
