MODEL 1
REMARK VINA RESULT: -6.248649282      0.000      0.000
REMARK  5 active torsions:
REMARK  status: ('A' for Active; 'I' for Inactive)
REMARK    1  A    between atoms: C2_2  and  O1_3 
REMARK    2  A    between atoms: C2_2  and  C3_5 
REMARK    3  A    between atoms: C3_5  and  O2_6 
REMARK    4  A    between atoms: C3_5  and  C4_8 
REMARK    5  A    between atoms: C8_13  and  O4_14 
ROOT
HETATM    1  C4  UNL     1     -16.647  -3.592  30.243  1.00  0.00     0.157 C 
HETATM    2  O3  UNL     1     -15.838  -4.117  29.256  1.00  0.00    -0.377 OA
HETATM    3  C5  UNL     1     -14.757  -4.820  29.689  1.00  0.00     0.125 C 
HETATM    4  C6  UNL     1     -15.041  -6.265  30.011  1.00  0.00     0.040 C 
HETATM    5  C7  UNL     1     -13.993  -4.143  30.810  1.00  0.00     0.047 C 
HETATM    6  C8  UNL     1     -13.555  -2.799  30.286  1.00  0.00     0.125 C 
HETATM    7  C9  UNL     1     -14.774  -1.942  30.454  1.00  0.00     0.039 C 
HETATM    8  C10 UNL     1     -15.799  -2.744  31.193  1.00  0.00     0.024 C 
HETATM    9  C11 UNL     1     -14.932  -3.774  31.928  1.00  0.00    -0.003 C 
HETATM   10  C12 UNL     1     -14.192  -3.161  33.070  1.00  0.00     0.011 C 
ENDROOT
BRANCH   1  11
HETATM   11  C3  UNL     1     -17.674  -2.711  29.612  1.00  0.00     0.175 C 
BRANCH  11  12
HETATM   12  C2  UNL     1     -19.078  -3.217  29.731  1.00  0.00     0.145 C 
HETATM   13  C1  UNL     1     -19.941  -2.827  28.547  1.00  0.00     0.042 C 
BRANCH  12  14
HETATM   14  O1  UNL     1     -19.642  -2.551  30.847  1.00  0.00    -0.393 OA
ATOM     15  H1  UNL     1     -18.923  -2.416  31.453  1.00  0.00     0.210 HD
ENDBRANCH  12  14
ENDBRANCH  11  12
BRANCH  11  16
HETATM   16  O2  UNL     1     -17.395  -2.611  28.230  1.00  0.00    -0.390 OA
ATOM     17  H2  UNL     1     -16.661  -2.014  28.142  1.00  0.00     0.210 HD
ENDBRANCH  11  16
ENDBRANCH   1  11
BRANCH   6  18
HETATM   18  O4  UNL     1     -12.431  -2.312  30.906  1.00  0.00    -0.395 OA
ATOM     19  H4  UNL     1     -12.273  -2.700  31.759  1.00  0.00     0.210 HD
ENDBRANCH   6  18
TORSDOF 5
ENDMDL
MODEL 2
REMARK VINA RESULT: -6.193309655      2.805      4.697
REMARK  5 active torsions:
REMARK  status: ('A' for Active; 'I' for Inactive)
REMARK    1  A    between atoms: C2_2  and  O1_3 
REMARK    2  A    between atoms: C2_2  and  C3_5 
REMARK    3  A    between atoms: C3_5  and  O2_6 
REMARK    4  A    between atoms: C3_5  and  C4_8 
REMARK    5  A    between atoms: C8_13  and  O4_14 
ROOT
HETATM    1  C4  UNL     1     -13.261  -5.345  30.412  1.00  0.00     0.157 C 
HETATM    2  O3  UNL     1     -12.485  -4.604  29.546  1.00  0.00    -0.377 OA
HETATM    3  C5  UNL     1     -11.932  -3.474  30.065  1.00  0.00     0.125 C 
HETATM    4  C6  UNL     1     -10.633  -3.696  30.797  1.00  0.00     0.040 C 
HETATM    5  C7  UNL     1     -12.895  -2.642  30.887  1.00  0.00     0.047 C 
HETATM    6  C8  UNL     1     -14.042  -2.280  29.977  1.00  0.00     0.125 C 
HETATM    7  C9  UNL     1     -14.909  -3.503  30.002  1.00  0.00     0.039 C 
HETATM    8  C10 UNL     1     -14.342  -4.447  31.017  1.00  0.00     0.024 C 
HETATM    9  C11 UNL     1     -13.558  -3.498  31.933  1.00  0.00    -0.003 C 
HETATM   10  C12 UNL     1     -14.466  -2.685  32.796  1.00  0.00     0.011 C 
ENDROOT
BRANCH   1  11
HETATM   11  C3  UNL     1     -13.930  -6.441  29.650  1.00  0.00     0.175 C 
BRANCH  11  12
HETATM   12  C2  UNL     1     -13.828  -7.790  30.291  1.00  0.00     0.145 C 
HETATM   13  C1  UNL     1     -13.410  -7.714  31.747  1.00  0.00     0.042 C 
BRANCH  12  14
HETATM   14  O1  UNL     1     -12.772  -8.462  29.627  1.00  0.00    -0.393 OA
ATOM     15  H1  UNL     1     -12.967  -8.389  28.701  1.00  0.00     0.210 HD
ENDBRANCH  12  14
ENDBRANCH  11  12
BRANCH  11  16
HETATM   16  O2  UNL     1     -13.315  -6.548  28.381  1.00  0.00    -0.390 OA
ATOM     17  H2  UNL     1     -12.530  -6.014  28.412  1.00  0.00     0.210 HD
ENDBRANCH  11  16
ENDBRANCH   1  11
BRANCH   6  18
HETATM   18  O4  UNL     1     -14.684  -1.123  30.343  1.00  0.00    -0.395 OA
ATOM     19  H4  UNL     1     -14.965  -0.598  29.603  1.00  0.00     0.210 HD
ENDBRANCH   6  18
TORSDOF 5
ENDMDL
MODEL 3
REMARK VINA RESULT: -6.124216391      2.749      5.323
REMARK  5 active torsions:
REMARK  status: ('A' for Active; 'I' for Inactive)
REMARK    1  A    between atoms: C2_2  and  O1_3 
REMARK    2  A    between atoms: C2_2  and  C3_5 
REMARK    3  A    between atoms: C3_5  and  O2_6 
REMARK    4  A    between atoms: C3_5  and  C4_8 
REMARK    5  A    between atoms: C8_13  and  O4_14 
ROOT
HETATM    1  C4  UNL     1     -13.542  -6.017  30.726  1.00  0.00     0.157 C 
HETATM    2  O3  UNL     1     -14.730  -6.414  30.148  1.00  0.00    -0.377 OA
HETATM    3  C5  UNL     1     -15.180  -5.636  29.126  1.00  0.00     0.125 C 
HETATM    4  C6  UNL     1     -14.591  -5.974  27.780  1.00  0.00     0.040 C 
HETATM    5  C7  UNL     1     -15.103  -4.149  29.407  1.00  0.00     0.047 C 
HETATM    6  C8  UNL     1     -15.928  -3.897  30.644  1.00  0.00     0.125 C 
HETATM    7  C9  UNL     1     -15.003  -4.266  31.764  1.00  0.00     0.039 C 
HETATM    8  C10 UNL     1     -13.659  -4.558  31.171  1.00  0.00     0.024 C 
HETATM    9  C11 UNL     1     -13.714  -3.776  29.852  1.00  0.00    -0.003 C 
HETATM   10  C12 UNL     1     -13.598  -2.305  30.076  1.00  0.00     0.011 C 
ENDROOT
BRANCH   1  11
HETATM   11  C3  UNL     1     -13.282  -6.860  31.930  1.00  0.00     0.175 C 
BRANCH  11  12
HETATM   12  C2  UNL     1     -12.202  -7.880  31.749  1.00  0.00     0.145 C 
HETATM   13  C1  UNL     1     -10.814  -7.301  31.949  1.00  0.00     0.042 C 
BRANCH  12  14
HETATM   14  O1  UNL     1     -12.256  -8.272  30.389  1.00  0.00    -0.393 OA
ATOM     15  H1  UNL     1     -11.797  -7.593  29.910  1.00  0.00     0.210 HD
ENDBRANCH  12  14
ENDBRANCH  11  12
BRANCH  11  16
HETATM   16  O2  UNL     1     -14.463  -7.571  32.247  1.00  0.00    -0.390 OA
ATOM     17  H2  UNL     1     -15.091  -7.376  31.562  1.00  0.00     0.210 HD
ENDBRANCH  11  16
ENDBRANCH   1  11
BRANCH   6  18
HETATM   18  O4  UNL     1     -16.426  -2.620  30.717  1.00  0.00    -0.395 OA
ATOM     19  H4  UNL     1     -17.204  -2.548  31.256  1.00  0.00     0.210 HD
ENDBRANCH   6  18
TORSDOF 5
ENDMDL
MODEL 4
REMARK VINA RESULT: -6.074830177      2.443      4.067
REMARK  5 active torsions:
REMARK  status: ('A' for Active; 'I' for Inactive)
REMARK    1  A    between atoms: C2_2  and  O1_3 
REMARK    2  A    between atoms: C2_2  and  C3_5 
REMARK    3  A    between atoms: C3_5  and  O2_6 
REMARK    4  A    between atoms: C3_5  and  C4_8 
REMARK    5  A    between atoms: C8_13  and  O4_14 
ROOT
HETATM    1  C4  UNL     1     -14.318  -4.696  30.073  1.00  0.00     0.157 C 
HETATM    2  O3  UNL     1     -15.570  -4.228  30.414  1.00  0.00    -0.377 OA
HETATM    3  C5  UNL     1     -15.602  -3.007  31.015  1.00  0.00     0.125 C 
HETATM    4  C6  UNL     1     -15.595  -1.842  30.059  1.00  0.00     0.040 C 
HETATM    5  C7  UNL     1     -14.565  -2.834  32.106  1.00  0.00     0.047 C 
HETATM    6  C8  UNL     1     -14.824  -3.914  33.127  1.00  0.00     0.125 C 
HETATM    7  C9  UNL     1     -14.157  -5.120  32.536  1.00  0.00     0.039 C 
HETATM    8  C10 UNL     1     -13.419  -4.682  31.310  1.00  0.00     0.024 C 
HETATM    9  C11 UNL     1     -13.198  -3.189  31.585  1.00  0.00    -0.003 C 
HETATM   10  C12 UNL     1     -12.152  -2.966  32.626  1.00  0.00     0.011 C 
ENDROOT
BRANCH   1  11
HETATM   11  C3  UNL     1     -14.440  -6.104  29.593  1.00  0.00     0.175 C 
BRANCH  11  12
HETATM   12  C2  UNL     1     -14.468  -6.249  28.103  1.00  0.00     0.145 C 
HETATM   13  C1  UNL     1     -13.271  -5.604  27.432  1.00  0.00     0.042 C 
BRANCH  12  14
HETATM   14  O1  UNL     1     -15.595  -5.514  27.658  1.00  0.00    -0.393 OA
ATOM     15  H1  UNL     1     -16.031  -5.215  28.447  1.00  0.00     0.210 HD
ENDBRANCH  12  14
ENDBRANCH  11  12
BRANCH  11  16
HETATM   16  O2  UNL     1     -15.656  -6.642  30.075  1.00  0.00    -0.390 OA
ATOM     17  H2  UNL     1     -15.426  -7.310  30.711  1.00  0.00     0.210 HD
ENDBRANCH  11  16
ENDBRANCH   1  11
BRANCH   6  18
HETATM   18  O4  UNL     1     -14.391  -3.588  34.388  1.00  0.00    -0.395 OA
ATOM     19  H4  UNL     1     -13.514  -3.899  34.578  1.00  0.00     0.210 HD
ENDBRANCH   6  18
TORSDOF 5
ENDMDL
MODEL 5
REMARK VINA RESULT: -6.066104358      2.290      4.775
REMARK  5 active torsions:
REMARK  status: ('A' for Active; 'I' for Inactive)
REMARK    1  A    between atoms: C2_2  and  O1_3 
REMARK    2  A    between atoms: C2_2  and  C3_5 
REMARK    3  A    between atoms: C3_5  and  O2_6 
REMARK    4  A    between atoms: C3_5  and  C4_8 
REMARK    5  A    between atoms: C8_13  and  O4_14 
ROOT
HETATM    1  C4  UNL     1     -14.323  -5.084  30.997  1.00  0.00     0.157 C 
HETATM    2  O3  UNL     1     -13.513  -4.331  31.821  1.00  0.00    -0.377 OA
HETATM    3  C5  UNL     1     -14.132  -3.331  32.506  1.00  0.00     0.125 C 
HETATM    4  C6  UNL     1     -14.778  -3.768  33.797  1.00  0.00     0.040 C 
HETATM    5  C7  UNL     1     -15.084  -2.507  31.663  1.00  0.00     0.047 C 
HETATM    6  C8  UNL     1     -14.270  -1.926  30.533  1.00  0.00     0.125 C 
HETATM    7  C9  UNL     1     -14.194  -3.049  29.543  1.00  0.00     0.039 C 
HETATM    8  C10 UNL     1     -15.071  -4.157  30.037  1.00  0.00     0.024 C 
HETATM    9  C11 UNL     1     -16.054  -3.407  30.945  1.00  0.00    -0.003 C 
HETATM   10  C12 UNL     1     -17.041  -2.612  30.155  1.00  0.00     0.011 C 
ENDROOT
BRANCH   1  11
HETATM   11  C3  UNL     1     -13.471  -6.010  30.193  1.00  0.00     0.175 C 
BRANCH  11  12
HETATM   12  C2  UNL     1     -13.833  -7.456  30.326  1.00  0.00     0.145 C 
HETATM   13  C1  UNL     1     -13.755  -7.947  31.759  1.00  0.00     0.042 C 
BRANCH  12  14
HETATM   14  O1  UNL     1     -12.837  -8.177  29.623  1.00  0.00    -0.393 OA
ATOM     15  H1  UNL     1     -13.050  -9.094  29.751  1.00  0.00     0.210 HD
ENDBRANCH  12  14
ENDBRANCH  11  12
BRANCH  11  16
HETATM   16  O2  UNL     1     -12.132  -5.885  30.629  1.00  0.00    -0.390 OA
ATOM     17  H2  UNL     1     -11.779  -5.110  30.209  1.00  0.00     0.210 HD
ENDBRANCH  11  16
ENDBRANCH   1  11
BRANCH   6  18
HETATM   18  O4  UNL     1     -14.792  -0.760  30.029  1.00  0.00    -0.395 OA
ATOM     19  H4  UNL     1     -14.134  -0.176  29.672  1.00  0.00     0.210 HD
ENDBRANCH   6  18
TORSDOF 5
ENDMDL
