MODEL 1
REMARK VINA RESULT: -8.992398116      0.000      0.000
REMARK  13 active torsions:
REMARK  status: ('A' for Active; 'I' for Inactive)
REMARK    1  A    between atoms: C2_2  and  C3_3 
REMARK    2  A    between atoms: C3_3  and  N1_4 
REMARK    3  A    between atoms: N1_4  and  C4_5 
REMARK       I    between atoms: N1_4  and  C7_8 
REMARK    4  A    between atoms: C4_5  and  C5_6 
REMARK    5  A    between atoms: C7_8  and  C8_10 
REMARK    6  A    between atoms: C8_10  and  N2_11 
REMARK       I    between atoms: N2_11  and  C9_13 
REMARK    7  A    between atoms: C9_13  and  C10_15 
REMARK    8  A    between atoms: C10_15  and  N3_16 
REMARK    9  A    between atoms: C11_17  and  S1_18 
REMARK   10  A    between atoms: S1_18  and  C12_19 
REMARK   11  A    between atoms: C12_19  and  C13_20 
REMARK       I    between atoms: C13_20  and  N4_22 
REMARK   12  A    between atoms: N4_22  and  C14_24 
REMARK   13  A    between atoms: C17_34  and  C18_35 
ROOT
HETATM    1  N3  UNL     1      20.365  25.608  19.237  1.00  0.00    -0.302 N 
HETATM    2  C11 UNL     1      19.752  26.112  18.110  1.00  0.00     0.163 A 
HETATM    3  N6  UNL     1      20.122  27.384  18.002  1.00  0.00    -0.278 N 
ATOM      4  H6  UNL     1      19.827  28.022  17.262  1.00  0.00     0.189 HD
HETATM    5  N7  UNL     1      20.903  27.684  18.966  1.00  0.00    -0.283 N 
ATOM      6  H7  UNL     1      21.331  28.598  19.117  1.00  0.00     0.188 HD
HETATM    7  C17 UNL     1      21.077  26.578  19.772  1.00  0.00     0.135 A 
ENDROOT
BRANCH   1   8
HETATM    8  C10 UNL     1      20.211  24.224  19.572  1.00  0.00     0.235 C 
BRANCH   8   9
HETATM    9  C9  UNL     1      18.817  23.892  19.971  1.00  0.00     0.236 C 
HETATM   10  N2  UNL     1      18.197  22.768  19.386  1.00  0.00    -0.351 N 
ATOM     11  H2  UNL     1      18.730  22.228  18.705  1.00  0.00     0.163 HD
HETATM   12  O2  UNL     1      18.221  24.594  20.800  1.00  0.00    -0.272 OA
BRANCH  10  13
HETATM   13  C8  UNL     1      16.851  22.335  19.692  1.00  0.00     0.225 C 
BRANCH  13  14
HETATM   14  C7  UNL     1      15.904  22.496  18.570  1.00  0.00     0.238 C 
HETATM   15  N1  UNL     1      15.386  21.448  17.779  1.00  0.00    -0.344 N 
HETATM   16  O1  UNL     1      15.527  23.689  18.300  1.00  0.00    -0.272 OA
BRANCH  15  17
HETATM   17  C3  UNL     1      14.456  21.729  16.699  1.00  0.00     0.152 C 
BRANCH  17  18
HETATM   18  C2  UNL     1      15.106  21.525  15.369  1.00  0.00    -0.017 C 
HETATM   19  C1  UNL     1      15.941  22.439  14.905  1.00  0.00     0.008 C 
ENDBRANCH  17  18
ENDBRANCH  15  17
BRANCH  15  20
HETATM   20  C4  UNL     1      15.750  20.081  17.995  1.00  0.00     0.152 C 
BRANCH  20  21
HETATM   21  C5  UNL     1      14.653  19.213  18.476  1.00  0.00    -0.017 C 
HETATM   22  C6  UNL     1      14.677  17.888  18.421  1.00  0.00     0.008 C 
ENDBRANCH  20  21
ENDBRANCH  15  20
ENDBRANCH  13  14
ENDBRANCH  10  13
ENDBRANCH   8   9
ENDBRANCH   1   8
BRANCH   2  23
HETATM   23  S1  UNL     1      18.664  25.277  16.975  1.00  0.00    -0.083 SA
BRANCH  23  24
HETATM   24  C12 UNL     1      19.623  24.561  15.591  1.00  0.00     0.185 C 
BRANCH  24  25
HETATM   25  C13 UNL     1      20.412  25.582  14.902  1.00  0.00     0.233 C 
HETATM   26  O3  UNL     1      19.795  26.446  14.227  1.00  0.00    -0.272 OA
HETATM   27  N4  UNL     1      21.835  25.557  15.023  1.00  0.00    -0.306 N 
ATOM     28  H4  UNL     1      22.381  24.706  14.890  1.00  0.00     0.171 HD
BRANCH  27  29
HETATM   29  C14 UNL     1      22.389  26.716  15.320  1.00  0.00     0.150 A 
HETATM   30  N5  UNL     1      22.127  27.899  14.768  1.00  0.00    -0.346 N 
HETATM   31  C15 UNL     1      22.775  28.945  15.188  1.00  0.00     0.097 A 
ATOM     32  H5  UNL     1      21.431  27.984  14.027  1.00  0.00     0.167 HD
HETATM   33  C16 UNL     1      23.700  28.766  16.185  1.00  0.00     0.070 A 
HETATM   34  S2  UNL     1      23.591  27.088  16.473  1.00  0.00    -0.064 SA
ENDBRANCH  27  29
ENDBRANCH  24  25
ENDBRANCH  23  24
ENDBRANCH   2  23
BRANCH   7  35
HETATM   35  C18 UNL     1      21.982  26.588  20.918  1.00  0.00     0.016 A 
HETATM   36  C19 UNL     1      21.463  27.207  22.064  1.00  0.00     0.023 A 
HETATM   37  C20 UNL     1      22.129  27.262  23.264  1.00  0.00    -0.055 A 
HETATM   38  C21 UNL     1      21.554  27.924  24.471  1.00  0.00     0.049 C 
HETATM   39  C22 UNL     1      23.371  26.671  23.314  1.00  0.00    -0.056 A 
HETATM   40  C23 UNL     1      24.109  26.722  24.606  1.00  0.00     0.049 C 
HETATM   41  C24 UNL     1      23.890  26.060  22.199  1.00  0.00     0.015 A 
HETATM   42  C25 UNL     1      23.203  26.004  20.971  1.00  0.00    -0.048 A 
HETATM   43  C26 UNL     1      23.833  25.236  19.845  1.00  0.00     0.049 C 
ENDBRANCH   7  35
TORSDOF 13
ENDMDL
MODEL 2
REMARK VINA RESULT: -8.624157624      3.511      9.239
REMARK  13 active torsions:
REMARK  status: ('A' for Active; 'I' for Inactive)
REMARK    1  A    between atoms: C2_2  and  C3_3 
REMARK    2  A    between atoms: C3_3  and  N1_4 
REMARK    3  A    between atoms: N1_4  and  C4_5 
REMARK       I    between atoms: N1_4  and  C7_8 
REMARK    4  A    between atoms: C4_5  and  C5_6 
REMARK    5  A    between atoms: C7_8  and  C8_10 
REMARK    6  A    between atoms: C8_10  and  N2_11 
REMARK       I    between atoms: N2_11  and  C9_13 
REMARK    7  A    between atoms: C9_13  and  C10_15 
REMARK    8  A    between atoms: C10_15  and  N3_16 
REMARK    9  A    between atoms: C11_17  and  S1_18 
REMARK   10  A    between atoms: S1_18  and  C12_19 
REMARK   11  A    between atoms: C12_19  and  C13_20 
REMARK       I    between atoms: C13_20  and  N4_22 
REMARK   12  A    between atoms: N4_22  and  C14_24 
REMARK   13  A    between atoms: C17_34  and  C18_35 
ROOT
HETATM    1  N3  UNL     1      15.705  21.970  17.189  1.00  0.00    -0.302 N 
HETATM    2  C11 UNL     1      14.423  21.607  16.836  1.00  0.00     0.163 A 
HETATM    3  N6  UNL     1      13.610  22.090  17.769  1.00  0.00    -0.278 N 
ATOM      4  H6  UNL     1      12.595  21.983  17.779  1.00  0.00     0.189 HD
HETATM    5  N7  UNL     1      14.294  22.711  18.651  1.00  0.00    -0.283 N 
ATOM      6  H7  UNL     1      13.913  23.177  19.474  1.00  0.00     0.188 HD
HETATM    7  C17 UNL     1      15.631  22.651  18.314  1.00  0.00     0.135 A 
ENDROOT
BRANCH   1   8
HETATM    8  C10 UNL     1      16.800  21.649  16.323  1.00  0.00     0.235 C 
BRANCH   8   9
HETATM    9  C9  UNL     1      17.406  22.859  15.708  1.00  0.00     0.236 C 
HETATM   10  N2  UNL     1      18.693  23.256  16.126  1.00  0.00    -0.351 N 
ATOM     11  H2  UNL     1      19.158  22.697  16.841  1.00  0.00     0.163 HD
HETATM   12  O2  UNL     1      16.785  23.500  14.848  1.00  0.00    -0.272 OA
BRANCH  10  13
HETATM   13  C8  UNL     1      19.395  24.408  15.602  1.00  0.00     0.225 C 
BRANCH  13  14
HETATM   14  C7  UNL     1      19.993  25.266  16.646  1.00  0.00     0.238 C 
HETATM   15  N1  UNL     1      20.115  26.669  16.579  1.00  0.00    -0.344 N 
HETATM   16  O1  UNL     1      20.431  24.677  17.694  1.00  0.00    -0.272 OA
BRANCH  15  17
HETATM   17  C3  UNL     1      20.720  27.410  17.673  1.00  0.00     0.152 C 
BRANCH  17  18
HETATM   18  C2  UNL     1      22.168  27.668  17.406  1.00  0.00    -0.017 C 
HETATM   19  C1  UNL     1      23.084  27.034  18.117  1.00  0.00     0.008 C 
ENDBRANCH  17  18
ENDBRANCH  15  17
BRANCH  15  20
HETATM   20  C4  UNL     1      19.661  27.420  15.449  1.00  0.00     0.152 C 
BRANCH  20  21
HETATM   21  C5  UNL     1      20.581  27.418  14.290  1.00  0.00    -0.017 C 
HETATM   22  C6  UNL     1      21.340  28.449  13.943  1.00  0.00     0.008 C 
ENDBRANCH  20  21
ENDBRANCH  15  20
ENDBRANCH  13  14
ENDBRANCH  10  13
ENDBRANCH   8   9
ENDBRANCH   1   8
BRANCH   2  23
HETATM   23  S1  UNL     1      13.889  20.673  15.417  1.00  0.00    -0.083 SA
BRANCH  23  24
HETATM   24  C12 UNL     1      12.093  20.896  15.152  1.00  0.00     0.185 C 
BRANCH  24  25
HETATM   25  C13 UNL     1      11.318  19.869  15.849  1.00  0.00     0.233 C 
HETATM   26  O3  UNL     1      11.057  18.807  15.228  1.00  0.00    -0.272 OA
HETATM   27  N4  UNL     1      10.894  20.113  17.190  1.00  0.00    -0.306 N 
ATOM     28  H4  UNL     1      10.443  20.982  17.474  1.00  0.00     0.171 HD
BRANCH  27  29
HETATM   29  C14 UNL     1      11.129  19.129  18.036  1.00  0.00     0.150 A 
HETATM   30  N5  UNL     1      10.497  17.959  18.108  1.00  0.00    -0.346 N 
HETATM   31  C15 UNL     1      10.865  17.100  19.012  1.00  0.00     0.097 A 
ATOM     32  H5  UNL     1       9.736  17.740  17.465  1.00  0.00     0.167 HD
HETATM   33  C16 UNL     1      11.894  17.453  19.847  1.00  0.00     0.070 A 
HETATM   34  S2  UNL     1      12.285  19.017  19.287  1.00  0.00    -0.064 SA
ENDBRANCH  27  29
ENDBRANCH  24  25
ENDBRANCH  23  24
ENDBRANCH   2  23
BRANCH   7  35
HETATM   35  C18 UNL     1      16.658  23.338  19.092  1.00  0.00     0.016 A 
HETATM   36  C19 UNL     1      17.332  22.524  20.013  1.00  0.00     0.023 A 
HETATM   37  C20 UNL     1      18.375  22.962  20.793  1.00  0.00    -0.055 A 
HETATM   38  C21 UNL     1      19.078  22.076  21.764  1.00  0.00     0.049 C 
HETATM   39  C22 UNL     1      18.756  24.276  20.640  1.00  0.00    -0.056 A 
HETATM   40  C23 UNL     1      19.883  24.770  21.477  1.00  0.00     0.049 C 
HETATM   41  C24 UNL     1      18.105  25.083  19.740  1.00  0.00     0.015 A 
HETATM   42  C25 UNL     1      17.038  24.629  18.942  1.00  0.00    -0.048 A 
HETATM   43  C26 UNL     1      16.459  25.579  17.932  1.00  0.00     0.049 C 
ENDBRANCH   7  35
TORSDOF 13
ENDMDL
MODEL 3
REMARK VINA RESULT: -8.591171260      1.359      2.140
REMARK  13 active torsions:
REMARK  status: ('A' for Active; 'I' for Inactive)
REMARK    1  A    between atoms: C2_2  and  C3_3 
REMARK    2  A    between atoms: C3_3  and  N1_4 
REMARK    3  A    between atoms: N1_4  and  C4_5 
REMARK       I    between atoms: N1_4  and  C7_8 
REMARK    4  A    between atoms: C4_5  and  C5_6 
REMARK    5  A    between atoms: C7_8  and  C8_10 
REMARK    6  A    between atoms: C8_10  and  N2_11 
REMARK       I    between atoms: N2_11  and  C9_13 
REMARK    7  A    between atoms: C9_13  and  C10_15 
REMARK    8  A    between atoms: C10_15  and  N3_16 
REMARK    9  A    between atoms: C11_17  and  S1_18 
REMARK   10  A    between atoms: S1_18  and  C12_19 
REMARK   11  A    between atoms: C12_19  and  C13_20 
REMARK       I    between atoms: C13_20  and  N4_22 
REMARK   12  A    between atoms: N4_22  and  C14_24 
REMARK   13  A    between atoms: C17_34  and  C18_35 
ROOT
HETATM    1  N3  UNL     1      21.060  26.010  19.211  1.00  0.00    -0.302 N 
HETATM    2  C11 UNL     1      20.531  26.582  18.073  1.00  0.00     0.163 A 
HETATM    3  N6  UNL     1      20.753  27.890  18.155  1.00  0.00    -0.278 N 
ATOM      4  H6  UNL     1      20.475  28.579  17.456  1.00  0.00     0.189 HD
HETATM    5  N7  UNL     1      21.369  28.150  19.243  1.00  0.00    -0.283 N 
ATOM      6  H7  UNL     1      21.660  29.079  19.549  1.00  0.00     0.188 HD
HETATM    7  C17 UNL     1      21.577  26.977  19.939  1.00  0.00     0.135 A 
ENDROOT
BRANCH   1   8
HETATM    8  C10 UNL     1      21.036  24.587  19.369  1.00  0.00     0.235 C 
BRANCH   8   9
HETATM    9  C9  UNL     1      19.760  24.107  19.961  1.00  0.00     0.236 C 
HETATM   10  N2  UNL     1      18.811  23.494  19.115  1.00  0.00    -0.351 N 
ATOM     11  H2  UNL     1      19.038  23.409  18.124  1.00  0.00     0.163 HD
HETATM   12  O2  UNL     1      19.541  24.246  21.173  1.00  0.00    -0.272 OA
BRANCH  10  13
HETATM   13  C8  UNL     1      17.537  22.979  19.566  1.00  0.00     0.225 C 
BRANCH  13  14
HETATM   14  C7  UNL     1      17.112  21.748  18.867  1.00  0.00     0.238 C 
HETATM   15  N1  UNL     1      15.781  21.406  18.550  1.00  0.00    -0.344 N 
HETATM   16  O1  UNL     1      18.036  20.932  18.523  1.00  0.00    -0.272 OA
BRANCH  15  17
HETATM   17  C3  UNL     1      15.483  20.165  17.855  1.00  0.00     0.152 C 
BRANCH  17  18
HETATM   18  C2  UNL     1      14.593  19.292  18.680  1.00  0.00    -0.017 C 
HETATM   19  C1  UNL     1      14.587  17.987  18.471  1.00  0.00     0.008 C 
ENDBRANCH  17  18
ENDBRANCH  15  17
BRANCH  15  20
HETATM   20  C4  UNL     1      14.675  22.247  18.897  1.00  0.00     0.152 C 
BRANCH  20  21
HETATM   21  C5  UNL     1      14.478  23.413  18.009  1.00  0.00    -0.017 C 
HETATM   22  C6  UNL     1      14.422  23.337  16.686  1.00  0.00     0.008 C 
ENDBRANCH  20  21
ENDBRANCH  15  20
ENDBRANCH  13  14
ENDBRANCH  10  13
ENDBRANCH   8   9
ENDBRANCH   1   8
BRANCH   2  23
HETATM   23  S1  UNL     1      19.700  25.782  16.717  1.00  0.00    -0.083 SA
BRANCH  23  24
HETATM   24  C12 UNL     1      19.171  27.021  15.480  1.00  0.00     0.185 C 
BRANCH  24  25
HETATM   25  C13 UNL     1      20.271  27.912  15.110  1.00  0.00     0.233 C 
HETATM   26  O3  UNL     1      20.112  29.147  15.286  1.00  0.00    -0.272 OA
HETATM   27  N4  UNL     1      21.466  27.348  14.570  1.00  0.00    -0.306 N 
ATOM     28  H4  UNL     1      21.457  26.659  13.819  1.00  0.00     0.171 HD
BRANCH  27  29
HETATM   29  C14 UNL     1      22.584  27.785  15.117  1.00  0.00     0.150 A 
HETATM   30  N5  UNL     1      23.089  29.015  15.046  1.00  0.00    -0.346 N 
HETATM   31  C15 UNL     1      24.211  29.270  15.651  1.00  0.00     0.097 A 
ATOM     32  H5  UNL     1      22.603  29.746  14.525  1.00  0.00     0.167 HD
HETATM   33  C16 UNL     1      24.815  28.246  16.334  1.00  0.00     0.070 A 
HETATM   34  S2  UNL     1      23.731  26.955  16.070  1.00  0.00    -0.064 SA
ENDBRANCH  27  29
ENDBRANCH  24  25
ENDBRANCH  23  24
ENDBRANCH   2  23
BRANCH   7  35
HETATM   35  C18 UNL     1      22.328  26.942  21.191  1.00  0.00     0.016 A 
HETATM   36  C19 UNL     1      21.632  27.439  22.302  1.00  0.00     0.023 A 
HETATM   37  C20 UNL     1      22.136  27.433  23.579  1.00  0.00    -0.055 A 
HETATM   38  C21 UNL     1      21.375  27.964  24.746  1.00  0.00     0.049 C 
HETATM   39  C22 UNL     1      23.397  26.904  23.747  1.00  0.00    -0.056 A 
HETATM   40  C23 UNL     1      23.961  26.890  25.125  1.00  0.00     0.049 C 
HETATM   41  C24 UNL     1      24.089  26.413  22.668  1.00  0.00     0.015 A 
HETATM   42  C25 UNL     1      23.567  26.421  21.361  1.00  0.00    -0.048 A 
HETATM   43  C26 UNL     1      24.380  25.778  20.273  1.00  0.00     0.049 C 
ENDBRANCH   7  35
TORSDOF 13
ENDMDL
MODEL 4
REMARK VINA RESULT: -8.374462297      3.112      8.753
REMARK  13 active torsions:
REMARK  status: ('A' for Active; 'I' for Inactive)
REMARK    1  A    between atoms: C2_2  and  C3_3 
REMARK    2  A    between atoms: C3_3  and  N1_4 
REMARK    3  A    between atoms: N1_4  and  C4_5 
REMARK       I    between atoms: N1_4  and  C7_8 
REMARK    4  A    between atoms: C4_5  and  C5_6 
REMARK    5  A    between atoms: C7_8  and  C8_10 
REMARK    6  A    between atoms: C8_10  and  N2_11 
REMARK       I    between atoms: N2_11  and  C9_13 
REMARK    7  A    between atoms: C9_13  and  C10_15 
REMARK    8  A    between atoms: C10_15  and  N3_16 
REMARK    9  A    between atoms: C11_17  and  S1_18 
REMARK   10  A    between atoms: S1_18  and  C12_19 
REMARK   11  A    between atoms: C12_19  and  C13_20 
REMARK       I    between atoms: C13_20  and  N4_22 
REMARK   12  A    between atoms: N4_22  and  C14_24 
REMARK   13  A    between atoms: C17_34  and  C18_35 
ROOT
HETATM    1  N3  UNL     1      19.124  24.870  18.540  1.00  0.00    -0.302 N 
HETATM    2  C11 UNL     1      18.096  24.479  19.372  1.00  0.00     0.163 A 
HETATM    3  N6  UNL     1      16.999  25.103  18.955  1.00  0.00    -0.278 N 
ATOM      4  H6  UNL     1      16.074  25.012  19.376  1.00  0.00     0.189 HD
HETATM    5  N7  UNL     1      17.282  25.833  17.946  1.00  0.00    -0.283 N 
ATOM      6  H7  UNL     1      16.619  26.415  17.434  1.00  0.00     0.188 HD
HETATM    7  C17 UNL     1      18.626  25.710  17.657  1.00  0.00     0.135 A 
ENDROOT
BRANCH   1   8
HETATM    8  C10 UNL     1      20.427  24.296  18.702  1.00  0.00     0.235 C 
BRANCH   8   9
HETATM    9  C9  UNL     1      21.330  25.166  19.501  1.00  0.00     0.236 C 
HETATM   10  N2  UNL     1      22.716  24.902  19.478  1.00  0.00    -0.351 N 
ATOM     11  H2  UNL     1      23.044  24.118  18.915  1.00  0.00     0.163 HD
HETATM   12  O2  UNL     1      20.867  26.100  20.172  1.00  0.00    -0.272 OA
BRANCH  10  13
HETATM   13  C8  UNL     1      23.700  25.676  20.204  1.00  0.00     0.225 C 
BRANCH  13  14
HETATM   14  C7  UNL     1      24.538  26.532  19.340  1.00  0.00     0.238 C 
HETATM   15  N1  UNL     1      25.829  26.208  18.873  1.00  0.00    -0.344 N 
HETATM   16  O1  UNL     1      24.042  27.659  18.991  1.00  0.00    -0.272 OA
BRANCH  15  17
HETATM   17  C3  UNL     1      26.560  27.133  18.023  1.00  0.00     0.152 C 
BRANCH  17  18
HETATM   18  C2  UNL     1      26.498  26.704  16.592  1.00  0.00    -0.017 C 
HETATM   19  C1  UNL     1      25.539  27.174  15.813  1.00  0.00     0.008 C 
ENDBRANCH  17  18
ENDBRANCH  15  17
BRANCH  15  20
HETATM   20  C4  UNL     1      26.474  24.976  19.211  1.00  0.00     0.152 C 
BRANCH  20  21
HETATM   21  C5  UNL     1      26.082  23.819  18.378  1.00  0.00    -0.017 C 
HETATM   22  C6  UNL     1      25.928  22.587  18.845  1.00  0.00     0.008 C 
ENDBRANCH  20  21
ENDBRANCH  15  20
ENDBRANCH  13  14
ENDBRANCH  10  13
ENDBRANCH   8   9
ENDBRANCH   1   8
BRANCH   2  23
HETATM   23  S1  UNL     1      18.157  23.359  20.755  1.00  0.00    -0.083 SA
BRANCH  23  24
HETATM   24  C12 UNL     1      18.192  21.628  20.165  1.00  0.00     0.185 C 
BRANCH  24  25
HETATM   25  C13 UNL     1      17.338  21.445  18.991  1.00  0.00     0.233 C 
HETATM   26  O3  UNL     1      17.877  21.039  17.930  1.00  0.00    -0.272 OA
HETATM   27  N4  UNL     1      15.944  21.733  19.098  1.00  0.00    -0.306 N 
ATOM     28  H4  UNL     1      15.592  22.594  19.514  1.00  0.00     0.171 HD
BRANCH  27  29
HETATM   29  C14 UNL     1      15.145  20.800  18.617  1.00  0.00     0.150 A 
HETATM   30  N5  UNL     1      15.350  19.485  18.617  1.00  0.00    -0.346 N 
HETATM   31  C15 UNL     1      14.447  18.708  18.096  1.00  0.00     0.097 A 
ATOM     32  H5  UNL     1      16.201  19.092  19.020  1.00  0.00     0.167 HD
HETATM   33  C16 UNL     1      13.325  19.296  17.570  1.00  0.00     0.070 A 
HETATM   34  S2  UNL     1      13.626  20.952  17.854  1.00  0.00    -0.064 SA
ENDBRANCH  27  29
ENDBRANCH  24  25
ENDBRANCH  23  24
ENDBRANCH   2  23
BRANCH   7  35
HETATM   35  C18 UNL     1      19.234  26.367  16.504  1.00  0.00     0.016 A 
HETATM   36  C19 UNL     1      20.283  27.243  16.820  1.00  0.00     0.023 A 
HETATM   37  C20 UNL     1      21.027  27.907  15.875  1.00  0.00    -0.055 A 
HETATM   38  C21 UNL     1      22.141  28.831  16.236  1.00  0.00     0.049 C 
HETATM   39  C22 UNL     1      20.702  27.681  14.556  1.00  0.00    -0.056 A 
HETATM   40  C23 UNL     1      21.498  28.393  13.518  1.00  0.00     0.049 C 
HETATM   41  C24 UNL     1      19.679  26.825  14.234  1.00  0.00     0.015 A 
HETATM   42  C25 UNL     1      18.920  26.145  15.206  1.00  0.00    -0.048 A 
HETATM   43  C26 UNL     1      17.881  25.168  14.732  1.00  0.00     0.049 C 
ENDBRANCH   7  35
TORSDOF 13
ENDMDL
MODEL 5
REMARK VINA RESULT: -8.360994994      3.164      8.283
REMARK  13 active torsions:
REMARK  status: ('A' for Active; 'I' for Inactive)
REMARK    1  A    between atoms: C2_2  and  C3_3 
REMARK    2  A    between atoms: C3_3  and  N1_4 
REMARK    3  A    between atoms: N1_4  and  C4_5 
REMARK       I    between atoms: N1_4  and  C7_8 
REMARK    4  A    between atoms: C4_5  and  C5_6 
REMARK    5  A    between atoms: C7_8  and  C8_10 
REMARK    6  A    between atoms: C8_10  and  N2_11 
REMARK       I    between atoms: N2_11  and  C9_13 
REMARK    7  A    between atoms: C9_13  and  C10_15 
REMARK    8  A    between atoms: C10_15  and  N3_16 
REMARK    9  A    between atoms: C11_17  and  S1_18 
REMARK   10  A    between atoms: S1_18  and  C12_19 
REMARK   11  A    between atoms: C12_19  and  C13_20 
REMARK       I    between atoms: C13_20  and  N4_22 
REMARK   12  A    between atoms: N4_22  and  C14_24 
REMARK   13  A    between atoms: C17_34  and  C18_35 
ROOT
HETATM    1  N3  UNL     1      18.661  24.742  18.307  1.00  0.00    -0.302 N 
HETATM    2  C11 UNL     1      17.558  24.390  19.056  1.00  0.00     0.163 A 
HETATM    3  N6  UNL     1      16.555  25.167  18.660  1.00  0.00    -0.278 N 
ATOM      4  H6  UNL     1      15.606  25.139  19.033  1.00  0.00     0.189 HD
HETATM    5  N7  UNL     1      16.962  25.952  17.739  1.00  0.00    -0.283 N 
ATOM      6  H7  UNL     1      16.390  26.649  17.261  1.00  0.00     0.188 HD
HETATM    7  C17 UNL     1      18.298  25.710  17.492  1.00  0.00     0.135 A 
ENDROOT
BRANCH   1   8
HETATM    8  C10 UNL     1      19.887  24.017  18.462  1.00  0.00     0.235 C 
BRANCH   8   9
HETATM    9  C9  UNL     1      20.812  24.673  19.423  1.00  0.00     0.236 C 
HETATM   10  N2  UNL     1      22.188  24.715  19.113  1.00  0.00    -0.351 N 
ATOM     11  H2  UNL     1      22.495  24.286  18.240  1.00  0.00     0.163 HD
HETATM   12  O2  UNL     1      20.376  25.169  20.471  1.00  0.00    -0.272 OA
BRANCH  10  13
HETATM   13  C8  UNL     1      23.190  25.329  19.958  1.00  0.00     0.225 C 
BRANCH  13  14
HETATM   14  C7  UNL     1      23.841  26.507  19.348  1.00  0.00     0.238 C 
HETATM   15  N1  UNL     1      24.899  26.465  18.416  1.00  0.00    -0.344 N 
HETATM   16  O1  UNL     1      23.400  27.655  19.700  1.00  0.00    -0.272 OA
BRANCH  15  17
HETATM   17  C3  UNL     1      25.460  27.694  17.881  1.00  0.00     0.152 C 
BRANCH  17  18
HETATM   18  C2  UNL     1      25.908  27.505  16.467  1.00  0.00    -0.017 C 
HETATM   19  C1  UNL     1      25.705  28.469  15.586  1.00  0.00     0.008 C 
ENDBRANCH  17  18
ENDBRANCH  15  17
BRANCH  15  20
HETATM   20  C4  UNL     1      25.467  25.232  17.964  1.00  0.00     0.152 C 
BRANCH  20  21
HETATM   21  C5  UNL     1      26.571  24.711  18.799  1.00  0.00    -0.017 C 
HETATM   22  C6  UNL     1      26.527  23.557  19.452  1.00  0.00     0.008 C 
ENDBRANCH  20  21
ENDBRANCH  15  20
ENDBRANCH  13  14
ENDBRANCH  10  13
ENDBRANCH   8   9
ENDBRANCH   1   8
BRANCH   2  23
HETATM   23  S1  UNL     1      17.432  23.146  20.323  1.00  0.00    -0.083 SA
BRANCH  23  24
HETATM   24  C12 UNL     1      17.688  21.484  19.605  1.00  0.00     0.185 C 
BRANCH  24  25
HETATM   25  C13 UNL     1      16.639  21.150  18.641  1.00  0.00     0.233 C 
HETATM   26  O3  UNL     1      15.551  20.705  19.087  1.00  0.00    -0.272 OA
HETATM   27  N4  UNL     1      16.892  21.341  17.249  1.00  0.00    -0.306 N 
ATOM     28  H4  UNL     1      17.743  21.010  16.796  1.00  0.00     0.171 HD
BRANCH  27  29
HETATM   29  C14 UNL     1      15.942  21.978  16.593  1.00  0.00     0.150 A 
HETATM   30  N5  UNL     1      14.942  22.689  17.111  1.00  0.00    -0.346 N 
HETATM   31  C15 UNL     1      14.090  23.252  16.306  1.00  0.00     0.097 A 
ATOM     32  H5  UNL     1      14.846  22.790  18.121  1.00  0.00     0.167 HD
HETATM   33  C16 UNL     1      14.272  23.079  14.958  1.00  0.00     0.070 A 
HETATM   34  S2  UNL     1      15.673  22.105  14.912  1.00  0.00    -0.064 SA
ENDBRANCH  27  29
ENDBRANCH  24  25
ENDBRANCH  23  24
ENDBRANCH   2  23
BRANCH   7  35
HETATM   35  C18 UNL     1      19.028  26.401  16.433  1.00  0.00     0.016 A 
HETATM   36  C19 UNL     1      20.131  27.144  16.877  1.00  0.00     0.023 A 
HETATM   37  C20 UNL     1      20.986  27.812  16.034  1.00  0.00    -0.055 A 
HETATM   38  C21 UNL     1      22.155  28.593  16.529  1.00  0.00     0.049 C 
HETATM   39  C22 UNL     1      20.718  27.730  14.685  1.00  0.00    -0.056 A 
HETATM   40  C23 UNL     1      21.632  28.449  13.756  1.00  0.00     0.049 C 
HETATM   41  C24 UNL     1      19.642  27.005  14.238  1.00  0.00     0.015 A 
HETATM   42  C25 UNL     1      18.770  26.321  15.106  1.00  0.00    -0.048 A 
HETATM   43  C26 UNL     1      17.677  25.490  14.497  1.00  0.00     0.049 C 
ENDBRANCH   7  35
TORSDOF 13
ENDMDL
