MODEL 1
REMARK VINA RESULT: -8.470992121      0.000      0.000
REMARK  13 active torsions:
REMARK  status: ('A' for Active; 'I' for Inactive)
REMARK    1  A    between atoms: C2_2  and  C3_3 
REMARK    2  A    between atoms: C3_3  and  N1_4 
REMARK       I    between atoms: N1_4  and  C4_6 
REMARK    3  A    between atoms: C4_6  and  C5_8 
REMARK    4  A    between atoms: C5_8  and  C6_9 
REMARK    5  A    between atoms: C5_8  and  C23_37 
REMARK    6  A    between atoms: C6_9  and  C7_10 
REMARK       I    between atoms: C7_10  and  N2_12 
REMARK    7  A    between atoms: C8_13  and  C9_14 
REMARK       I    between atoms: C9_14  and  N3_16 
REMARK    8  A    between atoms: N3_16  and  C10_18 
REMARK    9  A    between atoms: C10_18  and  C11_19 
REMARK       I    between atoms: N5_23  and  C13_24 
REMARK   10  A    between atoms: C13_24  and  O5_26 
REMARK   11  A    between atoms: O5_26  and  C14_27 
REMARK   12  A    between atoms: C14_27  and  C15_28 
REMARK   13  A    between atoms: C23_37  and  C24_38 
ROOT
HETATM    1  C7  UNL     1      21.283  26.665  18.130  1.00  0.00     0.222 C 
HETATM    2  O2  UNL     1      22.457  26.970  18.406  1.00  0.00    -0.273 OA
HETATM    3  N2  UNL     1      20.906  26.818  16.735  1.00  0.00    -0.320 N 
HETATM    4  C8  UNL     1      19.586  26.509  16.276  1.00  0.00     0.194 C 
HETATM    5  C18 UNL     1      19.243  27.354  15.080  1.00  0.00     0.078 C 
HETATM    6  C19 UNL     1      18.108  26.904  14.259  1.00  0.00     0.024 C 
HETATM    7  S1  UNL     1      20.853  27.153  14.203  1.00  0.00    -0.131 SA
HETATM    8  C20 UNL     1      21.840  27.281  15.743  1.00  0.00     0.078 C 
HETATM    9  C21 UNL     1      23.145  26.597  15.674  1.00  0.00     0.050 C 
HETATM   10  C22 UNL     1      22.124  28.776  15.902  1.00  0.00     0.050 C 
ENDROOT
BRANCH   4  11
HETATM   11  C9  UNL     1      19.369  25.071  15.979  1.00  0.00     0.242 C 
HETATM   12  O3  UNL     1      20.217  24.369  15.366  1.00  0.00    -0.271 OA
HETATM   13  N3  UNL     1      18.186  24.395  16.367  1.00  0.00    -0.355 N 
ATOM     14  H3  UNL     1      17.471  24.930  16.861  1.00  0.00     0.162 HD
BRANCH  13  15
HETATM   15  C10 UNL     1      17.926  22.997  16.109  1.00  0.00     0.164 C 
BRANCH  15  16
HETATM   16  C11 UNL     1      16.710  22.535  16.862  1.00  0.00    -0.006 A 
HETATM   17  C12 UNL     1      15.686  23.327  17.341  1.00  0.00     0.118 A 
HETATM   18  N4  UNL     1      14.806  22.516  17.945  1.00  0.00    -0.301 N 
HETATM   19  N5  UNL     1      15.222  21.257  17.873  1.00  0.00    -0.210 N 
ATOM     20  H4  UNL     1      13.943  22.821  18.394  1.00  0.00     0.186 HD
HETATM   21  C13 UNL     1      14.582  20.097  18.388  1.00  0.00     0.386 C 
HETATM   22  C17 UNL     1      16.408  21.250  17.202  1.00  0.00     0.132 A 
HETATM   23  O4  UNL     1      15.103  18.974  18.240  1.00  0.00    -0.236 OA
BRANCH  21  24
HETATM   24  O5  UNL     1      13.380  20.258  19.049  1.00  0.00    -0.299 OA
BRANCH  24  25
HETATM   25  C14 UNL     1      12.420  19.226  19.128  1.00  0.00     0.207 C 
BRANCH  25  26
HETATM   26  C15 UNL     1      12.286  18.705  20.510  1.00  0.00    -0.011 C 
HETATM   27  C16 UNL     1      12.456  17.407  20.737  1.00  0.00     0.009 C 
ENDBRANCH  25  26
ENDBRANCH  24  25
ENDBRANCH  21  24
ENDBRANCH  15  16
ENDBRANCH  13  15
ENDBRANCH   4  11
BRANCH   1  28
HETATM   28  C6  UNL     1      20.363  26.185  19.153  1.00  0.00     0.117 C 
BRANCH  28  29
HETATM   29  C5  UNL     1      20.910  25.233  20.179  1.00  0.00     0.087 C 
BRANCH  29  30
HETATM   30  C4  UNL     1      21.837  25.899  21.063  1.00  0.00     0.222 C 
HETATM   31  N1  UNL     1      23.227  25.710  21.206  1.00  0.00    -0.357 N 
ATOM     32  H1  UNL     1      23.682  25.014  20.615  1.00  0.00     0.162 HD
HETATM   33  O1  UNL     1      21.326  26.794  21.833  1.00  0.00    -0.273 OA
BRANCH  31  34
HETATM   34  C3  UNL     1      24.042  26.444  22.140  1.00  0.00     0.149 C 
BRANCH  34  35
HETATM   35  C2  UNL     1      24.319  25.720  23.398  1.00  0.00    -0.018 C 
HETATM   36  C1  UNL     1      24.497  26.357  24.547  1.00  0.00     0.008 C 
ENDBRANCH  34  35
ENDBRANCH  31  34
ENDBRANCH  29  30
BRANCH  29  37
HETATM   37  C23 UNL     1      19.738  24.586  20.860  1.00  0.00     0.019 C 
BRANCH  37  38
HETATM   38  C24 UNL     1      18.804  23.871  19.927  1.00  0.00    -0.014 A 
HETATM   39  C25 UNL     1      17.596  23.245  20.557  1.00  0.00     0.005 A 
HETATM   40  C26 UNL     1      18.050  21.860  20.173  1.00  0.00     0.001 A 
HETATM   41  C27 UNL     1      19.332  22.479  19.638  1.00  0.00     0.005 A 
ENDBRANCH  37  38
ENDBRANCH  29  37
ENDBRANCH  28  29
ENDBRANCH   1  28
TORSDOF 13
ENDMDL
MODEL 2
REMARK VINA RESULT: -8.422909333      1.332      1.555
REMARK  13 active torsions:
REMARK  status: ('A' for Active; 'I' for Inactive)
REMARK    1  A    between atoms: C2_2  and  C3_3 
REMARK    2  A    between atoms: C3_3  and  N1_4 
REMARK       I    between atoms: N1_4  and  C4_6 
REMARK    3  A    between atoms: C4_6  and  C5_8 
REMARK    4  A    between atoms: C5_8  and  C6_9 
REMARK    5  A    between atoms: C5_8  and  C23_37 
REMARK    6  A    between atoms: C6_9  and  C7_10 
REMARK       I    between atoms: C7_10  and  N2_12 
REMARK    7  A    between atoms: C8_13  and  C9_14 
REMARK       I    between atoms: C9_14  and  N3_16 
REMARK    8  A    between atoms: N3_16  and  C10_18 
REMARK    9  A    between atoms: C10_18  and  C11_19 
REMARK       I    between atoms: N5_23  and  C13_24 
REMARK   10  A    between atoms: C13_24  and  O5_26 
REMARK   11  A    between atoms: O5_26  and  C14_27 
REMARK   12  A    between atoms: C14_27  and  C15_28 
REMARK   13  A    between atoms: C23_37  and  C24_38 
ROOT
HETATM    1  C7  UNL     1      21.607  27.135  17.907  1.00  0.00     0.222 C 
HETATM    2  O2  UNL     1      22.777  27.515  18.086  1.00  0.00    -0.273 OA
HETATM    3  N2  UNL     1      21.128  27.197  16.537  1.00  0.00    -0.320 N 
HETATM    4  C8  UNL     1      19.800  26.795  16.186  1.00  0.00     0.194 C 
HETATM    5  C18 UNL     1      19.330  27.559  14.980  1.00  0.00     0.078 C 
HETATM    6  C19 UNL     1      18.169  27.008  14.262  1.00  0.00     0.024 C 
HETATM    7  S1  UNL     1      20.885  27.399  14.002  1.00  0.00    -0.131 SA
HETATM    8  C20 UNL     1      21.965  27.658  15.460  1.00  0.00     0.078 C 
HETATM    9  C21 UNL     1      23.299  27.041  15.332  1.00  0.00     0.050 C 
HETATM   10  C22 UNL     1      22.175  29.171  15.529  1.00  0.00     0.050 C 
ENDROOT
BRANCH   4  11
HETATM   11  C9  UNL     1      19.644  25.334  15.974  1.00  0.00     0.242 C 
HETATM   12  O3  UNL     1      20.535  24.630  15.426  1.00  0.00    -0.271 OA
HETATM   13  N3  UNL     1      18.478  24.638  16.374  1.00  0.00    -0.355 N 
ATOM     14  H3  UNL     1      17.731  25.174  16.816  1.00  0.00     0.162 HD
BRANCH  13  15
HETATM   15  C10 UNL     1      18.277  23.218  16.197  1.00  0.00     0.164 C 
BRANCH  15  16
HETATM   16  C11 UNL     1      17.076  22.750  16.969  1.00  0.00    -0.006 A 
HETATM   17  C12 UNL     1      16.094  23.543  17.527  1.00  0.00     0.118 A 
HETATM   18  N4  UNL     1      15.213  22.726  18.120  1.00  0.00    -0.301 N 
HETATM   19  N5  UNL     1      15.588  21.461  17.967  1.00  0.00    -0.210 N 
ATOM     20  H4  UNL     1      14.376  23.030  18.617  1.00  0.00     0.186 HD
HETATM   21  C13 UNL     1      14.933  20.294  18.444  1.00  0.00     0.386 C 
HETATM   22  C17 UNL     1      16.748  21.458  17.252  1.00  0.00     0.132 A 
HETATM   23  O4  UNL     1      15.415  19.166  18.218  1.00  0.00    -0.236 OA
BRANCH  21  24
HETATM   24  O5  UNL     1      13.760  20.453  19.157  1.00  0.00    -0.299 OA
BRANCH  24  25
HETATM   25  C14 UNL     1      12.810  19.417  19.283  1.00  0.00     0.207 C 
BRANCH  25  26
HETATM   26  C15 UNL     1      12.860  18.785  20.623  1.00  0.00    -0.011 C 
HETATM   27  C16 UNL     1      12.486  17.517  20.761  1.00  0.00     0.009 C 
ENDBRANCH  25  26
ENDBRANCH  24  25
ENDBRANCH  21  24
ENDBRANCH  15  16
ENDBRANCH  13  15
ENDBRANCH   4  11
BRANCH   1  28
HETATM   28  C6  UNL     1      20.787  26.659  19.014  1.00  0.00     0.117 C 
BRANCH  28  29
HETATM   29  C5  UNL     1      21.063  25.275  19.531  1.00  0.00     0.087 C 
BRANCH  29  30
HETATM   30  C4  UNL     1      22.399  25.179  20.069  1.00  0.00     0.222 C 
HETATM   31  N1  UNL     1      23.610  24.888  19.408  1.00  0.00    -0.357 N 
ATOM     32  H1  UNL     1      23.580  24.718  18.402  1.00  0.00     0.162 HD
HETATM   33  O1  UNL     1      22.505  25.388  21.334  1.00  0.00    -0.273 OA
BRANCH  31  34
HETATM   34  C3  UNL     1      24.887  24.816  20.071  1.00  0.00     0.149 C 
BRANCH  34  35
HETATM   35  C2  UNL     1      25.961  24.225  19.247  1.00  0.00    -0.018 C 
HETATM   36  C1  UNL     1      25.944  22.947  18.889  1.00  0.00     0.008 C 
ENDBRANCH  34  35
ENDBRANCH  31  34
ENDBRANCH  29  30
BRANCH  29  37
HETATM   37  C23 UNL     1      19.965  24.929  20.494  1.00  0.00     0.019 C 
BRANCH  37  38
HETATM   38  C24 UNL     1      18.872  24.087  19.902  1.00  0.00    -0.014 A 
HETATM   39  C25 UNL     1      17.848  23.565  20.865  1.00  0.00     0.005 A 
HETATM   40  C26 UNL     1      18.248  22.137  20.599  1.00  0.00     0.001 A 
HETATM   41  C27 UNL     1      19.365  22.665  19.711  1.00  0.00     0.005 A 
ENDBRANCH  37  38
ENDBRANCH  29  37
ENDBRANCH  28  29
ENDBRANCH   1  28
TORSDOF 13
ENDMDL
MODEL 3
REMARK VINA RESULT: -8.153713242      2.733      6.473
REMARK  13 active torsions:
REMARK  status: ('A' for Active; 'I' for Inactive)
REMARK    1  A    between atoms: C2_2  and  C3_3 
REMARK    2  A    between atoms: C3_3  and  N1_4 
REMARK       I    between atoms: N1_4  and  C4_6 
REMARK    3  A    between atoms: C4_6  and  C5_8 
REMARK    4  A    between atoms: C5_8  and  C6_9 
REMARK    5  A    between atoms: C5_8  and  C23_37 
REMARK    6  A    between atoms: C6_9  and  C7_10 
REMARK       I    between atoms: C7_10  and  N2_12 
REMARK    7  A    between atoms: C8_13  and  C9_14 
REMARK       I    between atoms: C9_14  and  N3_16 
REMARK    8  A    between atoms: N3_16  and  C10_18 
REMARK    9  A    between atoms: C10_18  and  C11_19 
REMARK       I    between atoms: N5_23  and  C13_24 
REMARK   10  A    between atoms: C13_24  and  O5_26 
REMARK   11  A    between atoms: O5_26  and  C14_27 
REMARK   12  A    between atoms: C14_27  and  C15_28 
REMARK   13  A    between atoms: C23_37  and  C24_38 
ROOT
HETATM    1  C7  UNL     1      20.059  24.760  17.188  1.00  0.00     0.222 C 
HETATM    2  O2  UNL     1      20.768  25.773  17.052  1.00  0.00    -0.273 OA
HETATM    3  N2  UNL     1      19.781  24.368  18.559  1.00  0.00    -0.320 N 
HETATM    4  C8  UNL     1      18.983  23.219  18.864  1.00  0.00     0.194 C 
HETATM    5  C18 UNL     1      19.398  22.638  20.187  1.00  0.00     0.078 C 
HETATM    6  C19 UNL     1      18.449  21.712  20.827  1.00  0.00     0.024 C 
HETATM    7  S1  UNL     1      19.524  24.236  21.097  1.00  0.00    -0.131 SA
HETATM    8  C20 UNL     1      20.285  25.116  19.680  1.00  0.00     0.078 C 
HETATM    9  C21 UNL     1      20.045  26.572  19.682  1.00  0.00     0.050 C 
HETATM   10  C22 UNL     1      21.791  24.909  19.854  1.00  0.00     0.050 C 
ENDROOT
BRANCH   4  11
HETATM   11  C9  UNL     1      17.521  23.473  18.841  1.00  0.00     0.242 C 
HETATM   12  O3  UNL     1      17.017  24.574  19.190  1.00  0.00    -0.271 OA
HETATM   13  N3  UNL     1      16.594  22.486  18.423  1.00  0.00    -0.355 N 
ATOM     14  H3  UNL     1      16.962  21.578  18.138  1.00  0.00     0.162 HD
BRANCH  13  15
HETATM   15  C10 UNL     1      15.164  22.681  18.375  1.00  0.00     0.164 C 
BRANCH  15  16
HETATM   16  C11 UNL     1      14.456  21.375  18.148  1.00  0.00    -0.006 A 
HETATM   17  C12 UNL     1      14.994  20.111  18.281  1.00  0.00     0.118 A 
HETATM   18  N4  UNL     1      14.024  19.234  17.988  1.00  0.00    -0.301 N 
HETATM   19  N5  UNL     1      12.905  19.877  17.677  1.00  0.00    -0.210 N 
ATOM     20  H4  UNL     1      14.129  18.219  18.003  1.00  0.00     0.186 HD
HETATM   21  C13 UNL     1      11.652  19.318  17.306  1.00  0.00     0.386 C 
HETATM   22  C17 UNL     1      13.156  21.213  17.770  1.00  0.00     0.132 A 
HETATM   23  O4  UNL     1      10.687  20.060  17.039  1.00  0.00    -0.236 OA
BRANCH  21  24
HETATM   24  O5  UNL     1      11.546  17.941  17.254  1.00  0.00    -0.299 OA
BRANCH  24  25
HETATM   25  C14 UNL     1      10.837  17.204  18.226  1.00  0.00     0.207 C 
BRANCH  25  26
HETATM   26  C15 UNL     1      11.037  17.754  19.588  1.00  0.00    -0.011 C 
HETATM   27  C16 UNL     1      12.007  17.264  20.354  1.00  0.00     0.009 C 
ENDBRANCH  25  26
ENDBRANCH  24  25
ENDBRANCH  21  24
ENDBRANCH  15  16
ENDBRANCH  13  15
ENDBRANCH   4  11
BRANCH   1  28
HETATM   28  C6  UNL     1      19.550  24.030  16.035  1.00  0.00     0.117 C 
BRANCH  28  29
HETATM   29  C5  UNL     1      18.569  24.742  15.147  1.00  0.00     0.087 C 
BRANCH  29  30
HETATM   30  C4  UNL     1      17.255  24.149  15.243  1.00  0.00     0.222 C 
HETATM   31  N1  UNL     1      16.767  22.961  14.662  1.00  0.00    -0.357 N 
ATOM     32  H1  UNL     1      17.404  22.409  14.087  1.00  0.00     0.162 HD
HETATM   33  O1  UNL     1      16.405  24.795  15.960  1.00  0.00    -0.273 OA
BRANCH  31  34
HETATM   34  C3  UNL     1      15.420  22.481  14.835  1.00  0.00     0.149 C 
BRANCH  34  35
HETATM   35  C2  UNL     1      14.979  21.534  13.790  1.00  0.00    -0.018 C 
HETATM   36  C1  UNL     1      14.118  20.559  14.049  1.00  0.00     0.008 C 
ENDBRANCH  34  35
ENDBRANCH  31  34
ENDBRANCH  29  30
BRANCH  29  37
HETATM   37  C23 UNL     1      18.632  26.202  15.490  1.00  0.00     0.019 C 
BRANCH  37  38
HETATM   38  C24 UNL     1      19.138  27.073  14.376  1.00  0.00    -0.014 A 
HETATM   39  C25 UNL     1      20.485  26.717  13.822  1.00  0.00     0.005 A 
HETATM   40  C26 UNL     1      21.078  28.023  14.284  1.00  0.00     0.001 A 
HETATM   41  C27 UNL     1      19.748  28.338  14.950  1.00  0.00     0.005 A 
ENDBRANCH  37  38
ENDBRANCH  29  37
ENDBRANCH  28  29
ENDBRANCH   1  28
TORSDOF 13
ENDMDL
MODEL 4
REMARK VINA RESULT: -8.113393350      1.434      1.759
REMARK  13 active torsions:
REMARK  status: ('A' for Active; 'I' for Inactive)
REMARK    1  A    between atoms: C2_2  and  C3_3 
REMARK    2  A    between atoms: C3_3  and  N1_4 
REMARK       I    between atoms: N1_4  and  C4_6 
REMARK    3  A    between atoms: C4_6  and  C5_8 
REMARK    4  A    between atoms: C5_8  and  C6_9 
REMARK    5  A    between atoms: C5_8  and  C23_37 
REMARK    6  A    between atoms: C6_9  and  C7_10 
REMARK       I    between atoms: C7_10  and  N2_12 
REMARK    7  A    between atoms: C8_13  and  C9_14 
REMARK       I    between atoms: C9_14  and  N3_16 
REMARK    8  A    between atoms: N3_16  and  C10_18 
REMARK    9  A    between atoms: C10_18  and  C11_19 
REMARK       I    between atoms: N5_23  and  C13_24 
REMARK   10  A    between atoms: C13_24  and  O5_26 
REMARK   11  A    between atoms: O5_26  and  C14_27 
REMARK   12  A    between atoms: C14_27  and  C15_28 
REMARK   13  A    between atoms: C23_37  and  C24_38 
ROOT
HETATM    1  C7  UNL     1      21.091  26.839  17.737  1.00  0.00     0.222 C 
HETATM    2  O2  UNL     1      22.212  27.368  17.638  1.00  0.00    -0.273 OA
HETATM    3  N2  UNL     1      20.358  26.682  16.493  1.00  0.00    -0.320 N 
HETATM    4  C8  UNL     1      19.054  26.093  16.459  1.00  0.00     0.194 C 
HETATM    5  C18 UNL     1      18.265  26.649  15.305  1.00  0.00     0.078 C 
HETATM    6  C19 UNL     1      17.074  25.889  14.893  1.00  0.00     0.024 C 
HETATM    7  S1  UNL     1      19.615  26.551  14.053  1.00  0.00    -0.131 SA
HETATM    8  C20 UNL     1      20.906  27.103  15.231  1.00  0.00     0.078 C 
HETATM    9  C21 UNL     1      22.263  26.631  14.894  1.00  0.00     0.050 C 
HETATM   10  C22 UNL     1      20.919  28.628  15.111  1.00  0.00     0.050 C 
ENDROOT
BRANCH   4  11
HETATM   11  C9  UNL     1      19.059  24.610  16.421  1.00  0.00     0.242 C 
HETATM   12  O3  UNL     1      20.107  23.940  16.213  1.00  0.00    -0.271 OA
HETATM   13  N3  UNL     1      17.880  23.850  16.616  1.00  0.00    -0.355 N 
ATOM     14  H3  UNL     1      17.009  24.355  16.782  1.00  0.00     0.162 HD
BRANCH  13  15
HETATM   15  C10 UNL     1      17.830  22.406  16.596  1.00  0.00     0.164 C 
BRANCH  15  16
HETATM   16  C11 UNL     1      16.649  21.904  17.379  1.00  0.00    -0.006 A 
HETATM   17  C12 UNL     1      15.720  22.670  18.052  1.00  0.00     0.118 A 
HETATM   18  N4  UNL     1      14.839  21.827  18.609  1.00  0.00    -0.301 N 
HETATM   19  N5  UNL     1      15.165  20.572  18.324  1.00  0.00    -0.210 N 
ATOM     20  H4  UNL     1      14.035  22.108  19.171  1.00  0.00     0.186 HD
HETATM   21  C13 UNL     1      14.492  19.385  18.723  1.00  0.00     0.386 C 
HETATM   22  C17 UNL     1      16.291  20.601  17.557  1.00  0.00     0.132 A 
HETATM   23  O4  UNL     1      14.926  18.269  18.372  1.00  0.00    -0.236 OA
BRANCH  21  24
HETATM   24  O5  UNL     1      13.359  19.511  19.502  1.00  0.00    -0.299 OA
BRANCH  24  25
HETATM   25  C14 UNL     1      13.227  18.863  20.750  1.00  0.00     0.207 C 
BRANCH  25  26
HETATM   26  C15 UNL     1      12.355  17.668  20.659  1.00  0.00    -0.011 C 
HETATM   27  C16 UNL     1      11.303  17.688  19.847  1.00  0.00     0.009 C 
ENDBRANCH  25  26
ENDBRANCH  24  25
ENDBRANCH  21  24
ENDBRANCH  15  16
ENDBRANCH  13  15
ENDBRANCH   4  11
BRANCH   1  28
HETATM   28  C6  UNL     1      20.566  26.409  19.027  1.00  0.00     0.117 C 
BRANCH  28  29
HETATM   29  C5  UNL     1      21.035  25.081  19.553  1.00  0.00     0.087 C 
BRANCH  29  30
HETATM   30  C4  UNL     1      22.395  25.163  20.032  1.00  0.00     0.222 C 
HETATM   31  N1  UNL     1      23.602  24.964  19.330  1.00  0.00    -0.357 N 
ATOM     32  H1  UNL     1      23.549  24.732  18.338  1.00  0.00     0.162 HD
HETATM   33  O1  UNL     1      22.530  25.458  21.276  1.00  0.00    -0.273 OA
BRANCH  31  34
HETATM   34  C3  UNL     1      24.905  25.071  19.935  1.00  0.00     0.149 C 
BRANCH  34  35
HETATM   35  C2  UNL     1      25.948  24.269  19.263  1.00  0.00    -0.018 C 
HETATM   36  C1  UNL     1      26.252  24.447  17.984  1.00  0.00     0.008 C 
ENDBRANCH  34  35
ENDBRANCH  31  34
ENDBRANCH  29  30
BRANCH  29  37
HETATM   37  C23 UNL     1      20.031  24.623  20.571  1.00  0.00     0.019 C 
BRANCH  37  38
HETATM   38  C24 UNL     1      18.904  23.812  20.000  1.00  0.00    -0.014 A 
HETATM   39  C25 UNL     1      17.909  23.281  20.987  1.00  0.00     0.005 A 
HETATM   40  C26 UNL     1      18.276  21.854  20.670  1.00  0.00     0.001 A 
HETATM   41  C27 UNL     1      19.367  22.388  19.754  1.00  0.00     0.005 A 
ENDBRANCH  37  38
ENDBRANCH  29  37
ENDBRANCH  28  29
ENDBRANCH   1  28
TORSDOF 13
ENDMDL
MODEL 5
REMARK VINA RESULT: -8.102373855      1.248      1.633
REMARK  13 active torsions:
REMARK  status: ('A' for Active; 'I' for Inactive)
REMARK    1  A    between atoms: C2_2  and  C3_3 
REMARK    2  A    between atoms: C3_3  and  N1_4 
REMARK       I    between atoms: N1_4  and  C4_6 
REMARK    3  A    between atoms: C4_6  and  C5_8 
REMARK    4  A    between atoms: C5_8  and  C6_9 
REMARK    5  A    between atoms: C5_8  and  C23_37 
REMARK    6  A    between atoms: C6_9  and  C7_10 
REMARK       I    between atoms: C7_10  and  N2_12 
REMARK    7  A    between atoms: C8_13  and  C9_14 
REMARK       I    between atoms: C9_14  and  N3_16 
REMARK    8  A    between atoms: N3_16  and  C10_18 
REMARK    9  A    between atoms: C10_18  and  C11_19 
REMARK       I    between atoms: N5_23  and  C13_24 
REMARK   10  A    between atoms: C13_24  and  O5_26 
REMARK   11  A    between atoms: O5_26  and  C14_27 
REMARK   12  A    between atoms: C14_27  and  C15_28 
REMARK   13  A    between atoms: C23_37  and  C24_38 
ROOT
HETATM    1  C7  UNL     1      21.311  26.731  18.185  1.00  0.00     0.222 C 
HETATM    2  O2  UNL     1      22.469  27.097  18.452  1.00  0.00    -0.273 OA
HETATM    3  N2  UNL     1      20.931  26.820  16.786  1.00  0.00    -0.320 N 
HETATM    4  C8  UNL     1      19.627  26.437  16.336  1.00  0.00     0.194 C 
HETATM    5  C18 UNL     1      19.249  27.225  15.112  1.00  0.00     0.078 C 
HETATM    6  C19 UNL     1      18.137  26.697  14.306  1.00  0.00     0.024 C 
HETATM    7  S1  UNL     1      20.868  27.066  14.244  1.00  0.00    -0.131 SA
HETATM    8  C20 UNL     1      21.845  27.291  15.779  1.00  0.00     0.078 C 
HETATM    9  C21 UNL     1      23.180  26.663  15.734  1.00  0.00     0.050 C 
HETATM   10  C22 UNL     1      22.062  28.801  15.888  1.00  0.00     0.050 C 
ENDROOT
BRANCH   4  11
HETATM   11  C9  UNL     1      19.475  24.981  16.087  1.00  0.00     0.242 C 
HETATM   12  O3  UNL     1      20.364  24.293  15.517  1.00  0.00    -0.271 OA
HETATM   13  N3  UNL     1      18.313  24.271  16.477  1.00  0.00    -0.355 N 
ATOM     14  H3  UNL     1      17.567  24.793  16.936  1.00  0.00     0.162 HD
BRANCH  13  15
HETATM   15  C10 UNL     1      18.116  22.855  16.265  1.00  0.00     0.164 C 
BRANCH  15  16
HETATM   16  C11 UNL     1      16.679  22.479  16.493  1.00  0.00    -0.006 A 
HETATM   17  C12 UNL     1      15.576  23.291  16.324  1.00  0.00     0.118 A 
HETATM   18  N4  UNL     1      14.495  22.562  16.633  1.00  0.00    -0.301 N 
HETATM   19  N5  UNL     1      14.858  21.335  16.989  1.00  0.00    -0.210 N 
ATOM     20  H4  UNL     1      13.533  22.900  16.599  1.00  0.00     0.186 HD
HETATM   21  C13 UNL     1      14.019  20.260  17.388  1.00  0.00     0.386 C 
HETATM   22  C17 UNL     1      16.216  21.266  16.908  1.00  0.00     0.132 A 
HETATM   23  O4  UNL     1      14.514  19.157  17.696  1.00  0.00    -0.236 OA
BRANCH  21  24
HETATM   24  O5  UNL     1      12.655  20.478  17.423  1.00  0.00    -0.299 OA
BRANCH  24  25
HETATM   25  C14 UNL     1      11.764  19.815  16.551  1.00  0.00     0.207 C 
BRANCH  25  26
HETATM   26  C15 UNL     1      11.919  20.276  15.151  1.00  0.00    -0.011 C 
HETATM   27  C16 UNL     1      11.410  21.450  14.791  1.00  0.00     0.009 C 
ENDBRANCH  25  26
ENDBRANCH  24  25
ENDBRANCH  21  24
ENDBRANCH  15  16
ENDBRANCH  13  15
ENDBRANCH   4  11
BRANCH   1  28
HETATM   28  C6  UNL     1      20.411  26.244  19.223  1.00  0.00     0.117 C 
BRANCH  28  29
HETATM   29  C5  UNL     1      20.966  25.253  20.206  1.00  0.00     0.087 C 
BRANCH  29  30
HETATM   30  C4  UNL     1      21.898  25.884  21.111  1.00  0.00     0.222 C 
HETATM   31  N1  UNL     1      23.299  25.752  21.185  1.00  0.00    -0.357 N 
ATOM     32  H1  UNL     1      23.761  25.132  20.518  1.00  0.00     0.162 HD
HETATM   33  O1  UNL     1      21.379  26.683  21.975  1.00  0.00    -0.273 OA
BRANCH  31  34
HETATM   34  C3  UNL     1      24.118  26.441  22.150  1.00  0.00     0.149 C 
BRANCH  34  35
HETATM   35  C2  UNL     1      24.493  25.620  23.319  1.00  0.00    -0.018 C 
HETATM   36  C1  UNL     1      24.591  26.139  24.536  1.00  0.00     0.008 C 
ENDBRANCH  34  35
ENDBRANCH  31  34
ENDBRANCH  29  30
BRANCH  29  37
HETATM   37  C23 UNL     1      19.800  24.577  20.868  1.00  0.00     0.019 C 
BRANCH  37  38
HETATM   38  C24 UNL     1      18.859  23.901  19.912  1.00  0.00    -0.014 A 
HETATM   39  C25 UNL     1      17.603  23.341  20.510  1.00  0.00     0.005 A 
HETATM   40  C26 UNL     1      17.998  21.932  20.151  1.00  0.00     0.001 A 
HETATM   41  C27 UNL     1      19.325  22.481  19.649  1.00  0.00     0.005 A 
ENDBRANCH  37  38
ENDBRANCH  29  37
ENDBRANCH  28  29
ENDBRANCH   1  28
TORSDOF 13
ENDMDL
