MODEL 1
REMARK VINA RESULT: -8.929175785      0.000      0.000
REMARK  14 active torsions:
REMARK  status: ('A' for Active; 'I' for Inactive)
REMARK    1  A    between atoms: C2_2  and  C3_3 
REMARK    2  A    between atoms: C3_3  and  N1_4 
REMARK       I    between atoms: N1_4  and  C4_6 
REMARK    3  A    between atoms: C4_6  and  C5_8 
REMARK    4  A    between atoms: C5_8  and  C6_9 
REMARK    5  A    between atoms: C5_8  and  O2_16 
REMARK    6  A    between atoms: C6_9  and  C7_10 
REMARK    7  A    between atoms: C7_10  and  N2_11 
REMARK    8  A    between atoms: O2_16  and  C12_17 
REMARK       I    between atoms: C12_17  and  N3_19 
REMARK    9  A    between atoms: C15_22  and  C16_23 
REMARK   10  A    between atoms: C16_23  and  N4_24 
REMARK       I    between atoms: N4_24  and  C17_26 
REMARK   11  A    between atoms: C17_26  and  C18_28 
REMARK   12  A    between atoms: C20_30  and  C21_31 
REMARK   13  A    between atoms: N6_37  and  C25_38 
REMARK   14  A    between atoms: C25_38  and  C26_39 
ROOT
HETATM    1  C26 UNL     1      15.018  21.682  14.711  1.00  0.00     0.145 C 
HETATM    2  C27 UNL     1      14.043  22.784  14.890  1.00  0.00     0.060 C 
HETATM    3  N7  UNL     1      13.283  23.641  15.051  1.00  0.00    -0.197 NA
ENDROOT
BRANCH   1   4
HETATM    4  C25 UNL     1      15.978  21.617  15.854  1.00  0.00     0.163 C 
BRANCH   4   5
HETATM    5  N6  UNL     1      15.360  21.121  17.060  1.00  0.00    -0.286 N 
HETATM    6  C18 UNL     1      15.130  21.723  18.213  1.00  0.00     0.120 A 
HETATM    7  C19 UNL     1      14.503  20.829  19.043  1.00  0.00     0.064 A 
HETATM    8  C20 UNL     1      14.359  19.651  18.351  1.00  0.00     0.036 A 
HETATM    9  N5  UNL     1      14.894  19.871  17.148  1.00  0.00    -0.301 N 
ATOM     10  H5  UNL     1      14.940  19.180  16.398  1.00  0.00     0.187 HD
BRANCH   6  11
HETATM   11  C17 UNL     1      15.481  23.124  18.542  1.00  0.00     0.269 C 
HETATM   12  N4  UNL     1      16.629  23.354  19.328  1.00  0.00    -0.355 N 
ATOM     13  H4  UNL     1      17.123  22.522  19.651  1.00  0.00     0.162 HD
HETATM   14  O4  UNL     1      14.780  24.068  18.134  1.00  0.00    -0.266 OA
BRANCH  12  15
HETATM   15  C16 UNL     1      17.179  24.597  19.724  1.00  0.00     0.127 C 
BRANCH  15  16
HETATM   16  C15 UNL     1      18.620  24.736  19.592  1.00  0.00     0.006 C 
HETATM   17  C14 UNL     1      19.436  23.757  18.847  1.00  0.00     0.026 C 
HETATM   18  C13 UNL     1      20.864  24.344  18.724  1.00  0.00     0.128 C 
HETATM   19  N3  UNL     1      20.980  25.535  19.538  1.00  0.00    -0.328 N 
HETATM   20  C12 UNL     1      21.491  26.741  18.971  1.00  0.00     0.363 C 
HETATM   21  C29 UNL     1      20.578  25.471  20.937  1.00  0.00     0.128 C 
HETATM   22  O3  UNL     1      21.527  27.773  19.689  1.00  0.00    -0.238 OA
HETATM   23  C28 UNL     1      19.189  24.899  21.032  1.00  0.00     0.026 C 
BRANCH  20  24
HETATM   24  O2  UNL     1      21.953  26.859  17.683  1.00  0.00    -0.289 OA
BRANCH  24  25
HETATM   25  C5  UNL     1      21.681  28.050  16.905  1.00  0.00     0.227 C 
BRANCH  25  26
HETATM   26  C4  UNL     1      20.602  27.794  15.956  1.00  0.00     0.247 C 
HETATM   27  N1  UNL     1      20.076  26.547  15.620  1.00  0.00    -0.359 N 
ATOM     28  H1  UNL     1      20.454  25.709  16.062  1.00  0.00     0.162 HD
HETATM   29  O1  UNL     1      20.092  28.809  15.374  1.00  0.00    -0.271 OA
BRANCH  27  30
HETATM   30  C3  UNL     1      19.010  26.421  14.663  1.00  0.00     0.122 C 
BRANCH  30  31
HETATM   31  C2  UNL     1      18.068  25.281  14.955  1.00  0.00     0.015 C 
HETATM   32  C1  UNL     1      17.110  25.563  16.082  1.00  0.00     0.006 C 
ENDBRANCH  30  31
ENDBRANCH  27  30
ENDBRANCH  25  26
BRANCH  25  33
HETATM   33  C6  UNL     1      22.998  28.477  16.301  1.00  0.00     0.072 C 
BRANCH  33  34
HETATM   34  C7  UNL     1      23.834  27.308  15.886  1.00  0.00     0.275 C 
BRANCH  34  35
HETATM   35  N2  UNL     1      25.153  27.333  16.518  1.00  0.00     0.088 N 
HETATM   36  C8  UNL     1      26.142  27.367  15.474  1.00  0.00     0.272 C 
HETATM   37  C9  UNL     1      27.091  26.222  15.661  1.00  0.00     0.032 C 
HETATM   38  C10 UNL     1      26.720  25.595  16.994  1.00  0.00     0.032 C 
HETATM   39  C11 UNL     1      25.325  26.085  17.217  1.00  0.00     0.272 C 
ENDBRANCH  34  35
ENDBRANCH  33  34
ENDBRANCH  25  33
ENDBRANCH  24  25
ENDBRANCH  20  24
ENDBRANCH  15  16
ENDBRANCH  12  15
ENDBRANCH   6  11
BRANCH   8  40
HETATM   40  C21 UNL     1      13.736  18.426  18.902  1.00  0.00    -0.007 C 
HETATM   41  C22 UNL     1      13.585  18.485  20.411  1.00  0.00     0.021 C 
HETATM   42  C23 UNL     1      12.355  18.322  18.282  1.00  0.00     0.021 C 
HETATM   43  C24 UNL     1      14.601  17.242  18.500  1.00  0.00     0.021 C 
ENDBRANCH   8  40
ENDBRANCH   4   5
ENDBRANCH   1   4
TORSDOF 14
ENDMDL
MODEL 2
REMARK VINA RESULT: -8.759413030      1.252      1.719
REMARK  14 active torsions:
REMARK  status: ('A' for Active; 'I' for Inactive)
REMARK    1  A    between atoms: C2_2  and  C3_3 
REMARK    2  A    between atoms: C3_3  and  N1_4 
REMARK       I    between atoms: N1_4  and  C4_6 
REMARK    3  A    between atoms: C4_6  and  C5_8 
REMARK    4  A    between atoms: C5_8  and  C6_9 
REMARK    5  A    between atoms: C5_8  and  O2_16 
REMARK    6  A    between atoms: C6_9  and  C7_10 
REMARK    7  A    between atoms: C7_10  and  N2_11 
REMARK    8  A    between atoms: O2_16  and  C12_17 
REMARK       I    between atoms: C12_17  and  N3_19 
REMARK    9  A    between atoms: C15_22  and  C16_23 
REMARK   10  A    between atoms: C16_23  and  N4_24 
REMARK       I    between atoms: N4_24  and  C17_26 
REMARK   11  A    between atoms: C17_26  and  C18_28 
REMARK   12  A    between atoms: C20_30  and  C21_31 
REMARK   13  A    between atoms: N6_37  and  C25_38 
REMARK   14  A    between atoms: C25_38  and  C26_39 
ROOT
HETATM    1  C26 UNL     1      14.328  21.420  14.424  1.00  0.00     0.145 C 
HETATM    2  C27 UNL     1      15.576  22.207  14.560  1.00  0.00     0.060 C 
HETATM    3  N7  UNL     1      16.539  22.837  14.674  1.00  0.00    -0.197 NA
ENDROOT
BRANCH   1   4
HETATM    4  C25 UNL     1      13.352  21.763  15.501  1.00  0.00     0.163 C 
BRANCH   4   5
HETATM    5  N6  UNL     1      13.665  21.113  16.752  1.00  0.00    -0.286 N 
HETATM    6  C18 UNL     1      14.250  21.587  17.838  1.00  0.00     0.120 A 
HETATM    7  C19 UNL     1      14.305  20.578  18.766  1.00  0.00     0.064 A 
HETATM    8  C20 UNL     1      13.730  19.465  18.202  1.00  0.00     0.036 A 
HETATM    9  N5  UNL     1      13.353  19.833  16.976  1.00  0.00    -0.301 N 
ATOM     10  H5  UNL     1      12.891  19.222  16.302  1.00  0.00     0.187 HD
BRANCH   6  11
HETATM   11  C17 UNL     1      14.747  22.970  18.019  1.00  0.00     0.269 C 
HETATM   12  N4  UNL     1      16.136  23.194  17.924  1.00  0.00    -0.355 N 
ATOM     13  H4  UNL     1      16.712  22.366  17.771  1.00  0.00     0.162 HD
HETATM   14  O4  UNL     1      13.958  23.905  18.248  1.00  0.00    -0.266 OA
BRANCH  12  15
HETATM   15  C16 UNL     1      16.829  24.425  18.014  1.00  0.00     0.127 C 
BRANCH  15  16
HETATM   16  C15 UNL     1      18.130  24.388  18.662  1.00  0.00     0.006 C 
HETATM   17  C14 UNL     1      19.128  23.347  18.352  1.00  0.00     0.026 C 
HETATM   18  C13 UNL     1      20.452  23.755  19.046  1.00  0.00     0.128 C 
HETATM   19  N3  UNL     1      20.224  24.888  19.917  1.00  0.00    -0.328 N 
HETATM   20  C12 UNL     1      21.057  26.042  19.820  1.00  0.00     0.363 C 
HETATM   21  C29 UNL     1      19.143  24.817  20.891  1.00  0.00     0.128 C 
HETATM   22  O3  UNL     1      20.798  27.032  20.553  1.00  0.00    -0.238 OA
HETATM   23  C28 UNL     1      17.868  24.420  20.196  1.00  0.00     0.026 C 
BRANCH  20  24
HETATM   24  O2  UNL     1      22.135  26.154  18.977  1.00  0.00    -0.289 OA
BRANCH  24  25
HETATM   25  C5  UNL     1      22.262  27.287  18.084  1.00  0.00     0.227 C 
BRANCH  25  26
HETATM   26  C4  UNL     1      21.411  27.100  16.912  1.00  0.00     0.247 C 
HETATM   27  N1  UNL     1      21.454  26.027  16.023  1.00  0.00    -0.359 N 
ATOM     28  H1  UNL     1      22.130  25.279  16.174  1.00  0.00     0.162 HD
HETATM   29  O1  UNL     1      20.546  28.008  16.676  1.00  0.00    -0.271 OA
BRANCH  27  30
HETATM   30  C3  UNL     1      20.563  25.956  14.897  1.00  0.00     0.122 C 
BRANCH  30  31
HETATM   31  C2  UNL     1      19.257  25.268  15.202  1.00  0.00     0.015 C 
HETATM   32  C1  UNL     1      18.045  26.101  14.883  1.00  0.00     0.006 C 
ENDBRANCH  30  31
ENDBRANCH  27  30
ENDBRANCH  25  26
BRANCH  25  33
HETATM   33  C6  UNL     1      23.737  27.449  17.803  1.00  0.00     0.072 C 
BRANCH  33  34
HETATM   34  C7  UNL     1      24.006  28.523  16.798  1.00  0.00     0.275 C 
BRANCH  34  35
HETATM   35  N2  UNL     1      24.676  27.998  15.608  1.00  0.00     0.088 N 
HETATM   36  C8  UNL     1      25.346  26.781  15.980  1.00  0.00     0.272 C 
HETATM   37  C9  UNL     1      26.797  26.890  15.622  1.00  0.00     0.032 C 
HETATM   38  C10 UNL     1      26.929  28.186  14.841  1.00  0.00     0.032 C 
HETATM   39  C11 UNL     1      25.699  28.940  15.232  1.00  0.00     0.272 C 
ENDBRANCH  34  35
ENDBRANCH  33  34
ENDBRANCH  25  33
ENDBRANCH  24  25
ENDBRANCH  20  24
ENDBRANCH  15  16
ENDBRANCH  12  15
ENDBRANCH   6  11
BRANCH   8  40
HETATM   40  C21 UNL     1      13.603  18.154  18.879  1.00  0.00    -0.007 C 
HETATM   41  C22 UNL     1      12.340  17.416  18.473  1.00  0.00     0.021 C 
HETATM   42  C23 UNL     1      14.802  17.326  18.455  1.00  0.00     0.021 C 
HETATM   43  C24 UNL     1      13.617  18.399  20.379  1.00  0.00     0.021 C 
ENDBRANCH   8  40
ENDBRANCH   4   5
ENDBRANCH   1   4
TORSDOF 14
ENDMDL
MODEL 3
REMARK VINA RESULT: -8.650220879      1.605      3.238
REMARK  14 active torsions:
REMARK  status: ('A' for Active; 'I' for Inactive)
REMARK    1  A    between atoms: C2_2  and  C3_3 
REMARK    2  A    between atoms: C3_3  and  N1_4 
REMARK       I    between atoms: N1_4  and  C4_6 
REMARK    3  A    between atoms: C4_6  and  C5_8 
REMARK    4  A    between atoms: C5_8  and  C6_9 
REMARK    5  A    between atoms: C5_8  and  O2_16 
REMARK    6  A    between atoms: C6_9  and  C7_10 
REMARK    7  A    between atoms: C7_10  and  N2_11 
REMARK    8  A    between atoms: O2_16  and  C12_17 
REMARK       I    between atoms: C12_17  and  N3_19 
REMARK    9  A    between atoms: C15_22  and  C16_23 
REMARK   10  A    between atoms: C16_23  and  N4_24 
REMARK       I    between atoms: N4_24  and  C17_26 
REMARK   11  A    between atoms: C17_26  and  C18_28 
REMARK   12  A    between atoms: C20_30  and  C21_31 
REMARK   13  A    between atoms: N6_37  and  C25_38 
REMARK   14  A    between atoms: C25_38  and  C26_39 
ROOT
HETATM    1  C26 UNL     1      13.549  18.951  19.199  1.00  0.00     0.145 C 
HETATM    2  C27 UNL     1      12.189  18.780  19.764  1.00  0.00     0.060 C 
HETATM    3  N7  UNL     1      11.134  18.658  20.222  1.00  0.00    -0.197 NA
ENDROOT
BRANCH   1   4
HETATM    4  C25 UNL     1      14.152  20.250  19.624  1.00  0.00     0.163 C 
BRANCH   4   5
HETATM    5  N6  UNL     1      14.439  21.114  18.504  1.00  0.00    -0.286 N 
HETATM    6  C18 UNL     1      15.419  21.982  18.323  1.00  0.00     0.120 A 
HETATM    7  C19 UNL     1      15.263  22.547  17.082  1.00  0.00     0.064 A 
HETATM    8  C20 UNL     1      14.145  21.989  16.510  1.00  0.00     0.036 A 
HETATM    9  N5  UNL     1      13.673  21.122  17.408  1.00  0.00    -0.301 N 
ATOM     10  H5  UNL     1      12.842  20.545  17.277  1.00  0.00     0.187 HD
BRANCH   6  11
HETATM   11  C17 UNL     1      16.500  22.280  19.290  1.00  0.00     0.269 C 
HETATM   12  N4  UNL     1      16.681  23.619  19.691  1.00  0.00    -0.355 N 
ATOM     13  H4  UNL     1      16.068  24.305  19.249  1.00  0.00     0.162 HD
HETATM   14  O4  UNL     1      17.224  21.370  19.735  1.00  0.00    -0.266 OA
BRANCH  12  15
HETATM   15  C16 UNL     1      17.609  24.130  20.630  1.00  0.00     0.127 C 
BRANCH  15  16
HETATM   16  C15 UNL     1      18.909  24.518  20.107  1.00  0.00     0.006 C 
HETATM   17  C14 UNL     1      19.772  23.571  19.374  1.00  0.00     0.026 C 
HETATM   18  C13 UNL     1      20.949  24.383  18.779  1.00  0.00     0.128 C 
HETATM   19  N3  UNL     1      20.928  25.735  19.298  1.00  0.00    -0.328 N 
HETATM   20  C12 UNL     1      20.990  26.844  18.402  1.00  0.00     0.363 C 
HETATM   21  C29 UNL     1      20.855  25.931  20.740  1.00  0.00     0.128 C 
HETATM   22  O3  UNL     1      20.913  28.005  18.881  1.00  0.00    -0.238 OA
HETATM   23  C28 UNL     1      19.705  25.134  21.295  1.00  0.00     0.026 C 
BRANCH  20  24
HETATM   24  O2  UNL     1      21.130  26.737  17.041  1.00  0.00    -0.289 OA
BRANCH  24  25
HETATM   25  C5  UNL     1      20.446  27.652  16.152  1.00  0.00     0.227 C 
BRANCH  25  26
HETATM   26  C4  UNL     1      19.323  26.979  15.506  1.00  0.00     0.247 C 
HETATM   27  N1  UNL     1      18.363  26.185  16.134  1.00  0.00    -0.359 N 
ATOM     28  H1  UNL     1      18.416  26.040  17.142  1.00  0.00     0.162 HD
HETATM   29  O1  UNL     1      19.209  27.129  14.244  1.00  0.00    -0.271 OA
BRANCH  27  30
HETATM   30  C3  UNL     1      17.301  25.569  15.386  1.00  0.00     0.122 C 
BRANCH  30  31
HETATM   31  C2  UNL     1      17.524  24.102  15.118  1.00  0.00     0.015 C 
HETATM   32  C1  UNL     1      18.511  23.459  16.054  1.00  0.00     0.006 C 
ENDBRANCH  30  31
ENDBRANCH  27  30
ENDBRANCH  25  26
BRANCH  25  33
HETATM   33  C6  UNL     1      21.496  28.213  15.222  1.00  0.00     0.072 C 
BRANCH  33  34
HETATM   34  C7  UNL     1      22.747  27.393  15.223  1.00  0.00     0.275 C 
BRANCH  34  35
HETATM   35  N2  UNL     1      23.806  28.020  16.013  1.00  0.00     0.088 N 
HETATM   36  C8  UNL     1      23.957  29.374  15.553  1.00  0.00     0.272 C 
HETATM   37  C9  UNL     1      25.384  29.601  15.156  1.00  0.00     0.032 C 
HETATM   38  C10 UNL     1      26.131  28.347  15.577  1.00  0.00     0.032 C 
HETATM   39  C11 UNL     1      25.038  27.336  15.711  1.00  0.00     0.272 C 
ENDBRANCH  34  35
ENDBRANCH  33  34
ENDBRANCH  25  33
ENDBRANCH  24  25
ENDBRANCH  20  24
ENDBRANCH  15  16
ENDBRANCH  12  15
ENDBRANCH   6  11
BRANCH   8  40
HETATM   40  C21 UNL     1      13.626  22.342  15.169  1.00  0.00    -0.007 C 
HETATM   41  C22 UNL     1      12.287  21.689  14.879  1.00  0.00     0.021 C 
HETATM   42  C23 UNL     1      13.441  23.849  15.155  1.00  0.00     0.021 C 
HETATM   43  C24 UNL     1      14.660  21.914  14.141  1.00  0.00     0.021 C 
ENDBRANCH   8  40
ENDBRANCH   4   5
ENDBRANCH   1   4
TORSDOF 14
ENDMDL
MODEL 4
REMARK VINA RESULT: -8.582733354      1.391      1.671
REMARK  14 active torsions:
REMARK  status: ('A' for Active; 'I' for Inactive)
REMARK    1  A    between atoms: C2_2  and  C3_3 
REMARK    2  A    between atoms: C3_3  and  N1_4 
REMARK       I    between atoms: N1_4  and  C4_6 
REMARK    3  A    between atoms: C4_6  and  C5_8 
REMARK    4  A    between atoms: C5_8  and  C6_9 
REMARK    5  A    between atoms: C5_8  and  O2_16 
REMARK    6  A    between atoms: C6_9  and  C7_10 
REMARK    7  A    between atoms: C7_10  and  N2_11 
REMARK    8  A    between atoms: O2_16  and  C12_17 
REMARK       I    between atoms: C12_17  and  N3_19 
REMARK    9  A    between atoms: C15_22  and  C16_23 
REMARK   10  A    between atoms: C16_23  and  N4_24 
REMARK       I    between atoms: N4_24  and  C17_26 
REMARK   11  A    between atoms: C17_26  and  C18_28 
REMARK   12  A    between atoms: C20_30  and  C21_31 
REMARK   13  A    between atoms: N6_37  and  C25_38 
REMARK   14  A    between atoms: C25_38  and  C26_39 
ROOT
HETATM    1  C26 UNL     1      13.417  20.924  14.188  1.00  0.00     0.145 C 
HETATM    2  C27 UNL     1      14.617  21.351  13.430  1.00  0.00     0.060 C 
HETATM    3  N7  UNL     1      15.550  21.704  12.844  1.00  0.00    -0.197 NA
ENDROOT
BRANCH   1   4
HETATM    4  C25 UNL     1      13.224  21.761  15.410  1.00  0.00     0.163 C 
BRANCH   4   5
HETATM    5  N6  UNL     1      13.743  21.126  16.598  1.00  0.00    -0.286 N 
HETATM    6  C18 UNL     1      14.731  21.487  17.398  1.00  0.00     0.120 A 
HETATM    7  C19 UNL     1      14.826  20.557  18.402  1.00  0.00     0.064 A 
HETATM    8  C20 UNL     1      13.856  19.610  18.183  1.00  0.00     0.036 A 
HETATM    9  N5  UNL     1      13.218  19.993  17.075  1.00  0.00    -0.301 N 
ATOM     10  H5  UNL     1      12.437  19.491  16.651  1.00  0.00     0.187 HD
BRANCH   6  11
HETATM   11  C17 UNL     1      15.577  22.692  17.238  1.00  0.00     0.269 C 
HETATM   12  N4  UNL     1      15.752  23.532  18.357  1.00  0.00    -0.355 N 
ATOM     13  H4  UNL     1      15.244  23.265  19.200  1.00  0.00     0.162 HD
HETATM   14  O4  UNL     1      16.117  22.951  16.147  1.00  0.00    -0.266 OA
BRANCH  12  15
HETATM   15  C16 UNL     1      16.546  24.701  18.453  1.00  0.00     0.127 C 
BRANCH  15  16
HETATM   16  C15 UNL     1      17.896  24.523  18.961  1.00  0.00     0.006 C 
HETATM   17  C14 UNL     1      18.807  23.495  18.421  1.00  0.00     0.026 C 
HETATM   18  C13 UNL     1      20.207  23.751  19.031  1.00  0.00     0.128 C 
HETATM   19  N3  UNL     1      20.119  24.762  20.063  1.00  0.00    -0.328 N 
HETATM   20  C12 UNL     1      21.000  25.884  20.039  1.00  0.00     0.363 C 
HETATM   21  C29 UNL     1      19.129  24.602  21.119  1.00  0.00     0.128 C 
HETATM   22  O3  UNL     1      20.861  26.775  20.918  1.00  0.00    -0.238 OA
HETATM   23  C28 UNL     1      17.777  24.355  20.504  1.00  0.00     0.026 C 
BRANCH  20  24
HETATM   24  O2  UNL     1      22.001  26.067  19.118  1.00  0.00    -0.289 OA
BRANCH  24  25
HETATM   25  C5  UNL     1      22.046  27.262  18.300  1.00  0.00     0.227 C 
BRANCH  25  26
HETATM   26  C4  UNL     1      21.259  27.068  17.084  1.00  0.00     0.247 C 
HETATM   27  N1  UNL     1      21.269  25.939  16.267  1.00  0.00    -0.359 N 
ATOM     28  H1  UNL     1      21.869  25.150  16.509  1.00  0.00     0.162 HD
HETATM   29  O1  UNL     1      20.491  28.025  16.736  1.00  0.00    -0.271 OA
BRANCH  27  30
HETATM   30  C3  UNL     1      20.450  25.866  15.087  1.00  0.00     0.122 C 
BRANCH  30  31
HETATM   31  C2  UNL     1      19.178  25.080  15.283  1.00  0.00     0.015 C 
HETATM   32  C1  UNL     1      17.928  25.901  15.116  1.00  0.00     0.006 C 
ENDBRANCH  30  31
ENDBRANCH  27  30
ENDBRANCH  25  26
BRANCH  25  33
HETATM   33  C6  UNL     1      23.506  27.584  18.090  1.00  0.00     0.072 C 
BRANCH  33  34
HETATM   34  C7  UNL     1      24.390  26.414  18.386  1.00  0.00     0.275 C 
BRANCH  34  35
HETATM   35  N2  UNL     1      25.007  25.880  17.171  1.00  0.00     0.088 N 
HETATM   36  C8  UNL     1      26.279  25.315  17.533  1.00  0.00     0.272 C 
HETATM   37  C9  UNL     1      27.351  25.944  16.697  1.00  0.00     0.032 C 
HETATM   38  C10 UNL     1      26.624  26.799  15.674  1.00  0.00     0.032 C 
HETATM   39  C11 UNL     1      25.277  26.991  16.294  1.00  0.00     0.272 C 
ENDBRANCH  34  35
ENDBRANCH  33  34
ENDBRANCH  25  33
ENDBRANCH  24  25
ENDBRANCH  20  24
ENDBRANCH  15  16
ENDBRANCH  12  15
ENDBRANCH   6  11
BRANCH   8  40
HETATM   40  C21 UNL     1      13.633  18.424  19.043  1.00  0.00    -0.007 C 
HETATM   41  C22 UNL     1      13.815  18.738  20.517  1.00  0.00     0.021 C 
HETATM   42  C23 UNL     1      12.197  17.986  18.817  1.00  0.00     0.021 C 
HETATM   43  C24 UNL     1      14.606  17.342  18.605  1.00  0.00     0.021 C 
ENDBRANCH   8  40
ENDBRANCH   4   5
ENDBRANCH   1   4
TORSDOF 14
ENDMDL
MODEL 5
REMARK VINA RESULT: -8.521744248      2.015     10.813
REMARK  14 active torsions:
REMARK  status: ('A' for Active; 'I' for Inactive)
REMARK    1  A    between atoms: C2_2  and  C3_3 
REMARK    2  A    between atoms: C3_3  and  N1_4 
REMARK       I    between atoms: N1_4  and  C4_6 
REMARK    3  A    between atoms: C4_6  and  C5_8 
REMARK    4  A    between atoms: C5_8  and  C6_9 
REMARK    5  A    between atoms: C5_8  and  O2_16 
REMARK    6  A    between atoms: C6_9  and  C7_10 
REMARK    7  A    between atoms: C7_10  and  N2_11 
REMARK    8  A    between atoms: O2_16  and  C12_17 
REMARK       I    between atoms: C12_17  and  N3_19 
REMARK    9  A    between atoms: C15_22  and  C16_23 
REMARK   10  A    between atoms: C16_23  and  N4_24 
REMARK       I    between atoms: N4_24  and  C17_26 
REMARK   11  A    between atoms: C17_26  and  C18_28 
REMARK   12  A    between atoms: C20_30  and  C21_31 
REMARK   13  A    between atoms: N6_37  and  C25_38 
REMARK   14  A    between atoms: C25_38  and  C26_39 
ROOT
HETATM    1  C26 UNL     1      21.560  26.929  19.611  1.00  0.00     0.145 C 
HETATM    2  C27 UNL     1      21.328  27.704  20.852  1.00  0.00     0.060 C 
HETATM    3  N7  UNL     1      21.151  28.327  21.811  1.00  0.00    -0.197 NA
ENDROOT
BRANCH   1   4
HETATM    4  C25 UNL     1      21.217  27.733  18.399  1.00  0.00     0.163 C 
BRANCH   4   5
HETATM    5  N6  UNL     1      22.215  27.615  17.363  1.00  0.00    -0.286 N 
HETATM    6  C18 UNL     1      22.142  27.062  16.165  1.00  0.00     0.120 A 
HETATM    7  C19 UNL     1      23.357  27.222  15.548  1.00  0.00     0.064 A 
HETATM    8  C20 UNL     1      24.179  27.895  16.418  1.00  0.00     0.036 A 
HETATM    9  N5  UNL     1      23.445  28.116  17.512  1.00  0.00    -0.301 N 
ATOM     10  H5  UNL     1      23.777  28.601  18.346  1.00  0.00     0.187 HD
BRANCH   6  11
HETATM   11  C17 UNL     1      20.950  26.397  15.590  1.00  0.00     0.269 C 
HETATM   12  N4  UNL     1      20.583  25.135  16.102  1.00  0.00    -0.355 N 
ATOM     13  H4  UNL     1      21.198  24.747  16.817  1.00  0.00     0.162 HD
HETATM   14  O4  UNL     1      20.293  26.941  14.683  1.00  0.00    -0.266 OA
BRANCH  12  15
HETATM   15  C16 UNL     1      19.467  24.341  15.744  1.00  0.00     0.127 C 
BRANCH  15  16
HETATM   16  C15 UNL     1      18.402  24.243  16.729  1.00  0.00     0.006 C 
HETATM   17  C14 UNL     1      17.064  24.818  16.493  1.00  0.00     0.026 C 
HETATM   18  C13 UNL     1      16.142  24.326  17.637  1.00  0.00     0.128 C 
HETATM   19  N3  UNL     1      16.927  23.649  18.647  1.00  0.00    -0.328 N 
HETATM   20  C12 UNL     1      16.543  22.351  19.097  1.00  0.00     0.363 C 
HETATM   21  C29 UNL     1      18.097  24.323  19.195  1.00  0.00     0.128 C 
HETATM   22  O3  UNL     1      17.278  21.765  19.935  1.00  0.00    -0.238 OA
HETATM   23  C28 UNL     1      18.977  24.791  18.067  1.00  0.00     0.026 C 
BRANCH  20  24
HETATM   24  O2  UNL     1      15.418  21.684  18.679  1.00  0.00    -0.289 OA
BRANCH  24  25
HETATM   25  C5  UNL     1      15.494  20.691  17.627  1.00  0.00     0.227 C 
BRANCH  25  26
HETATM   26  C4  UNL     1      14.812  21.176  16.430  1.00  0.00     0.247 C 
HETATM   27  N1  UNL     1      13.468  21.530  16.332  1.00  0.00    -0.359 N 
ATOM     28  H1  UNL     1      12.870  21.460  17.155  1.00  0.00     0.162 HD
HETATM   29  O1  UNL     1      15.515  21.283  15.370  1.00  0.00    -0.271 OA
BRANCH  27  30
HETATM   30  C3  UNL     1      12.908  21.993  15.091  1.00  0.00     0.122 C 
BRANCH  30  31
HETATM   31  C2  UNL     1      11.621  21.303  14.714  1.00  0.00     0.015 C 
HETATM   32  C1  UNL     1      11.821  20.054  13.899  1.00  0.00     0.006 C 
ENDBRANCH  30  31
ENDBRANCH  27  30
ENDBRANCH  25  26
BRANCH  25  33
HETATM   33  C6  UNL     1      14.957  19.406  18.211  1.00  0.00     0.072 C 
BRANCH  33  34
HETATM   34  C7  UNL     1      14.173  19.639  19.464  1.00  0.00     0.275 C 
BRANCH  34  35
HETATM   35  N2  UNL     1      13.522  18.416  19.933  1.00  0.00     0.088 N 
HETATM   36  C8  UNL     1      13.395  17.526  18.811  1.00  0.00     0.272 C 
HETATM   37  C9  UNL     1      11.957  17.135  18.655  1.00  0.00     0.032 C 
HETATM   38  C10 UNL     1      11.244  17.704  19.870  1.00  0.00     0.032 C 
HETATM   39  C11 UNL     1      12.186  18.763  20.345  1.00  0.00     0.272 C 
ENDBRANCH  34  35
ENDBRANCH  33  34
ENDBRANCH  25  33
ENDBRANCH  24  25
ENDBRANCH  20  24
ENDBRANCH  15  16
ENDBRANCH  12  15
ENDBRANCH   6  11
BRANCH   8  40
HETATM   40  C21 UNL     1      25.587  28.256  16.133  1.00  0.00    -0.007 C 
HETATM   41  C22 UNL     1      25.704  29.302  15.039  1.00  0.00     0.021 C 
HETATM   42  C23 UNL     1      26.157  28.834  17.416  1.00  0.00     0.021 C 
HETATM   43  C24 UNL     1      26.322  26.987  15.737  1.00  0.00     0.021 C 
ENDBRANCH   8  40
ENDBRANCH   4   5
ENDBRANCH   1   4
TORSDOF 14
ENDMDL
