MODEL 1
REMARK VINA RESULT: -8.900774022      0.000      0.000
REMARK  12 active torsions:
REMARK  status: ('A' for Active; 'I' for Inactive)
REMARK    1  A    between atoms: C2_2  and  N1_3 
REMARK    2  A    between atoms: N2_6  and  C5_7 
REMARK    3  A    between atoms: C5_7  and  C6_8 
REMARK    4  A    between atoms: C6_8  and  C7_9 
REMARK    5  A    between atoms: C7_9  and  C8_10 
REMARK    6  A    between atoms: C8_10  and  C9_11 
REMARK    7  A    between atoms: C9_11  and  S1_12 
REMARK    8  A    between atoms: S1_12  and  C10_13 
REMARK    9  A    between atoms: C12_18  and  N5_19 
REMARK       I    between atoms: N5_19  and  C13_21 
REMARK   10  A    between atoms: C13_21  and  C14_23 
REMARK   11  A    between atoms: N6_28  and  C18_29 
REMARK   12  A    between atoms: C18_29  and  C19_30 
ROOT
HETATM    1  C10 UNL     1      19.948  24.857  15.708  1.00  0.00     0.148 A 
HETATM    2  N3  UNL     1      20.189  24.458  16.967  1.00  0.00    -0.323 N 
ATOM      3  H3  UNL     1      21.105  24.666  17.366  1.00  0.00     0.169 HD
HETATM    4  C11 UNL     1      19.298  23.799  17.740  1.00  0.00     0.150 A 
HETATM    5  N4  UNL     1      19.569  23.384  19.074  1.00  0.00    -0.080 NA
HETATM    6  C12 UNL     1      18.079  23.539  17.171  1.00  0.00     0.145 A 
HETATM    7  C24 UNL     1      17.784  23.933  15.870  1.00  0.00     0.277 A 
HETATM    8  O2  UNL     1      16.658  23.694  15.335  1.00  0.00    -0.266 OA
HETATM    9  N7  UNL     1      18.721  24.578  15.175  1.00  0.00    -0.302 N 
ATOM     10  H7  UNL     1      18.516  24.870  14.220  1.00  0.00     0.171 HD
ENDROOT
BRANCH   6  11
HETATM   11  N5  UNL     1      17.070  22.842  17.890  1.00  0.00    -0.319 N 
HETATM   12  C13 UNL     1      16.930  21.443  17.784  1.00  0.00     0.228 C 
HETATM   13  O1  UNL     1      17.704  20.793  17.049  1.00  0.00    -0.273 OA
ATOM     14  H5  UNL     1      16.435  23.364  18.495  1.00  0.00     0.169 HD
BRANCH  12  15
HETATM   15  C14 UNL     1      15.853  20.766  18.556  1.00  0.00     0.096 C 
HETATM   16  C15 UNL     1      14.610  21.643  18.585  1.00  0.00     0.022 C 
HETATM   17  C16 UNL     1      13.945  21.631  17.197  1.00  0.00     0.070 C 
HETATM   18  C17 UNL     1      13.401  20.255  17.073  1.00  0.00     0.075 C 
HETATM   19  S2  UNL     1      12.070  19.854  16.236  1.00  0.00    -0.066 SA
HETATM   20  N6  UNL     1      14.142  19.231  17.788  1.00  0.00    -0.374 N 
HETATM   21  C23 UNL     1      15.558  19.453  17.918  1.00  0.00     0.137 C 
BRANCH  20  22
HETATM   22  C18 UNL     1      13.444  18.100  18.309  1.00  0.00     0.128 C 
BRANCH  22  23
HETATM   23  C19 UNL     1      13.502  17.823  19.751  1.00  0.00     0.003 C 
HETATM   24  C20 UNL     1      12.408  17.132  20.469  1.00  0.00     0.006 C 
HETATM   25  C21 UNL     1      11.681  18.466  20.551  1.00  0.00     0.001 C 
HETATM   26  C22 UNL     1      13.082  19.102  20.517  1.00  0.00     0.006 C 
ENDBRANCH  22  23
ENDBRANCH  20  22
ENDBRANCH  12  15
ENDBRANCH   6  11
BRANCH   1  27
HETATM   27  S1  UNL     1      21.156  25.715  14.716  1.00  0.00    -0.094 SA
BRANCH  27  28
HETATM   28  C9  UNL     1      20.620  27.466  14.603  1.00  0.00     0.082 C 
BRANCH  28  29
HETATM   29  C8  UNL     1      21.811  28.279  15.037  1.00  0.00     0.010 C 
BRANCH  29  30
HETATM   30  C7  UNL     1      22.833  27.374  15.663  1.00  0.00     0.002 C 
BRANCH  30  31
HETATM   31  C6  UNL     1      23.197  27.892  17.034  1.00  0.00     0.019 C 
BRANCH  31  32
HETATM   32  C5  UNL     1      23.405  26.748  17.966  1.00  0.00     0.117 C 
BRANCH  32  33
HETATM   33  N2  UNL     1      22.324  26.454  18.833  1.00  0.00    -0.409 N 
HETATM   34  C4  UNL     1      22.569  25.339  19.711  1.00  0.00     0.147 C 
HETATM   35  C3  UNL     1      21.832  25.411  20.994  1.00  0.00     0.291 C 
HETATM   36  N1  UNL     1      22.249  26.627  21.695  1.00  0.00     0.091 N 
HETATM   37  C26 UNL     1      21.748  27.709  20.919  1.00  0.00     0.291 C 
HETATM   38  C25 UNL     1      21.659  27.541  19.455  1.00  0.00     0.147 C 
BRANCH  36  39
HETATM   39  C2  UNL     1      23.639  26.626  21.988  1.00  0.00     0.268 C 
HETATM   40  C1  UNL     1      23.957  25.746  23.159  1.00  0.00     0.037 C 
ENDBRANCH  36  39
ENDBRANCH  32  33
ENDBRANCH  31  32
ENDBRANCH  30  31
ENDBRANCH  29  30
ENDBRANCH  28  29
ENDBRANCH  27  28
ENDBRANCH   1  27
TORSDOF 12
ENDMDL
MODEL 2
REMARK VINA RESULT: -8.896939865      0.871      1.435
REMARK  12 active torsions:
REMARK  status: ('A' for Active; 'I' for Inactive)
REMARK    1  A    between atoms: C2_2  and  N1_3 
REMARK    2  A    between atoms: N2_6  and  C5_7 
REMARK    3  A    between atoms: C5_7  and  C6_8 
REMARK    4  A    between atoms: C6_8  and  C7_9 
REMARK    5  A    between atoms: C7_9  and  C8_10 
REMARK    6  A    between atoms: C8_10  and  C9_11 
REMARK    7  A    between atoms: C9_11  and  S1_12 
REMARK    8  A    between atoms: S1_12  and  C10_13 
REMARK    9  A    between atoms: C12_18  and  N5_19 
REMARK       I    between atoms: N5_19  and  C13_21 
REMARK   10  A    between atoms: C13_21  and  C14_23 
REMARK   11  A    between atoms: N6_28  and  C18_29 
REMARK   12  A    between atoms: C18_29  and  C19_30 
ROOT
HETATM    1  C10 UNL     1      19.988  25.068  15.778  1.00  0.00     0.148 A 
HETATM    2  N3  UNL     1      18.778  24.823  15.250  1.00  0.00    -0.323 N 
ATOM      3  H3  UNL     1      18.583  25.185  14.316  1.00  0.00     0.169 HD
HETATM    4  C11 UNL     1      17.802  24.127  15.874  1.00  0.00     0.150 A 
HETATM    5  N4  UNL     1      16.525  23.874  15.299  1.00  0.00    -0.080 NA
HETATM    6  C12 UNL     1      18.101  23.655  17.126  1.00  0.00     0.145 A 
HETATM    7  C24 UNL     1      19.340  23.885  17.713  1.00  0.00     0.277 A 
HETATM    8  O2  UNL     1      19.624  23.452  18.873  1.00  0.00    -0.266 OA
HETATM    9  N7  UNL     1      20.247  24.582  17.029  1.00  0.00    -0.302 N 
ATOM     10  H7  UNL     1      21.159  24.757  17.451  1.00  0.00     0.171 HD
ENDROOT
BRANCH   6  11
HETATM   11  N5  UNL     1      17.144  22.919  17.877  1.00  0.00    -0.319 N 
HETATM   12  C13 UNL     1      17.025  21.521  17.737  1.00  0.00     0.228 C 
HETATM   13  O1  UNL     1      17.769  20.907  16.945  1.00  0.00    -0.273 OA
ATOM     14  H5  UNL     1      16.532  23.411  18.528  1.00  0.00     0.169 HD
BRANCH  12  15
HETATM   15  C14 UNL     1      16.002  20.802  18.545  1.00  0.00     0.096 C 
HETATM   16  C15 UNL     1      14.752  21.659  18.676  1.00  0.00     0.022 C 
HETATM   17  C16 UNL     1      14.008  21.685  17.328  1.00  0.00     0.070 C 
HETATM   18  C17 UNL     1      13.476  20.307  17.188  1.00  0.00     0.075 C 
HETATM   19  S2  UNL     1      12.104  19.915  16.413  1.00  0.00    -0.066 SA
HETATM   20  N6  UNL     1      14.269  19.269  17.822  1.00  0.00    -0.374 N 
HETATM   21  C23 UNL     1      15.687  19.507  17.880  1.00  0.00     0.137 C 
BRANCH  20  22
HETATM   22  C18 UNL     1      13.617  18.111  18.342  1.00  0.00     0.128 C 
BRANCH  22  23
HETATM   23  C19 UNL     1      13.634  17.868  19.791  1.00  0.00     0.003 C 
HETATM   24  C20 UNL     1      12.525  17.182  20.492  1.00  0.00     0.006 C 
HETATM   25  C21 UNL     1      11.784  18.511  20.521  1.00  0.00     0.001 C 
HETATM   26  C22 UNL     1      13.179  19.159  20.514  1.00  0.00     0.006 C 
ENDBRANCH  22  23
ENDBRANCH  20  22
ENDBRANCH  12  15
ENDBRANCH   6  11
BRANCH   1  27
HETATM   27  S1  UNL     1      21.245  26.001  14.927  1.00  0.00    -0.094 SA
BRANCH  27  28
HETATM   28  C9  UNL     1      21.043  27.758  15.418  1.00  0.00     0.082 C 
BRANCH  28  29
HETATM   29  C8  UNL     1      22.435  28.331  15.441  1.00  0.00     0.010 C 
BRANCH  29  30
HETATM   30  C7  UNL     1      23.383  27.320  16.020  1.00  0.00     0.002 C 
BRANCH  30  31
HETATM   31  C6  UNL     1      23.827  27.766  17.392  1.00  0.00     0.019 C 
BRANCH  31  32
HETATM   32  C5  UNL     1      23.749  26.623  18.344  1.00  0.00     0.117 C 
BRANCH  32  33
HETATM   33  N2  UNL     1      22.477  26.383  18.918  1.00  0.00    -0.409 N 
HETATM   34  C4  UNL     1      22.475  25.344  19.915  1.00  0.00     0.147 C 
HETATM   35  C3  UNL     1      21.427  25.506  20.950  1.00  0.00     0.291 C 
HETATM   36  N1  UNL     1      21.654  26.778  21.637  1.00  0.00     0.091 N 
HETATM   37  C26 UNL     1      21.381  27.789  20.673  1.00  0.00     0.291 C 
HETATM   38  C25 UNL     1      21.679  27.506  19.255  1.00  0.00     0.147 C 
BRANCH  36  39
HETATM   39  C2  UNL     1      22.918  26.821  22.284  1.00  0.00     0.268 C 
HETATM   40  C1  UNL     1      22.785  27.180  23.733  1.00  0.00     0.037 C 
ENDBRANCH  36  39
ENDBRANCH  32  33
ENDBRANCH  31  32
ENDBRANCH  30  31
ENDBRANCH  29  30
ENDBRANCH  28  29
ENDBRANCH  27  28
ENDBRANCH   1  27
TORSDOF 12
ENDMDL
MODEL 3
REMARK VINA RESULT: -8.763528829      1.599      2.070
REMARK  12 active torsions:
REMARK  status: ('A' for Active; 'I' for Inactive)
REMARK    1  A    between atoms: C2_2  and  N1_3 
REMARK    2  A    between atoms: N2_6  and  C5_7 
REMARK    3  A    between atoms: C5_7  and  C6_8 
REMARK    4  A    between atoms: C6_8  and  C7_9 
REMARK    5  A    between atoms: C7_9  and  C8_10 
REMARK    6  A    between atoms: C8_10  and  C9_11 
REMARK    7  A    between atoms: C9_11  and  S1_12 
REMARK    8  A    between atoms: S1_12  and  C10_13 
REMARK    9  A    between atoms: C12_18  and  N5_19 
REMARK       I    between atoms: N5_19  and  C13_21 
REMARK   10  A    between atoms: C13_21  and  C14_23 
REMARK   11  A    between atoms: N6_28  and  C18_29 
REMARK   12  A    between atoms: C18_29  and  C19_30 
ROOT
HETATM    1  C10 UNL     1      20.047  25.041  15.841  1.00  0.00     0.148 A 
HETATM    2  N3  UNL     1      20.290  24.636  17.097  1.00  0.00    -0.323 N 
ATOM      3  H3  UNL     1      21.199  24.860  17.503  1.00  0.00     0.169 HD
HETATM    4  C11 UNL     1      19.409  23.951  17.860  1.00  0.00     0.150 A 
HETATM    5  N4  UNL     1      19.681  23.530  19.191  1.00  0.00    -0.080 NA
HETATM    6  C12 UNL     1      18.198  23.669  17.281  1.00  0.00     0.145 A 
HETATM    7  C24 UNL     1      17.902  24.069  15.982  1.00  0.00     0.277 A 
HETATM    8  O2  UNL     1      16.784  23.810  15.439  1.00  0.00    -0.266 OA
HETATM    9  N7  UNL     1      18.828  24.740  15.299  1.00  0.00    -0.302 N 
ATOM     10  H7  UNL     1      18.622  25.037  14.345  1.00  0.00     0.171 HD
ENDROOT
BRANCH   6  11
HETATM   11  N5  UNL     1      17.201  22.944  17.989  1.00  0.00    -0.319 N 
HETATM   12  C13 UNL     1      17.047  21.554  17.815  1.00  0.00     0.228 C 
HETATM   13  O1  UNL     1      17.796  20.937  17.029  1.00  0.00    -0.273 OA
ATOM     14  H5  UNL     1      16.586  23.439  18.635  1.00  0.00     0.169 HD
BRANCH  12  15
HETATM   15  C14 UNL     1      15.982  20.847  18.578  1.00  0.00     0.096 C 
HETATM   16  C15 UNL     1      14.742  21.723  18.666  1.00  0.00     0.022 C 
HETATM   17  C16 UNL     1      14.051  21.769  17.291  1.00  0.00     0.070 C 
HETATM   18  C17 UNL     1      13.503  20.401  17.121  1.00  0.00     0.075 C 
HETATM   19  S2  UNL     1      12.155  20.036  16.292  1.00  0.00    -0.066 SA
HETATM   20  N6  UNL     1      14.254  19.347  17.778  1.00  0.00    -0.374 N 
HETATM   21  C23 UNL     1      15.673  19.561  17.891  1.00  0.00     0.137 C 
BRANCH  20  22
HETATM   22  C18 UNL     1      13.564  18.196  18.264  1.00  0.00     0.128 C 
BRANCH  22  23
HETATM   23  C19 UNL     1      13.626  17.874  19.697  1.00  0.00     0.003 C 
HETATM   24  C20 UNL     1      12.533  17.164  20.397  1.00  0.00     0.006 C 
HETATM   25  C21 UNL     1      11.810  18.497  20.522  1.00  0.00     0.001 C 
HETATM   26  C22 UNL     1      13.212  19.129  20.503  1.00  0.00     0.006 C 
ENDBRANCH  22  23
ENDBRANCH  20  22
ENDBRANCH  12  15
ENDBRANCH   6  11
BRANCH   1  27
HETATM   27  S1  UNL     1      21.241  25.933  14.863  1.00  0.00    -0.094 SA
BRANCH  27  28
HETATM   28  C9  UNL     1      20.408  27.444  14.236  1.00  0.00     0.082 C 
BRANCH  28  29
HETATM   29  C8  UNL     1      21.505  28.459  14.052  1.00  0.00     0.010 C 
BRANCH  29  30
HETATM   30  C7  UNL     1      22.057  28.849  15.393  1.00  0.00     0.002 C 
BRANCH  30  31
HETATM   31  C6  UNL     1      23.549  29.049  15.290  1.00  0.00     0.019 C 
BRANCH  31  32
HETATM   32  C5  UNL     1      24.257  27.873  15.872  1.00  0.00     0.117 C 
BRANCH  32  33
HETATM   33  N2  UNL     1      24.317  27.828  17.287  1.00  0.00    -0.409 N 
HETATM   34  C4  UNL     1      23.742  26.636  17.855  1.00  0.00     0.147 C 
HETATM   35  C3  UNL     1      24.340  26.241  19.152  1.00  0.00     0.291 C 
HETATM   36  N1  UNL     1      25.766  25.988  18.942  1.00  0.00     0.091 N 
HETATM   37  C26 UNL     1      26.340  27.255  18.641  1.00  0.00     0.291 C 
HETATM   38  C25 UNL     1      25.520  28.243  17.913  1.00  0.00     0.147 C 
BRANCH  36  39
HETATM   39  C2  UNL     1      25.993  24.935  18.017  1.00  0.00     0.268 C 
HETATM   40  C1  UNL     1      25.968  23.595  18.687  1.00  0.00     0.037 C 
ENDBRANCH  36  39
ENDBRANCH  32  33
ENDBRANCH  31  32
ENDBRANCH  30  31
ENDBRANCH  29  30
ENDBRANCH  28  29
ENDBRANCH  27  28
ENDBRANCH   1  27
TORSDOF 12
ENDMDL
MODEL 4
REMARK VINA RESULT: -8.683768077      1.728      2.469
REMARK  12 active torsions:
REMARK  status: ('A' for Active; 'I' for Inactive)
REMARK    1  A    between atoms: C2_2  and  N1_3 
REMARK    2  A    between atoms: N2_6  and  C5_7 
REMARK    3  A    between atoms: C5_7  and  C6_8 
REMARK    4  A    between atoms: C6_8  and  C7_9 
REMARK    5  A    between atoms: C7_9  and  C8_10 
REMARK    6  A    between atoms: C8_10  and  C9_11 
REMARK    7  A    between atoms: C9_11  and  S1_12 
REMARK    8  A    between atoms: S1_12  and  C10_13 
REMARK    9  A    between atoms: C12_18  and  N5_19 
REMARK       I    between atoms: N5_19  and  C13_21 
REMARK   10  A    between atoms: C13_21  and  C14_23 
REMARK   11  A    between atoms: N6_28  and  C18_29 
REMARK   12  A    between atoms: C18_29  and  C19_30 
ROOT
HETATM    1  C10 UNL     1      20.035  25.002  15.779  1.00  0.00     0.148 A 
HETATM    2  N3  UNL     1      18.860  24.682  15.214  1.00  0.00    -0.323 N 
ATOM      3  H3  UNL     1      18.696  24.982  14.253  1.00  0.00     0.169 HD
HETATM    4  C11 UNL     1      17.881  23.988  15.836  1.00  0.00     0.150 A 
HETATM    5  N4  UNL     1      16.641  23.656  15.222  1.00  0.00    -0.080 NA
HETATM    6  C12 UNL     1      18.138  23.602  17.126  1.00  0.00     0.145 A 
HETATM    7  C24 UNL     1      19.341  23.911  17.752  1.00  0.00     0.277 A 
HETATM    8  O2  UNL     1      19.585  23.557  18.946  1.00  0.00    -0.266 OA
HETATM    9  N7  UNL     1      20.253  24.600  17.067  1.00  0.00    -0.302 N 
ATOM     10  H7  UNL     1      21.138  24.833  17.517  1.00  0.00     0.171 HD
ENDROOT
BRANCH   6  11
HETATM   11  N5  UNL     1      17.173  22.876  17.877  1.00  0.00    -0.319 N 
HETATM   12  C13 UNL     1      17.035  21.481  17.734  1.00  0.00     0.228 C 
HETATM   13  O1  UNL     1      17.769  20.859  16.938  1.00  0.00    -0.273 OA
ATOM     14  H5  UNL     1      16.570  23.375  18.532  1.00  0.00     0.169 HD
BRANCH  12  15
HETATM   15  C14 UNL     1      16.005  20.773  18.543  1.00  0.00     0.096 C 
HETATM   16  C15 UNL     1      14.776  21.655  18.699  1.00  0.00     0.022 C 
HETATM   17  C16 UNL     1      14.019  21.717  17.360  1.00  0.00     0.070 C 
HETATM   18  C17 UNL     1      13.454  20.353  17.205  1.00  0.00     0.075 C 
HETATM   19  S2  UNL     1      12.066  20.002  16.441  1.00  0.00    -0.066 SA
HETATM   20  N6  UNL     1      14.231  19.289  17.817  1.00  0.00    -0.374 N 
HETATM   21  C23 UNL     1      15.654  19.495  17.863  1.00  0.00     0.137 C 
BRANCH  20  22
HETATM   22  C18 UNL     1      13.559  18.139  18.327  1.00  0.00     0.128 C 
BRANCH  22  23
HETATM   23  C19 UNL     1      13.603  17.862  19.771  1.00  0.00     0.003 C 
HETATM   24  C20 UNL     1      12.500  17.176  20.479  1.00  0.00     0.006 C 
HETATM   25  C21 UNL     1      11.778  18.514  20.553  1.00  0.00     0.001 C 
HETATM   26  C22 UNL     1      13.182  19.143  20.531  1.00  0.00     0.006 C 
ENDBRANCH  22  23
ENDBRANCH  20  22
ENDBRANCH  12  15
ENDBRANCH   6  11
BRANCH   1  27
HETATM   27  S1  UNL     1      21.297  25.929  14.929  1.00  0.00    -0.094 SA
BRANCH  27  28
HETATM   28  C9  UNL     1      20.492  27.417  14.217  1.00  0.00     0.082 C 
BRANCH  28  29
HETATM   29  C8  UNL     1      21.574  28.461  14.140  1.00  0.00     0.010 C 
BRANCH  29  30
HETATM   30  C7  UNL     1      22.031  28.813  15.526  1.00  0.00     0.002 C 
BRANCH  30  31
HETATM   31  C6  UNL     1      23.502  29.150  15.506  1.00  0.00     0.019 C 
BRANCH  31  32
HETATM   32  C5  UNL     1      24.291  27.999  16.029  1.00  0.00     0.117 C 
BRANCH  32  33
HETATM   33  N2  UNL     1      24.389  27.907  17.439  1.00  0.00    -0.409 N 
HETATM   34  C4  UNL     1      23.776  26.726  17.989  1.00  0.00     0.147 C 
HETATM   35  C3  UNL     1      24.391  26.265  19.255  1.00  0.00     0.291 C 
HETATM   36  N1  UNL     1      25.798  25.954  18.996  1.00  0.00     0.091 N 
HETATM   37  C26 UNL     1      26.421  27.202  18.715  1.00  0.00     0.291 C 
HETATM   38  C25 UNL     1      25.627  28.248  18.041  1.00  0.00     0.147 C 
BRANCH  36  39
HETATM   39  C2  UNL     1      25.950  24.920  18.034  1.00  0.00     0.268 C 
HETATM   40  C1  UNL     1      26.038  23.571  18.680  1.00  0.00     0.037 C 
ENDBRANCH  36  39
ENDBRANCH  32  33
ENDBRANCH  31  32
ENDBRANCH  30  31
ENDBRANCH  29  30
ENDBRANCH  28  29
ENDBRANCH  27  28
ENDBRANCH   1  27
TORSDOF 12
ENDMDL
MODEL 5
REMARK VINA RESULT: -8.612796520      1.423      2.383
REMARK  12 active torsions:
REMARK  status: ('A' for Active; 'I' for Inactive)
REMARK    1  A    between atoms: C2_2  and  N1_3 
REMARK    2  A    between atoms: N2_6  and  C5_7 
REMARK    3  A    between atoms: C5_7  and  C6_8 
REMARK    4  A    between atoms: C6_8  and  C7_9 
REMARK    5  A    between atoms: C7_9  and  C8_10 
REMARK    6  A    between atoms: C8_10  and  C9_11 
REMARK    7  A    between atoms: C9_11  and  S1_12 
REMARK    8  A    between atoms: S1_12  and  C10_13 
REMARK    9  A    between atoms: C12_18  and  N5_19 
REMARK       I    between atoms: N5_19  and  C13_21 
REMARK   10  A    between atoms: C13_21  and  C14_23 
REMARK   11  A    between atoms: N6_28  and  C18_29 
REMARK   12  A    between atoms: C18_29  and  C19_30 
ROOT
HETATM    1  C10 UNL     1      20.041  25.073  15.863  1.00  0.00     0.148 A 
HETATM    2  N3  UNL     1      20.289  24.654  17.113  1.00  0.00    -0.323 N 
ATOM      3  H3  UNL     1      21.201  24.871  17.517  1.00  0.00     0.169 HD
HETATM    4  C11 UNL     1      19.411  23.963  17.873  1.00  0.00     0.150 A 
HETATM    5  N4  UNL     1      19.689  23.526  19.198  1.00  0.00    -0.080 NA
HETATM    6  C12 UNL     1      18.196  23.691  17.298  1.00  0.00     0.145 A 
HETATM    7  C24 UNL     1      17.895  24.105  16.005  1.00  0.00     0.277 A 
HETATM    8  O2  UNL     1      16.773  23.856  15.465  1.00  0.00    -0.266 OA
HETATM    9  N7  UNL     1      18.819  24.781  15.324  1.00  0.00    -0.302 N 
ATOM     10  H7  UNL     1      18.609  25.089  14.374  1.00  0.00     0.171 HD
ENDROOT
BRANCH   6  11
HETATM   11  N5  UNL     1      17.201  22.961  18.003  1.00  0.00    -0.319 N 
HETATM   12  C13 UNL     1      17.049  21.571  17.823  1.00  0.00     0.228 C 
HETATM   13  O1  UNL     1      17.799  20.959  17.034  1.00  0.00    -0.273 OA
ATOM     14  H5  UNL     1      16.585  23.452  18.651  1.00  0.00     0.169 HD
BRANCH  12  15
HETATM   15  C14 UNL     1      15.986  20.859  18.583  1.00  0.00     0.096 C 
HETATM   16  C15 UNL     1      14.745  21.732  18.676  1.00  0.00     0.022 C 
HETATM   17  C16 UNL     1      14.053  21.783  17.302  1.00  0.00     0.070 C 
HETATM   18  C17 UNL     1      13.507  20.415  17.126  1.00  0.00     0.075 C 
HETATM   19  S2  UNL     1      12.159  20.051  16.296  1.00  0.00    -0.066 SA
HETATM   20  N6  UNL     1      14.260  19.359  17.778  1.00  0.00    -0.374 N 
HETATM   21  C23 UNL     1      15.678  19.576  17.892  1.00  0.00     0.137 C 
BRANCH  20  22
HETATM   22  C18 UNL     1      13.573  18.205  18.260  1.00  0.00     0.128 C 
BRANCH  22  23
HETATM   23  C19 UNL     1      13.634  17.879  19.692  1.00  0.00     0.003 C 
HETATM   24  C20 UNL     1      12.545  17.157  20.387  1.00  0.00     0.006 C 
HETATM   25  C21 UNL     1      11.811  18.484  20.515  1.00  0.00     0.001 C 
HETATM   26  C22 UNL     1      13.209  19.128  20.501  1.00  0.00     0.006 C 
ENDBRANCH  22  23
ENDBRANCH  20  22
ENDBRANCH  12  15
ENDBRANCH   6  11
BRANCH   1  27
HETATM   27  S1  UNL     1      21.232  25.973  14.888  1.00  0.00    -0.094 SA
BRANCH  27  28
HETATM   28  C9  UNL     1      20.383  27.460  14.230  1.00  0.00     0.082 C 
BRANCH  28  29
HETATM   29  C8  UNL     1      21.365  28.589  14.394  1.00  0.00     0.010 C 
BRANCH  29  30
HETATM   30  C7  UNL     1      22.647  28.057  14.967  1.00  0.00     0.002 C 
BRANCH  30  31
HETATM   31  C6  UNL     1      23.384  29.166  15.679  1.00  0.00     0.019 C 
BRANCH  31  32
HETATM   32  C5  UNL     1      24.823  29.145  15.292  1.00  0.00     0.117 C 
BRANCH  32  33
HETATM   33  N2  UNL     1      25.690  28.457  16.175  1.00  0.00    -0.409 N 
HETATM   34  C4  UNL     1      25.441  28.734  17.567  1.00  0.00     0.147 C 
HETATM   35  C3  UNL     1      25.812  27.624  18.475  1.00  0.00     0.291 C 
HETATM   36  N1  UNL     1      25.021  26.448  18.110  1.00  0.00     0.091 N 
HETATM   37  C26 UNL     1      25.494  26.050  16.828  1.00  0.00     0.291 C 
HETATM   38  C25 UNL     1      25.972  27.095  15.901  1.00  0.00     0.147 C 
BRANCH  36  39
HETATM   39  C2  UNL     1      23.626  26.677  18.245  1.00  0.00     0.268 C 
HETATM   40  C1  UNL     1      23.038  25.865  19.360  1.00  0.00     0.037 C 
ENDBRANCH  36  39
ENDBRANCH  32  33
ENDBRANCH  31  32
ENDBRANCH  30  31
ENDBRANCH  29  30
ENDBRANCH  28  29
ENDBRANCH  27  28
ENDBRANCH   1  27
TORSDOF 12
ENDMDL
