MODEL 1
REMARK VINA RESULT: -9.120042476      0.000      0.000
REMARK  16 active torsions:
REMARK  status: ('A' for Active; 'I' for Inactive)
REMARK    1  A    between atoms: C2_2  and  C3_3 
REMARK    2  A    between atoms: C3_3  and  O1_4 
REMARK    3  A    between atoms: C3_3  and  N1_6 
REMARK    4  A    between atoms: C6_9  and  N2_10 
REMARK    5  A    between atoms: C8_12  and  C9_13 
REMARK    6  A    between atoms: C15_21  and  C16_22 
REMARK    7  A    between atoms: C16_22  and  O4_23 
REMARK    8  A    between atoms: C16_22  and  N3_25 
REMARK    9  A    between atoms: N3_25  and  C17_27 
REMARK   10  A    between atoms: C17_27  and  C18_28 
REMARK   11  A    between atoms: C18_28  and  C19_29 
REMARK       I    between atoms: C19_29  and  N4_31 
REMARK   12  A    between atoms: N4_31  and  C20_33 
REMARK   13  A    between atoms: C20_33  and  C21_34 
REMARK   14  A    between atoms: C21_34  and  N5_35 
REMARK   15  A    between atoms: N5_35  and  C22_36 
REMARK   16  A    between atoms: N5_35  and  C24_38 
ROOT
HETATM    1  N2  UNL     1      18.760  24.777  17.215  1.00  0.00    -0.344 N 
HETATM    2  C7  UNL     1      19.390  24.908  18.406  1.00  0.00     0.111 A 
HETATM    3  C8  UNL     1      18.865  24.290  19.515  1.00  0.00     0.076 A 
HETATM    4  C11 UNL     1      17.714  23.549  19.413  1.00  0.00     0.200 A 
HETATM    5  O3  UNL     1      17.325  23.031  20.492  1.00  0.00    -0.286 OA
HETATM    6  C12 UNL     1      17.028  23.386  18.195  1.00  0.00     0.056 A 
HETATM    7  C13 UNL     1      15.893  22.703  17.919  1.00  0.00    -0.024 A 
HETATM    8  C14 UNL     1      15.111  21.897  18.948  1.00  0.00     0.050 C 
HETATM    9  C15 UNL     1      15.438  22.718  16.637  1.00  0.00     0.064 A 
HETATM   10  S1  UNL     1      16.638  23.707  15.843  1.00  0.00    -0.067 SA
HETATM   11  C26 UNL     1      17.629  24.038  17.158  1.00  0.00     0.092 A 
ENDROOT
BRANCH   9  12
HETATM   12  C16 UNL     1      14.282  22.120  15.949  1.00  0.00     0.153 C 
BRANCH  12  13
HETATM   13  O4  UNL     1      13.224  22.897  15.848  1.00  0.00    -0.345 OA
ATOM     14  H4  UNL     1      12.399  22.493  16.090  1.00  0.00     0.219 HD
ENDBRANCH  12  13
BRANCH  12  15
HETATM   15  N3  UNL     1      14.120  20.875  15.391  1.00  0.00    -0.369 N 
ATOM     16  H3  UNL     1      14.176  20.052  15.991  1.00  0.00     0.161 HD
BRANCH  15  17
HETATM   17  C17 UNL     1      13.872  20.699  13.972  1.00  0.00     0.131 C 
BRANCH  17  18
HETATM   18  C18 UNL     1      12.645  19.892  13.655  1.00  0.00     0.122 C 
BRANCH  18  19
HETATM   19  C19 UNL     1      11.762  19.945  14.883  1.00  0.00     0.219 C 
HETATM   20  O5  UNL     1      11.035  20.943  15.083  1.00  0.00    -0.274 OA
HETATM   21  N4  UNL     1      11.767  18.860  15.801  1.00  0.00    -0.359 N 
ATOM     22  H4  UNL     1      12.378  18.072  15.584  1.00  0.00     0.162 HD
BRANCH  21  23
HETATM   23  C20 UNL     1      10.993  18.770  17.003  1.00  0.00     0.142 C 
BRANCH  23  24
HETATM   24  C21 UNL     1      11.735  19.398  18.144  1.00  0.00     0.146 C 
BRANCH  24  25
HETATM   25  N5  UNL     1      12.300  18.431  19.011  1.00  0.00    -0.373 N 
BRANCH  25  26
HETATM   26  C22 UNL     1      13.666  18.518  19.328  1.00  0.00     0.058 C 
HETATM   27  C23 UNL     1      14.612  17.886  18.350  1.00  0.00     0.055 C 
ENDBRANCH  25  26
BRANCH  25  28
HETATM   28  C24 UNL     1      11.409  17.842  19.928  1.00  0.00     0.058 C 
HETATM   29  C25 UNL     1      12.240  17.154  21.009  1.00  0.00     0.055 C 
ENDBRANCH  25  28
ENDBRANCH  24  25
ENDBRANCH  23  24
ENDBRANCH  21  23
ENDBRANCH  18  19
ENDBRANCH  17  18
ENDBRANCH  15  17
ENDBRANCH  12  15
ENDBRANCH   9  12
BRANCH   1  30
HETATM   30  C6  UNL     1      19.340  25.434  16.102  1.00  0.00     0.093 C 
HETATM   31  C5  UNL     1      18.271  26.100  15.219  1.00  0.00     0.045 C 
HETATM   32  C4  UNL     1      18.977  26.664  13.978  1.00  0.00     0.127 C 
HETATM   33  N1  UNL     1      20.314  26.992  14.386  1.00  0.00    -0.362 N 
HETATM   34  C28 UNL     1      21.163  25.758  14.526  1.00  0.00     0.127 C 
HETATM   35  C27 UNL     1      20.290  24.705  15.244  1.00  0.00     0.045 C 
BRANCH  33  36
HETATM   36  C3  UNL     1      20.880  28.239  14.692  1.00  0.00     0.137 C 
BRANCH  36  37
HETATM   37  C2  UNL     1      22.223  28.724  14.575  1.00  0.00     0.045 C 
HETATM   38  C1  UNL     1      23.117  28.990  15.470  1.00  0.00     0.015 C 
ENDBRANCH  36  37
BRANCH  36  39
HETATM   39  O1  UNL     1      20.046  29.140  15.174  1.00  0.00    -0.346 OA
ATOM     40  H1  UNL     1      19.172  29.068  14.811  1.00  0.00     0.219 HD
ENDBRANCH  36  39
ENDBRANCH  33  36
ENDBRANCH   1  30
BRANCH   3  41
HETATM   41  C9  UNL     1      19.549  24.427  20.825  1.00  0.00     0.161 C 
HETATM   42  C10 UNL     1      20.287  25.708  21.106  1.00  0.00     0.097 C 
HETATM   43  O2  UNL     1      19.487  23.487  21.635  1.00  0.00    -0.293 OA
ENDBRANCH   3  41
TORSDOF 16
ENDMDL
MODEL 2
REMARK VINA RESULT: -9.034933181      2.546      5.265
REMARK  16 active torsions:
REMARK  status: ('A' for Active; 'I' for Inactive)
REMARK    1  A    between atoms: C2_2  and  C3_3 
REMARK    2  A    between atoms: C3_3  and  O1_4 
REMARK    3  A    between atoms: C3_3  and  N1_6 
REMARK    4  A    between atoms: C6_9  and  N2_10 
REMARK    5  A    between atoms: C8_12  and  C9_13 
REMARK    6  A    between atoms: C15_21  and  C16_22 
REMARK    7  A    between atoms: C16_22  and  O4_23 
REMARK    8  A    between atoms: C16_22  and  N3_25 
REMARK    9  A    between atoms: N3_25  and  C17_27 
REMARK   10  A    between atoms: C17_27  and  C18_28 
REMARK   11  A    between atoms: C18_28  and  C19_29 
REMARK       I    between atoms: C19_29  and  N4_31 
REMARK   12  A    between atoms: N4_31  and  C20_33 
REMARK   13  A    between atoms: C20_33  and  C21_34 
REMARK   14  A    between atoms: C21_34  and  N5_35 
REMARK   15  A    between atoms: N5_35  and  C22_36 
REMARK   16  A    between atoms: N5_35  and  C24_38 
ROOT
HETATM    1  N2  UNL     1      20.728  26.124  18.001  1.00  0.00    -0.344 N 
HETATM    2  C7  UNL     1      20.918  27.135  17.122  1.00  0.00     0.111 A 
HETATM    3  C8  UNL     1      20.232  27.127  15.932  1.00  0.00     0.076 A 
HETATM    4  C11 UNL     1      19.364  26.105  15.641  1.00  0.00     0.200 A 
HETATM    5  O3  UNL     1      18.792  26.201  14.524  1.00  0.00    -0.286 OA
HETATM    6  C12 UNL     1      19.135  25.035  16.527  1.00  0.00     0.056 A 
HETATM    7  C13 UNL     1      18.328  23.956  16.401  1.00  0.00    -0.024 A 
HETATM    8  C14 UNL     1      17.426  23.702  15.200  1.00  0.00     0.050 C 
HETATM    9  C15 UNL     1      18.304  23.057  17.423  1.00  0.00     0.064 A 
HETATM   10  S1  UNL     1      19.434  23.766  18.549  1.00  0.00    -0.067 SA
HETATM   11  C26 UNL     1      19.864  25.136  17.676  1.00  0.00     0.092 A 
ENDROOT
BRANCH   9  12
HETATM   12  C16 UNL     1      17.584  21.797  17.666  1.00  0.00     0.153 C 
BRANCH  12  13
HETATM   13  O4  UNL     1      17.886  20.809  16.851  1.00  0.00    -0.345 OA
ATOM     14  H4  UNL     1      17.348  20.747  16.070  1.00  0.00     0.219 HD
ENDBRANCH  12  13
BRANCH  12  15
HETATM   15  N3  UNL     1      16.639  21.476  18.611  1.00  0.00    -0.369 N 
ATOM     16  H3  UNL     1      16.767  20.636  19.175  1.00  0.00     0.161 HD
BRANCH  15  17
HETATM   17  C17 UNL     1      15.465  22.301  18.828  1.00  0.00     0.131 C 
BRANCH  17  18
HETATM   18  C18 UNL     1      14.767  22.725  17.568  1.00  0.00     0.122 C 
BRANCH  18  19
HETATM   19  C19 UNL     1      14.132  21.481  16.983  1.00  0.00     0.219 C 
HETATM   20  O5  UNL     1      14.744  20.822  16.114  1.00  0.00    -0.274 OA
HETATM   21  N4  UNL     1      12.845  21.073  17.425  1.00  0.00    -0.359 N 
ATOM     22  H4  UNL     1      12.396  21.649  18.138  1.00  0.00     0.162 HD
BRANCH  21  23
HETATM   23  C20 UNL     1      12.119  19.928  16.962  1.00  0.00     0.142 C 
BRANCH  23  24
HETATM   24  C21 UNL     1      11.514  19.196  18.122  1.00  0.00     0.146 C 
BRANCH  24  25
HETATM   25  N5  UNL     1      12.495  18.572  18.930  1.00  0.00    -0.373 N 
BRANCH  25  26
HETATM   26  C22 UNL     1      12.354  18.617  20.328  1.00  0.00     0.058 C 
HETATM   27  C23 UNL     1      12.244  17.291  21.022  1.00  0.00     0.055 C 
ENDBRANCH  25  26
BRANCH  25  28
HETATM   28  C24 UNL     1      13.178  17.494  18.335  1.00  0.00     0.058 C 
HETATM   29  C25 UNL     1      14.675  17.782  18.425  1.00  0.00     0.055 C 
ENDBRANCH  25  28
ENDBRANCH  24  25
ENDBRANCH  23  24
ENDBRANCH  21  23
ENDBRANCH  18  19
ENDBRANCH  17  18
ENDBRANCH  15  17
ENDBRANCH  12  15
ENDBRANCH   9  12
BRANCH   1  30
HETATM   30  C6  UNL     1      21.460  26.177  19.213  1.00  0.00     0.093 C 
HETATM   31  C5  UNL     1      22.635  27.165  19.120  1.00  0.00     0.045 C 
HETATM   32  C4  UNL     1      23.442  27.053  20.421  1.00  0.00     0.127 C 
HETATM   33  N1  UNL     1      22.512  26.665  21.443  1.00  0.00    -0.362 N 
HETATM   34  C28 UNL     1      22.151  25.208  21.333  1.00  0.00     0.127 C 
HETATM   35  C27 UNL     1      21.930  24.924  19.831  1.00  0.00     0.045 C 
BRANCH  33  36
HETATM   36  C3  UNL     1      21.901  27.437  22.445  1.00  0.00     0.137 C 
BRANCH  36  37
HETATM   37  C2  UNL     1      22.042  27.422  23.870  1.00  0.00     0.045 C 
HETATM   38  C1  UNL     1      21.455  28.108  24.794  1.00  0.00     0.015 C 
ENDBRANCH  36  37
BRANCH  36  39
HETATM   39  O1  UNL     1      21.043  28.344  22.020  1.00  0.00    -0.346 OA
ATOM     40  H1  UNL     1      21.257  28.682  21.159  1.00  0.00     0.219 HD
ENDBRANCH  36  39
ENDBRANCH  33  36
ENDBRANCH   1  30
BRANCH   3  41
HETATM   41  C9  UNL     1      20.433  28.232  14.960  1.00  0.00     0.161 C 
HETATM   42  C10 UNL     1      21.671  28.203  14.106  1.00  0.00     0.097 C 
HETATM   43  O2  UNL     1      19.579  29.130  14.888  1.00  0.00    -0.293 OA
ENDBRANCH   3  41
TORSDOF 16
ENDMDL
MODEL 3
REMARK VINA RESULT: -8.802392739      2.674      5.810
REMARK  16 active torsions:
REMARK  status: ('A' for Active; 'I' for Inactive)
REMARK    1  A    between atoms: C2_2  and  C3_3 
REMARK    2  A    between atoms: C3_3  and  O1_4 
REMARK    3  A    between atoms: C3_3  and  N1_6 
REMARK    4  A    between atoms: C6_9  and  N2_10 
REMARK    5  A    between atoms: C8_12  and  C9_13 
REMARK    6  A    between atoms: C15_21  and  C16_22 
REMARK    7  A    between atoms: C16_22  and  O4_23 
REMARK    8  A    between atoms: C16_22  and  N3_25 
REMARK    9  A    between atoms: N3_25  and  C17_27 
REMARK   10  A    between atoms: C17_27  and  C18_28 
REMARK   11  A    between atoms: C18_28  and  C19_29 
REMARK       I    between atoms: C19_29  and  N4_31 
REMARK   12  A    between atoms: N4_31  and  C20_33 
REMARK   13  A    between atoms: C20_33  and  C21_34 
REMARK   14  A    between atoms: C21_34  and  N5_35 
REMARK   15  A    between atoms: N5_35  and  C22_36 
REMARK   16  A    between atoms: N5_35  and  C24_38 
ROOT
HETATM    1  N2  UNL     1      20.808  26.125  18.045  1.00  0.00    -0.344 N 
HETATM    2  C7  UNL     1      21.002  27.135  17.166  1.00  0.00     0.111 A 
HETATM    3  C8  UNL     1      20.323  27.127  15.972  1.00  0.00     0.076 A 
HETATM    4  C11 UNL     1      19.457  26.103  15.677  1.00  0.00     0.200 A 
HETATM    5  O3  UNL     1      18.893  26.198  14.556  1.00  0.00    -0.286 OA
HETATM    6  C12 UNL     1      19.224  25.033  16.563  1.00  0.00     0.056 A 
HETATM    7  C13 UNL     1      18.420  23.953  16.432  1.00  0.00    -0.024 A 
HETATM    8  C14 UNL     1      17.525  23.698  15.226  1.00  0.00     0.050 C 
HETATM    9  C15 UNL     1      18.390  23.056  17.454  1.00  0.00     0.064 A 
HETATM   10  S1  UNL     1      19.512  23.766  18.587  1.00  0.00    -0.067 SA
HETATM   11  C26 UNL     1      19.946  25.136  17.716  1.00  0.00     0.092 A 
ENDROOT
BRANCH   9  12
HETATM   12  C16 UNL     1      17.670  21.795  17.694  1.00  0.00     0.153 C 
BRANCH  12  13
HETATM   13  O4  UNL     1      17.950  20.818  16.857  1.00  0.00    -0.345 OA
ATOM     14  H4  UNL     1      17.818  19.941  17.197  1.00  0.00     0.219 HD
ENDBRANCH  12  13
BRANCH  12  15
HETATM   15  N3  UNL     1      16.744  21.464  18.654  1.00  0.00    -0.369 N 
ATOM     16  H3  UNL     1      16.960  20.717  19.315  1.00  0.00     0.161 HD
BRANCH  15  17
HETATM   17  C17 UNL     1      15.469  22.148  18.755  1.00  0.00     0.131 C 
BRANCH  17  18
HETATM   18  C18 UNL     1      14.343  21.286  19.250  1.00  0.00     0.122 C 
BRANCH  18  19
HETATM   19  C19 UNL     1      13.934  20.399  18.094  1.00  0.00     0.219 C 
HETATM   20  O5  UNL     1      14.640  19.411  17.790  1.00  0.00    -0.274 OA
HETATM   21  N4  UNL     1      12.753  20.695  17.362  1.00  0.00    -0.359 N 
ATOM     22  H4  UNL     1      12.217  21.511  17.659  1.00  0.00     0.162 HD
BRANCH  21  23
HETATM   23  C20 UNL     1      12.245  19.954  16.246  1.00  0.00     0.142 C 
BRANCH  23  24
HETATM   24  C21 UNL     1      12.317  20.782  14.999  1.00  0.00     0.146 C 
BRANCH  24  25
HETATM   25  N5  UNL     1      13.428  21.661  15.006  1.00  0.00    -0.373 N 
BRANCH  25  26
HETATM   26  C22 UNL     1      14.673  21.186  14.558  1.00  0.00     0.058 C 
HETATM   27  C23 UNL     1      15.033  21.517  13.139  1.00  0.00     0.055 C 
ENDBRANCH  25  26
BRANCH  25  28
HETATM   28  C24 UNL     1      13.122  23.029  14.884  1.00  0.00     0.058 C 
HETATM   29  C25 UNL     1      14.002  23.794  15.871  1.00  0.00     0.055 C 
ENDBRANCH  25  28
ENDBRANCH  24  25
ENDBRANCH  23  24
ENDBRANCH  21  23
ENDBRANCH  18  19
ENDBRANCH  17  18
ENDBRANCH  15  17
ENDBRANCH  12  15
ENDBRANCH   9  12
BRANCH   1  30
HETATM   30  C6  UNL     1      21.532  26.179  19.261  1.00  0.00     0.093 C 
HETATM   31  C5  UNL     1      22.716  27.157  19.170  1.00  0.00     0.045 C 
HETATM   32  C4  UNL     1      23.514  27.046  20.477  1.00  0.00     0.127 C 
HETATM   33  N1  UNL     1      22.574  26.672  21.496  1.00  0.00    -0.362 N 
HETATM   34  C28 UNL     1      22.203  25.217  21.392  1.00  0.00     0.127 C 
HETATM   35  C27 UNL     1      21.988  24.927  19.890  1.00  0.00     0.045 C 
BRANCH  33  36
HETATM   36  C3  UNL     1      21.964  27.455  22.488  1.00  0.00     0.137 C 
BRANCH  36  37
HETATM   37  C2  UNL     1      22.138  27.487  23.909  1.00  0.00     0.045 C 
HETATM   38  C1  UNL     1      21.413  28.000  24.849  1.00  0.00     0.015 C 
ENDBRANCH  36  37
BRANCH  36  39
HETATM   39  O1  UNL     1      21.068  28.322  22.058  1.00  0.00    -0.346 OA
ATOM     40  H1  UNL     1      21.212  28.590  21.158  1.00  0.00     0.219 HD
ENDBRANCH  36  39
ENDBRANCH  33  36
ENDBRANCH   1  30
BRANCH   3  41
HETATM   41  C9  UNL     1      20.528  28.231  15.001  1.00  0.00     0.161 C 
HETATM   42  C10 UNL     1      21.751  28.181  14.125  1.00  0.00     0.097 C 
HETATM   43  O2  UNL     1      19.691  29.147  14.948  1.00  0.00    -0.293 OA
ENDBRANCH   3  41
TORSDOF 16
ENDMDL
MODEL 4
REMARK VINA RESULT: -8.710108513      1.934      3.625
REMARK  16 active torsions:
REMARK  status: ('A' for Active; 'I' for Inactive)
REMARK    1  A    between atoms: C2_2  and  C3_3 
REMARK    2  A    between atoms: C3_3  and  O1_4 
REMARK    3  A    between atoms: C3_3  and  N1_6 
REMARK    4  A    between atoms: C6_9  and  N2_10 
REMARK    5  A    between atoms: C8_12  and  C9_13 
REMARK    6  A    between atoms: C15_21  and  C16_22 
REMARK    7  A    between atoms: C16_22  and  O4_23 
REMARK    8  A    between atoms: C16_22  and  N3_25 
REMARK    9  A    between atoms: N3_25  and  C17_27 
REMARK   10  A    between atoms: C17_27  and  C18_28 
REMARK   11  A    between atoms: C18_28  and  C19_29 
REMARK       I    between atoms: C19_29  and  N4_31 
REMARK   12  A    between atoms: N4_31  and  C20_33 
REMARK   13  A    between atoms: C20_33  and  C21_34 
REMARK   14  A    between atoms: C21_34  and  N5_35 
REMARK   15  A    between atoms: N5_35  and  C22_36 
REMARK   16  A    between atoms: N5_35  and  C24_38 
ROOT
HETATM    1  N2  UNL     1      20.158  25.344  17.806  1.00  0.00    -0.344 N 
HETATM    2  C7  UNL     1      20.811  26.023  18.778  1.00  0.00     0.111 A 
HETATM    3  C8  UNL     1      20.721  25.588  20.078  1.00  0.00     0.076 A 
HETATM    4  C11 UNL     1      19.974  24.477  20.384  1.00  0.00     0.200 A 
HETATM    5  O3  UNL     1      19.961  24.173  21.605  1.00  0.00    -0.286 OA
HETATM    6  C12 UNL     1      19.279  23.741  19.405  1.00  0.00     0.056 A 
HETATM    7  C13 UNL     1      18.503  22.641  19.530  1.00  0.00    -0.024 A 
HETATM    8  C14 UNL     1      18.249  21.922  20.849  1.00  0.00     0.050 C 
HETATM    9  C15 UNL     1      17.937  22.131  18.403  1.00  0.00     0.064 A 
HETATM   10  S1  UNL     1      18.521  23.231  17.180  1.00  0.00    -0.067 SA
HETATM   11  C26 UNL     1      19.434  24.256  18.151  1.00  0.00     0.092 A 
ENDROOT
BRANCH   9  12
HETATM   12  C16 UNL     1      17.058  20.984  18.122  1.00  0.00     0.153 C 
BRANCH  12  13
HETATM   13  O4  UNL     1      17.288  20.365  16.983  1.00  0.00    -0.345 OA
ATOM     14  H4  UNL     1      16.816  19.549  16.861  1.00  0.00     0.219 HD
ENDBRANCH  12  13
BRANCH  12  15
HETATM   15  N3  UNL     1      16.029  20.446  18.856  1.00  0.00    -0.369 N 
ATOM     16  H3  UNL     1      16.113  19.490  19.202  1.00  0.00     0.161 HD
BRANCH  15  17
HETATM   17  C17 UNL     1      14.826  21.201  19.153  1.00  0.00     0.131 C 
BRANCH  17  18
HETATM   18  C18 UNL     1      13.573  20.374  19.200  1.00  0.00     0.122 C 
BRANCH  18  19
HETATM   19  C19 UNL     1      13.274  19.958  17.776  1.00  0.00     0.219 C 
HETATM   20  O5  UNL     1      13.998  19.107  17.213  1.00  0.00    -0.274 OA
HETATM   21  N4  UNL     1      12.174  20.538  17.090  1.00  0.00    -0.359 N 
ATOM     22  H4  UNL     1      11.617  21.223  17.602  1.00  0.00     0.162 HD
BRANCH  21  23
HETATM   23  C20 UNL     1      11.772  20.249  15.745  1.00  0.00     0.142 C 
BRANCH  23  24
HETATM   24  C21 UNL     1      12.048  21.426  14.859  1.00  0.00     0.146 C 
BRANCH  24  25
HETATM   25  N5  UNL     1      13.414  21.797  14.874  1.00  0.00    -0.373 N 
BRANCH  25  26
HETATM   26  C22 UNL     1      14.349  20.975  14.221  1.00  0.00     0.058 C 
HETATM   27  C23 UNL     1      15.124  21.615  13.106  1.00  0.00     0.055 C 
ENDBRANCH  25  26
BRANCH  25  28
HETATM   28  C24 UNL     1      13.669  23.176  14.998  1.00  0.00     0.058 C 
HETATM   29  C25 UNL     1      14.494  23.387  16.265  1.00  0.00     0.055 C 
ENDBRANCH  25  28
ENDBRANCH  24  25
ENDBRANCH  23  24
ENDBRANCH  21  23
ENDBRANCH  18  19
ENDBRANCH  17  18
ENDBRANCH  15  17
ENDBRANCH  12  15
ENDBRANCH   9  12
BRANCH   1  30
HETATM   30  C6  UNL     1      20.282  25.833  16.483  1.00  0.00     0.093 C 
HETATM   31  C5  UNL     1      19.046  26.648  16.063  1.00  0.00     0.045 C 
HETATM   32  C4  UNL     1      19.211  27.016  14.582  1.00  0.00     0.127 C 
HETATM   33  N1  UNL     1      20.624  27.107  14.342  1.00  0.00    -0.362 N 
HETATM   34  C28 UNL     1      21.254  25.743  14.256  1.00  0.00     0.127 C 
HETATM   35  C27 UNL     1      20.638  24.903  15.397  1.00  0.00     0.045 C 
BRANCH  33  36
HETATM   36  C3  UNL     1      21.446  28.239  14.228  1.00  0.00     0.137 C 
BRANCH  36  37
HETATM   37  C2  UNL     1      22.426  28.791  15.114  1.00  0.00     0.045 C 
HETATM   38  C1  UNL     1      22.697  28.539  16.353  1.00  0.00     0.015 C 
ENDBRANCH  36  37
BRANCH  36  39
HETATM   39  O1  UNL     1      21.310  28.930  13.113  1.00  0.00    -0.346 OA
ATOM     40  H1  UNL     1      20.688  29.643  13.191  1.00  0.00     0.219 HD
ENDBRANCH  36  39
ENDBRANCH  33  36
ENDBRANCH   1  30
BRANCH   3  41
HETATM   41  C9  UNL     1      21.434  26.324  21.151  1.00  0.00     0.161 C 
HETATM   42  C10 UNL     1      22.740  25.761  21.645  1.00  0.00     0.097 C 
HETATM   43  O2  UNL     1      20.933  27.368  21.599  1.00  0.00    -0.293 OA
ENDBRANCH   3  41
TORSDOF 16
ENDMDL
MODEL 5
REMARK VINA RESULT: -8.707540225      1.174      1.605
REMARK  16 active torsions:
REMARK  status: ('A' for Active; 'I' for Inactive)
REMARK    1  A    between atoms: C2_2  and  C3_3 
REMARK    2  A    between atoms: C3_3  and  O1_4 
REMARK    3  A    between atoms: C3_3  and  N1_6 
REMARK    4  A    between atoms: C6_9  and  N2_10 
REMARK    5  A    between atoms: C8_12  and  C9_13 
REMARK    6  A    between atoms: C15_21  and  C16_22 
REMARK    7  A    between atoms: C16_22  and  O4_23 
REMARK    8  A    between atoms: C16_22  and  N3_25 
REMARK    9  A    between atoms: N3_25  and  C17_27 
REMARK   10  A    between atoms: C17_27  and  C18_28 
REMARK   11  A    between atoms: C18_28  and  C19_29 
REMARK       I    between atoms: C19_29  and  N4_31 
REMARK   12  A    between atoms: N4_31  and  C20_33 
REMARK   13  A    between atoms: C20_33  and  C21_34 
REMARK   14  A    between atoms: C21_34  and  N5_35 
REMARK   15  A    between atoms: N5_35  and  C22_36 
REMARK   16  A    between atoms: N5_35  and  C24_38 
ROOT
HETATM    1  N2  UNL     1      18.392  24.384  16.812  1.00  0.00    -0.344 N 
HETATM    2  C7  UNL     1      18.643  24.511  18.136  1.00  0.00     0.111 A 
HETATM    3  C8  UNL     1      17.925  23.756  19.031  1.00  0.00     0.076 A 
HETATM    4  C11 UNL     1      16.964  22.883  18.585  1.00  0.00     0.200 A 
HETATM    5  O3  UNL     1      16.369  22.246  19.492  1.00  0.00    -0.286 OA
HETATM    6  C12 UNL     1      16.672  22.718  17.217  1.00  0.00     0.056 A 
HETATM    7  C13 UNL     1      15.766  21.917  16.610  1.00  0.00    -0.024 A 
HETATM    8  C14 UNL     1      14.853  20.949  17.350  1.00  0.00     0.050 C 
HETATM    9  C15 UNL     1      15.687  21.962  15.252  1.00  0.00     0.064 A 
HETATM   10  S1  UNL     1      16.907  23.149  14.862  1.00  0.00    -0.067 SA
HETATM   11  C26 UNL     1      17.438  23.512  16.414  1.00  0.00     0.092 A 
ENDROOT
BRANCH   9  12
HETATM   12  C16 UNL     1      14.863  21.271  14.247  1.00  0.00     0.153 C 
BRANCH  12  13
HETATM   13  O4  UNL     1      15.170  21.531  12.993  1.00  0.00    -0.345 OA
ATOM     14  H4  UNL     1      14.819  22.345  12.650  1.00  0.00     0.219 HD
ENDBRANCH  12  13
BRANCH  12  15
HETATM   15  N3  UNL     1      13.818  20.393  14.400  1.00  0.00    -0.369 N 
ATOM     16  H3  UNL     1      13.519  20.137  15.341  1.00  0.00     0.161 HD
BRANCH  15  17
HETATM   17  C17 UNL     1      13.128  19.820  13.259  1.00  0.00     0.131 C 
BRANCH  17  18
HETATM   18  C18 UNL     1      11.743  19.322  13.562  1.00  0.00     0.122 C 
BRANCH  18  19
HETATM   19  C19 UNL     1      11.411  19.786  14.964  1.00  0.00     0.219 C 
HETATM   20  O5  UNL     1      11.110  20.984  15.166  1.00  0.00    -0.274 OA
HETATM   21  N4  UNL     1      11.445  18.859  16.040  1.00  0.00    -0.359 N 
ATOM     22  H4  UNL     1      11.695  17.896  15.813  1.00  0.00     0.162 HD
BRANCH  21  23
HETATM   23  C20 UNL     1      11.162  19.151  17.413  1.00  0.00     0.142 C 
BRANCH  23  24
HETATM   24  C21 UNL     1      11.075  17.882  18.205  1.00  0.00     0.146 C 
BRANCH  24  25
HETATM   25  N5  UNL     1      12.264  17.623  18.931  1.00  0.00    -0.373 N 
BRANCH  25  26
HETATM   26  C22 UNL     1      12.211  17.597  20.336  1.00  0.00     0.058 C 
HETATM   27  C23 UNL     1      12.670  18.843  21.035  1.00  0.00     0.055 C 
ENDBRANCH  25  26
BRANCH  25  28
HETATM   28  C24 UNL     1      13.232  16.854  18.258  1.00  0.00     0.058 C 
HETATM   29  C25 UNL     1      14.588  17.524  18.468  1.00  0.00     0.055 C 
ENDBRANCH  25  28
ENDBRANCH  24  25
ENDBRANCH  23  24
ENDBRANCH  21  23
ENDBRANCH  18  19
ENDBRANCH  17  18
ENDBRANCH  15  17
ENDBRANCH  12  15
ENDBRANCH   9  12
BRANCH   1  30
HETATM   30  C6  UNL     1      19.158  25.185  15.930  1.00  0.00     0.093 C 
HETATM   31  C5  UNL     1      18.263  25.940  14.933  1.00  0.00     0.045 C 
HETATM   32  C4  UNL     1      19.182  26.668  13.941  1.00  0.00     0.127 C 
HETATM   33  N1  UNL     1      20.394  26.962  14.652  1.00  0.00    -0.362 N 
HETATM   34  C28 UNL     1      21.248  25.733  14.814  1.00  0.00     0.127 C 
HETATM   35  C27 UNL     1      20.291  24.584  15.204  1.00  0.00     0.045 C 
BRANCH  33  36
HETATM   36  C3  UNL     1      20.836  28.169  15.217  1.00  0.00     0.137 C 
BRANCH  36  37
HETATM   37  C2  UNL     1      22.063  28.516  15.868  1.00  0.00     0.045 C 
HETATM   38  C1  UNL     1      23.180  28.970  15.402  1.00  0.00     0.015 C 
ENDBRANCH  36  37
BRANCH  36  39
HETATM   39  O1  UNL     1      19.987  29.175  15.145  1.00  0.00    -0.346 OA
ATOM     40  H1  UNL     1      19.243  29.075  15.726  1.00  0.00     0.219 HD
ENDBRANCH  36  39
ENDBRANCH  33  36
ENDBRANCH   1  30
BRANCH   3  41
HETATM   41  C9  UNL     1      18.192  23.888  20.485  1.00  0.00     0.161 C 
HETATM   42  C10 UNL     1      18.973  22.793  21.161  1.00  0.00     0.097 C 
HETATM   43  O2  UNL     1      17.766  24.887  21.086  1.00  0.00    -0.293 OA
ENDBRANCH   3  41
TORSDOF 16
ENDMDL
