MODEL 1
REMARK VINA RESULT: -8.465462051      0.000      0.000
REMARK  14 active torsions:
REMARK  status: ('A' for Active; 'I' for Inactive)
REMARK    1  A    between atoms: C7_8  and  N2_9 
REMARK    2  A    between atoms: C9_13  and  C10_14 
REMARK    3  A    between atoms: C10_14  and  C11_16 
REMARK    4  A    between atoms: C13_18  and  C14_19 
REMARK    5  A    between atoms: N3_22  and  C15_23 
REMARK    6  A    between atoms: C15_23  and  C16_24 
REMARK       I    between atoms: C16_24  and  N4_26 
REMARK    7  A    between atoms: N4_26  and  C17_27 
REMARK    8  A    between atoms: N4_26  and  C20_31 
REMARK    9  A    between atoms: C17_27  and  C18_28 
REMARK   10  A    between atoms: C18_28  and  O7_29 
REMARK   11  A    between atoms: C20_31  and  N5_33 
REMARK   12  A    between atoms: N5_33  and  C21_35 
REMARK   13  A    between atoms: C21_35  and  C22_36 
REMARK   14  A    between atoms: C22_36  and  C23_37 
ROOT
HETATM    1  C1  UNL     1      14.864  21.351  14.105  1.00  0.00     0.018 C 
HETATM    2  C2  UNL     1      14.499  20.952  15.192  1.00  0.00    -0.075 C 
HETATM    3  C3  UNL     1      14.042  20.486  16.468  1.00  0.00     0.052 A 
HETATM    4  C4  UNL     1      12.725  20.078  16.541  1.00  0.00     0.066 A 
HETATM    5  C5  UNL     1      11.855  20.118  15.378  1.00  0.00     0.101 C 
HETATM    6  N1  UNL     1      11.152  20.147  14.458  1.00  0.00    -0.191 NA
HETATM    7  C6  UNL     1      12.251  19.629  17.750  1.00  0.00     0.060 A 
HETATM    8  C7  UNL     1      13.049  19.577  18.881  1.00  0.00     0.105 A 
HETATM    9  C8  UNL     1      14.378  19.988  18.810  1.00  0.00     0.053 A 
HETATM   10  C9  UNL     1      14.844  20.437  17.589  1.00  0.00     0.037 A 
ENDROOT
BRANCH  10  11
HETATM   11  C10 UNL     1      16.223  20.857  17.489  1.00  0.00     0.196 C 
HETATM   12  O3  UNL     1      17.039  20.119  16.856  1.00  0.00    -0.287 OA
BRANCH  11  13
HETATM   13  C11 UNL     1      16.766  22.086  18.067  1.00  0.00     0.040 A 
HETATM   14  C12 UNL     1      17.357  22.202  19.306  1.00  0.00     0.054 A 
HETATM   15  C13 UNL     1      17.747  23.539  19.533  1.00  0.00     0.113 A 
HETATM   16  N3  UNL     1      17.381  24.192  18.423  1.00  0.00    -0.336 N 
HETATM   17  C25 UNL     1      16.795  23.357  17.533  1.00  0.00     0.023 A 
HETATM   18  C26 UNL     1      16.270  23.742  16.203  1.00  0.00     0.069 C 
BRANCH  15  19
HETATM   19  C14 UNL     1      18.393  24.014  20.741  1.00  0.00     0.227 C 
HETATM   20  O4  UNL     1      18.124  25.127  21.216  1.00  0.00    -0.643 OA
HETATM   21  O5  UNL     1      19.330  23.230  21.388  1.00  0.00    -0.643 OA
ENDBRANCH  15  19
BRANCH  16  22
HETATM   22  C15 UNL     1      17.589  25.631  18.176  1.00  0.00     0.232 C 
BRANCH  22  23
HETATM   23  C16 UNL     1      18.771  25.868  17.361  1.00  0.00     0.244 C 
HETATM   24  O6  UNL     1      18.559  25.897  16.085  1.00  0.00    -0.271 OA
HETATM   25  N4  UNL     1      20.113  26.072  17.736  1.00  0.00    -0.291 N 
BRANCH  25  26
HETATM   26  C17 UNL     1      21.108  26.298  16.640  1.00  0.00     0.160 C 
BRANCH  26  27
HETATM   27  C18 UNL     1      21.593  27.708  16.632  1.00  0.00     0.187 C 
BRANCH  27  28
HETATM   28  O7  UNL     1      20.689  28.605  16.097  1.00  0.00    -0.394 OA
HETATM   29  C19 UNL     1      20.600  28.445  14.726  1.00  0.00     0.201 C 
ENDBRANCH  27  28
ENDBRANCH  26  27
ENDBRANCH  25  26
BRANCH  25  30
HETATM   30  C20 UNL     1      20.674  26.087  19.027  1.00  0.00     0.176 C 
HETATM   31  S1  UNL     1      21.767  24.868  19.374  1.00  0.00    -0.041 SA
BRANCH  30  32
HETATM   32  N5  UNL     1      20.444  26.982  20.078  1.00  0.00    -0.367 N 
ATOM     33  H5  UNL     1      19.495  27.149  20.414  1.00  0.00     0.161 HD
BRANCH  32  34
HETATM   34  C21 UNL     1      21.584  27.681  20.693  1.00  0.00     0.122 C 
BRANCH  34  35
HETATM   35  C22 UNL     1      21.585  27.430  22.197  1.00  0.00     0.019 C 
BRANCH  35  36
HETATM   36  C23 UNL     1      22.846  26.699  22.600  1.00  0.00    -0.003 C 
HETATM   37  C24 UNL     1      23.227  27.069  24.001  1.00  0.00     0.005 C 
ENDBRANCH  35  36
ENDBRANCH  34  35
ENDBRANCH  32  34
ENDBRANCH  30  32
ENDBRANCH  25  30
ENDBRANCH  22  23
ENDBRANCH  16  22
ENDBRANCH  11  13
ENDBRANCH  10  11
BRANCH   8  38
HETATM   38  N2  UNL     1      12.534  19.110  20.117  1.00  0.00    -0.116 N 
HETATM   39  O1  UNL     1      13.297  19.037  21.094  1.00  0.00    -0.532 OA
HETATM   40  O2  UNL     1      11.228  18.733  20.283  1.00  0.00    -0.532 OA
ENDBRANCH   8  38
TORSDOF 14
ENDMDL
MODEL 2
REMARK VINA RESULT: -8.387156250      1.427      3.830
REMARK  14 active torsions:
REMARK  status: ('A' for Active; 'I' for Inactive)
REMARK    1  A    between atoms: C7_8  and  N2_9 
REMARK    2  A    between atoms: C9_13  and  C10_14 
REMARK    3  A    between atoms: C10_14  and  C11_16 
REMARK    4  A    between atoms: C13_18  and  C14_19 
REMARK    5  A    between atoms: N3_22  and  C15_23 
REMARK    6  A    between atoms: C15_23  and  C16_24 
REMARK       I    between atoms: C16_24  and  N4_26 
REMARK    7  A    between atoms: N4_26  and  C17_27 
REMARK    8  A    between atoms: N4_26  and  C20_31 
REMARK    9  A    between atoms: C17_27  and  C18_28 
REMARK   10  A    between atoms: C18_28  and  O7_29 
REMARK   11  A    between atoms: C20_31  and  N5_33 
REMARK   12  A    between atoms: N5_33  and  C21_35 
REMARK   13  A    between atoms: C21_35  and  C22_36 
REMARK   14  A    between atoms: C22_36  and  C23_37 
ROOT
HETATM    1  C1  UNL     1      15.160  21.766  14.087  1.00  0.00     0.018 C 
HETATM    2  C2  UNL     1      14.799  21.318  15.155  1.00  0.00    -0.075 C 
HETATM    3  C3  UNL     1      14.346  20.796  16.411  1.00  0.00     0.052 A 
HETATM    4  C4  UNL     1      12.993  20.551  16.527  1.00  0.00     0.066 A 
HETATM    5  C5  UNL     1      12.081  20.808  15.425  1.00  0.00     0.101 C 
HETATM    6  N1  UNL     1      11.344  21.009  14.555  1.00  0.00    -0.191 NA
HETATM    7  C6  UNL     1      12.523  20.055  17.719  1.00  0.00     0.060 A 
HETATM    8  C7  UNL     1      13.361  19.799  18.792  1.00  0.00     0.105 A 
HETATM    9  C8  UNL     1      14.728  20.045  18.677  1.00  0.00     0.053 A 
HETATM   10  C9  UNL     1      15.188  20.544  17.474  1.00  0.00     0.037 A 
ENDROOT
BRANCH  10  11
HETATM   11  C10 UNL     1      16.604  20.795  17.328  1.00  0.00     0.196 C 
HETATM   12  O3  UNL     1      17.377  19.812  17.113  1.00  0.00    -0.287 OA
BRANCH  11  13
HETATM   13  C11 UNL     1      17.230  22.114  17.409  1.00  0.00     0.040 A 
HETATM   14  C12 UNL     1      17.684  22.859  16.343  1.00  0.00     0.054 A 
HETATM   15  C13 UNL     1      18.242  24.071  16.801  1.00  0.00     0.113 A 
HETATM   16  N3  UNL     1      18.108  24.025  18.132  1.00  0.00    -0.336 N 
HETATM   17  C25 UNL     1      17.511  22.875  18.525  1.00  0.00     0.023 A 
HETATM   18  C26 UNL     1      17.208  22.492  19.924  1.00  0.00     0.069 C 
BRANCH  15  19
HETATM   19  C14 UNL     1      18.819  25.088  15.944  1.00  0.00     0.227 C 
HETATM   20  O4  UNL     1      18.252  26.176  15.767  1.00  0.00    -0.643 OA
HETATM   21  O5  UNL     1      20.023  24.861  15.302  1.00  0.00    -0.643 OA
ENDBRANCH  15  19
BRANCH  16  22
HETATM   22  C15 UNL     1      18.537  25.080  19.069  1.00  0.00     0.232 C 
BRANCH  22  23
HETATM   23  C16 UNL     1      19.883  24.838  19.566  1.00  0.00     0.244 C 
HETATM   24  O6  UNL     1      19.962  23.987  20.538  1.00  0.00    -0.271 OA
HETATM   25  N4  UNL     1      21.119  25.382  19.163  1.00  0.00    -0.291 N 
BRANCH  25  26
HETATM   26  C17 UNL     1      22.345  24.915  19.884  1.00  0.00     0.160 C 
BRANCH  26  27
HETATM   27  C18 UNL     1      22.890  25.983  20.770  1.00  0.00     0.187 C 
BRANCH  27  28
HETATM   28  O7  UNL     1      22.244  26.082  21.986  1.00  0.00    -0.394 OA
HETATM   29  C19 UNL     1      21.698  27.343  22.146  1.00  0.00     0.201 C 
ENDBRANCH  27  28
ENDBRANCH  26  27
ENDBRANCH  25  26
BRANCH  25  30
HETATM   30  C20 UNL     1      21.375  26.332  18.157  1.00  0.00     0.176 C 
HETATM   31  S1  UNL     1      20.780  27.873  18.425  1.00  0.00    -0.041 SA
BRANCH  30  32
HETATM   32  N5  UNL     1      22.061  26.172  16.947  1.00  0.00    -0.367 N 
ATOM     33  H5  UNL     1      21.895  25.351  16.365  1.00  0.00     0.161 HD
BRANCH  32  34
HETATM   34  C21 UNL     1      23.026  27.200  16.523  1.00  0.00     0.122 C 
BRANCH  34  35
HETATM   35  C22 UNL     1      22.782  27.556  15.061  1.00  0.00     0.019 C 
BRANCH  35  36
HETATM   36  C23 UNL     1      21.926  28.799  14.966  1.00  0.00    -0.003 C 
HETATM   37  C24 UNL     1      20.571  28.450  14.428  1.00  0.00     0.005 C 
ENDBRANCH  35  36
ENDBRANCH  34  35
ENDBRANCH  32  34
ENDBRANCH  30  32
ENDBRANCH  25  30
ENDBRANCH  22  23
ENDBRANCH  16  22
ENDBRANCH  11  13
ENDBRANCH  10  11
BRANCH   8  38
HETATM   38  N2  UNL     1      12.850  19.287  20.012  1.00  0.00    -0.116 N 
HETATM   39  O1  UNL     1      13.641  19.040  20.936  1.00  0.00    -0.532 OA
HETATM   40  O2  UNL     1      11.517  19.053  20.219  1.00  0.00    -0.532 OA
ENDBRANCH   8  38
TORSDOF 14
ENDMDL
MODEL 3
REMARK VINA RESULT: -8.115310982      3.046     10.071
REMARK  14 active torsions:
REMARK  status: ('A' for Active; 'I' for Inactive)
REMARK    1  A    between atoms: C7_8  and  N2_9 
REMARK    2  A    between atoms: C9_13  and  C10_14 
REMARK    3  A    between atoms: C10_14  and  C11_16 
REMARK    4  A    between atoms: C13_18  and  C14_19 
REMARK    5  A    between atoms: N3_22  and  C15_23 
REMARK    6  A    between atoms: C15_23  and  C16_24 
REMARK       I    between atoms: C16_24  and  N4_26 
REMARK    7  A    between atoms: N4_26  and  C17_27 
REMARK    8  A    between atoms: N4_26  and  C20_31 
REMARK    9  A    between atoms: C17_27  and  C18_28 
REMARK   10  A    between atoms: C18_28  and  O7_29 
REMARK   11  A    between atoms: C20_31  and  N5_33 
REMARK   12  A    between atoms: N5_33  and  C21_35 
REMARK   13  A    between atoms: C21_35  and  C22_36 
REMARK   14  A    between atoms: C22_36  and  C23_37 
ROOT
HETATM    1  C1  UNL     1      21.428  26.870  21.724  1.00  0.00     0.018 C 
HETATM    2  C2  UNL     1      22.112  26.825  20.722  1.00  0.00    -0.075 C 
HETATM    3  C3  UNL     1      22.940  26.782  19.553  1.00  0.00     0.052 A 
HETATM    4  C4  UNL     1      24.304  26.791  19.762  1.00  0.00     0.066 A 
HETATM    5  C5  UNL     1      24.864  26.839  21.102  1.00  0.00     0.101 C 
HETATM    6  N1  UNL     1      25.322  26.877  22.164  1.00  0.00    -0.191 NA
HETATM    7  C6  UNL     1      25.129  26.756  18.664  1.00  0.00     0.060 A 
HETATM    8  C7  UNL     1      24.633  26.712  17.371  1.00  0.00     0.105 A 
HETATM    9  C8  UNL     1      23.257  26.701  17.157  1.00  0.00     0.053 A 
HETATM   10  C9  UNL     1      22.438  26.737  18.269  1.00  0.00     0.037 A 
ENDROOT
BRANCH  10  11
HETATM   11  C10 UNL     1      21.006  26.715  18.072  1.00  0.00     0.196 C 
HETATM   12  O3  UNL     1      20.394  27.817  17.932  1.00  0.00    -0.287 OA
BRANCH  11  13
HETATM   13  C11 UNL     1      20.189  25.502  18.019  1.00  0.00     0.040 A 
HETATM   14  C12 UNL     1      19.642  24.851  19.102  1.00  0.00     0.054 A 
HETATM   15  C13 UNL     1      18.930  23.711  18.672  1.00  0.00     0.113 A 
HETATM   16  N3  UNL     1      19.068  23.707  17.341  1.00  0.00    -0.336 N 
HETATM   17  C25 UNL     1      19.811  24.758  16.922  1.00  0.00     0.023 A 
HETATM   18  C26 UNL     1      20.163  25.062  15.515  1.00  0.00     0.069 C 
BRANCH  15  19
HETATM   19  C14 UNL     1      18.234  22.793  19.554  1.00  0.00     0.227 C 
HETATM   20  O4  UNL     1      17.400  23.201  20.375  1.00  0.00    -0.643 OA
HETATM   21  O5  UNL     1      18.492  21.436  19.494  1.00  0.00    -0.643 OA
ENDBRANCH  15  19
BRANCH  16  22
HETATM   22  C15 UNL     1      18.486  22.705  16.428  1.00  0.00     0.232 C 
BRANCH  22  23
HETATM   23  C16 UNL     1      17.174  23.115  15.950  1.00  0.00     0.244 C 
HETATM   24  O6  UNL     1      17.189  23.943  14.955  1.00  0.00    -0.271 OA
HETATM   25  N4  UNL     1      15.887  22.757  16.395  1.00  0.00    -0.291 N 
BRANCH  25  26
HETATM   26  C17 UNL     1      14.718  23.358  15.677  1.00  0.00     0.160 C 
BRANCH  26  27
HETATM   27  C18 UNL     1      14.032  22.348  14.821  1.00  0.00     0.187 C 
BRANCH  27  28
HETATM   28  O7  UNL     1      14.885  21.413  14.269  1.00  0.00    -0.394 OA
HETATM   29  C19 UNL     1      15.227  21.770  12.977  1.00  0.00     0.201 C 
ENDBRANCH  27  28
ENDBRANCH  26  27
ENDBRANCH  25  26
BRANCH  25  30
HETATM   30  C20 UNL     1      15.527  21.898  17.451  1.00  0.00     0.176 C 
HETATM   31  S1  UNL     1      14.403  22.493  18.538  1.00  0.00    -0.041 SA
BRANCH  30  32
HETATM   32  N5  UNL     1      15.983  20.605  17.729  1.00  0.00    -0.367 N 
ATOM     33  H5  UNL     1      16.765  20.210  17.206  1.00  0.00     0.161 HD
BRANCH  32  34
HETATM   34  C21 UNL     1      15.323  19.818  18.784  1.00  0.00     0.122 C 
BRANCH  34  35
HETATM   35  C22 UNL     1      14.816  18.505  18.199  1.00  0.00     0.019 C 
BRANCH  35  36
HETATM   36  C23 UNL     1      13.848  17.850  19.158  1.00  0.00    -0.003 C 
HETATM   37  C24 UNL     1      12.688  17.274  18.403  1.00  0.00     0.005 C 
ENDBRANCH  35  36
ENDBRANCH  34  35
ENDBRANCH  32  34
ENDBRANCH  30  32
ENDBRANCH  25  30
ENDBRANCH  22  23
ENDBRANCH  16  22
ENDBRANCH  11  13
ENDBRANCH  10  11
BRANCH   8  38
HETATM   38  N2  UNL     1      25.507  26.675  16.254  1.00  0.00    -0.116 N 
HETATM   39  O1  UNL     1      25.474  27.609  15.438  1.00  0.00    -0.532 OA
HETATM   40  O2  UNL     1      26.390  25.652  16.035  1.00  0.00    -0.532 OA
ENDBRANCH   8  38
TORSDOF 14
ENDMDL
MODEL 4
REMARK VINA RESULT: -8.083216899      3.168      9.810
REMARK  14 active torsions:
REMARK  status: ('A' for Active; 'I' for Inactive)
REMARK    1  A    between atoms: C7_8  and  N2_9 
REMARK    2  A    between atoms: C9_13  and  C10_14 
REMARK    3  A    between atoms: C10_14  and  C11_16 
REMARK    4  A    between atoms: C13_18  and  C14_19 
REMARK    5  A    between atoms: N3_22  and  C15_23 
REMARK    6  A    between atoms: C15_23  and  C16_24 
REMARK       I    between atoms: C16_24  and  N4_26 
REMARK    7  A    between atoms: N4_26  and  C17_27 
REMARK    8  A    between atoms: N4_26  and  C20_31 
REMARK    9  A    between atoms: C17_27  and  C18_28 
REMARK   10  A    between atoms: C18_28  and  O7_29 
REMARK   11  A    between atoms: C20_31  and  N5_33 
REMARK   12  A    between atoms: N5_33  and  C21_35 
REMARK   13  A    between atoms: C21_35  and  C22_36 
REMARK   14  A    between atoms: C22_36  and  C23_37 
ROOT
HETATM    1  C1  UNL     1      22.036  28.455  14.706  1.00  0.00     0.018 C 
HETATM    2  C2  UNL     1      22.558  28.071  15.733  1.00  0.00    -0.075 C 
HETATM    3  C3  UNL     1      23.198  27.615  16.932  1.00  0.00     0.052 A 
HETATM    4  C4  UNL     1      24.572  27.724  16.978  1.00  0.00     0.066 A 
HETATM    5  C5  UNL     1      25.326  28.277  15.865  1.00  0.00     0.101 C 
HETATM    6  N1  UNL     1      25.936  28.714  14.984  1.00  0.00    -0.191 NA
HETATM    7  C6  UNL     1      25.220  27.293  18.110  1.00  0.00     0.060 A 
HETATM    8  C7  UNL     1      24.537  26.759  19.191  1.00  0.00     0.105 A 
HETATM    9  C8  UNL     1      23.150  26.649  19.148  1.00  0.00     0.053 A 
HETATM   10  C9  UNL     1      22.510  27.086  18.004  1.00  0.00     0.037 A 
ENDROOT
BRANCH  10  11
HETATM   11  C10 UNL     1      21.069  26.993  17.941  1.00  0.00     0.196 C 
HETATM   12  O3  UNL     1      20.391  28.064  17.897  1.00  0.00    -0.287 OA
BRANCH  11  13
HETATM   13  C11 UNL     1      20.313  25.740  17.923  1.00  0.00     0.040 A 
HETATM   14  C12 UNL     1      19.822  25.078  19.027  1.00  0.00     0.054 A 
HETATM   15  C13 UNL     1      19.160  23.898  18.629  1.00  0.00     0.113 A 
HETATM   16  N3  UNL     1      19.268  23.881  17.295  1.00  0.00    -0.336 N 
HETATM   17  C25 UNL     1      19.949  24.961  16.844  1.00  0.00     0.023 A 
HETATM   18  C26 UNL     1      20.254  25.262  15.426  1.00  0.00     0.069 C 
BRANCH  15  19
HETATM   19  C14 UNL     1      18.530  22.960  19.538  1.00  0.00     0.227 C 
HETATM   20  O4  UNL     1      18.739  21.741  19.448  1.00  0.00    -0.643 OA
HETATM   21  O5  UNL     1      17.677  23.411  20.528  1.00  0.00    -0.643 OA
ENDBRANCH  15  19
BRANCH  16  22
HETATM   22  C15 UNL     1      18.718  22.838  16.409  1.00  0.00     0.232 C 
BRANCH  22  23
HETATM   23  C16 UNL     1      17.392  23.192  15.926  1.00  0.00     0.244 C 
HETATM   24  O6  UNL     1      17.376  23.986  14.903  1.00  0.00    -0.271 OA
HETATM   25  N4  UNL     1      16.118  22.812  16.391  1.00  0.00    -0.291 N 
BRANCH  25  26
HETATM   26  C17 UNL     1      14.928  23.352  15.662  1.00  0.00     0.160 C 
BRANCH  26  27
HETATM   27  C18 UNL     1      14.251  22.287  14.868  1.00  0.00     0.187 C 
BRANCH  27  28
HETATM   28  O7  UNL     1      15.124  21.441  14.212  1.00  0.00    -0.394 OA
HETATM   29  C19 UNL     1      15.316  21.857  12.907  1.00  0.00     0.201 C 
ENDBRANCH  27  28
ENDBRANCH  26  27
ENDBRANCH  25  26
BRANCH  25  30
HETATM   30  C20 UNL     1      15.791  21.980  17.479  1.00  0.00     0.176 C 
HETATM   31  S1  UNL     1      14.726  22.615  18.603  1.00  0.00    -0.041 SA
BRANCH  30  32
HETATM   32  N5  UNL     1      16.235  20.683  17.762  1.00  0.00    -0.367 N 
ATOM     33  H5  UNL     1      17.091  20.327  17.335  1.00  0.00     0.161 HD
BRANCH  32  34
HETATM   34  C21 UNL     1      15.456  19.837  18.681  1.00  0.00     0.122 C 
BRANCH  34  35
HETATM   35  C22 UNL     1      14.616  18.852  17.878  1.00  0.00     0.019 C 
BRANCH  35  36
HETATM   36  C23 UNL     1      14.177  17.705  18.761  1.00  0.00    -0.003 C 
HETATM   37  C24 UNL     1      13.777  18.220  20.110  1.00  0.00     0.005 C 
ENDBRANCH  35  36
ENDBRANCH  34  35
ENDBRANCH  32  34
ENDBRANCH  30  32
ENDBRANCH  25  30
ENDBRANCH  22  23
ENDBRANCH  16  22
ENDBRANCH  11  13
ENDBRANCH  10  11
BRANCH   8  38
HETATM   38  N2  UNL     1      25.231  26.321  20.349  1.00  0.00    -0.116 N 
HETATM   39  O1  UNL     1      25.238  27.050  21.353  1.00  0.00    -0.532 OA
HETATM   40  O2  UNL     1      25.895  25.125  20.409  1.00  0.00    -0.532 OA
ENDBRANCH   8  38
TORSDOF 14
ENDMDL
MODEL 5
REMARK VINA RESULT: -7.937164551      1.910      4.089
REMARK  14 active torsions:
REMARK  status: ('A' for Active; 'I' for Inactive)
REMARK    1  A    between atoms: C7_8  and  N2_9 
REMARK    2  A    between atoms: C9_13  and  C10_14 
REMARK    3  A    between atoms: C10_14  and  C11_16 
REMARK    4  A    between atoms: C13_18  and  C14_19 
REMARK    5  A    between atoms: N3_22  and  C15_23 
REMARK    6  A    between atoms: C15_23  and  C16_24 
REMARK       I    between atoms: C16_24  and  N4_26 
REMARK    7  A    between atoms: N4_26  and  C17_27 
REMARK    8  A    between atoms: N4_26  and  C20_31 
REMARK    9  A    between atoms: C17_27  and  C18_28 
REMARK   10  A    between atoms: C18_28  and  O7_29 
REMARK   11  A    between atoms: C20_31  and  N5_33 
REMARK   12  A    between atoms: N5_33  and  C21_35 
REMARK   13  A    between atoms: C21_35  and  C22_36 
REMARK   14  A    between atoms: C22_36  and  C23_37 
ROOT
HETATM    1  C1  UNL     1      13.411  23.741  14.825  1.00  0.00     0.018 C 
HETATM    2  C2  UNL     1      13.610  22.798  15.563  1.00  0.00    -0.075 C 
HETATM    3  C3  UNL     1      13.826  21.669  16.420  1.00  0.00     0.052 A 
HETATM    4  C4  UNL     1      13.342  20.456  15.976  1.00  0.00     0.066 A 
HETATM    5  C5  UNL     1      12.654  20.335  14.702  1.00  0.00     0.101 C 
HETATM    6  N1  UNL     1      12.103  20.226  13.690  1.00  0.00    -0.191 NA
HETATM    7  C6  UNL     1      13.527  19.353  16.775  1.00  0.00     0.060 A 
HETATM    8  C7  UNL     1      14.177  19.428  17.997  1.00  0.00     0.105 A 
HETATM    9  C8  UNL     1      14.667  20.652  18.446  1.00  0.00     0.053 A 
HETATM   10  C9  UNL     1      14.475  21.753  17.634  1.00  0.00     0.037 A 
ENDROOT
BRANCH  10  11
HETATM   11  C10 UNL     1      14.986  23.032  18.074  1.00  0.00     0.196 C 
HETATM   12  O3  UNL     1      14.177  23.868  18.580  1.00  0.00    -0.287 OA
BRANCH  11  13
HETATM   13  C11 UNL     1      16.386  23.448  17.982  1.00  0.00     0.040 A 
HETATM   14  C12 UNL     1      16.885  24.419  17.142  1.00  0.00     0.054 A 
HETATM   15  C13 UNL     1      18.279  24.540  17.318  1.00  0.00     0.113 A 
HETATM   16  N3  UNL     1      18.583  23.639  18.260  1.00  0.00    -0.336 N 
HETATM   17  C25 UNL     1      17.479  22.973  18.675  1.00  0.00     0.023 A 
HETATM   18  C26 UNL     1      17.448  21.908  19.705  1.00  0.00     0.069 C 
BRANCH  15  19
HETATM   19  C14 UNL     1      19.125  25.464  16.587  1.00  0.00     0.227 C 
HETATM   20  O4  UNL     1      19.760  25.098  15.588  1.00  0.00    -0.643 OA
HETATM   21  O5  UNL     1      19.239  26.780  16.996  1.00  0.00    -0.643 OA
ENDBRANCH  15  19
BRANCH  16  22
HETATM   22  C15 UNL     1      19.933  23.392  18.800  1.00  0.00     0.232 C 
BRANCH  22  23
HETATM   23  C16 UNL     1      20.254  24.313  19.879  1.00  0.00     0.244 C 
HETATM   24  O6  UNL     1      19.504  24.208  20.929  1.00  0.00    -0.271 OA
HETATM   25  N4  UNL     1      21.250  25.305  19.969  1.00  0.00    -0.291 N 
BRANCH  25  26
HETATM   26  C17 UNL     1      21.325  26.094  21.239  1.00  0.00     0.160 C 
BRANCH  26  27
HETATM   27  C18 UNL     1      21.180  27.555  20.977  1.00  0.00     0.187 C 
BRANCH  27  28
HETATM   28  O7  UNL     1      21.174  28.328  22.121  1.00  0.00    -0.394 OA
HETATM   29  C19 UNL     1      21.667  27.610  23.196  1.00  0.00     0.201 C 
ENDBRANCH  27  28
ENDBRANCH  26  27
ENDBRANCH  25  26
BRANCH  25  30
HETATM   30  C20 UNL     1      22.209  25.679  19.008  1.00  0.00     0.176 C 
HETATM   31  S1  UNL     1      23.812  25.508  19.457  1.00  0.00    -0.041 SA
BRANCH  30  32
HETATM   32  N5  UNL     1      22.014  26.182  17.717  1.00  0.00    -0.367 N 
ATOM     33  H5  UNL     1      21.129  26.028  17.232  1.00  0.00     0.161 HD
BRANCH  32  34
HETATM   34  C21 UNL     1      23.096  26.938  17.065  1.00  0.00     0.122 C 
BRANCH  34  35
HETATM   35  C22 UNL     1      22.803  27.064  15.575  1.00  0.00     0.019 C 
BRANCH  35  36
HETATM   36  C23 UNL     1      22.056  28.350  15.300  1.00  0.00    -0.003 C 
HETATM   37  C24 UNL     1      21.087  28.150  14.174  1.00  0.00     0.005 C 
ENDBRANCH  35  36
ENDBRANCH  34  35
ENDBRANCH  32  34
ENDBRANCH  30  32
ENDBRANCH  25  30
ENDBRANCH  22  23
ENDBRANCH  16  22
ENDBRANCH  11  13
ENDBRANCH  10  11
BRANCH   8  38
HETATM   38  N2  UNL     1      14.354  18.274  18.802  1.00  0.00    -0.116 N 
HETATM   39  O1  UNL     1      13.997  18.312  19.989  1.00  0.00    -0.532 OA
HETATM   40  O2  UNL     1      14.903  17.113  18.325  1.00  0.00    -0.532 OA
ENDBRANCH   8  38
TORSDOF 14
ENDMDL
