MODEL 1
REMARK VINA RESULT: -7.490208322      0.000      0.000
REMARK  8 active torsions:
REMARK  status: ('A' for Active; 'I' for Inactive)
REMARK    1  A    between atoms: N1_1  and  C1_4 
REMARK    2  A    between atoms: C3_8  and  C4_9 
REMARK    3  A    between atoms: N3_10  and  C5_11 
REMARK    4  A    between atoms: C5_11  and  O1_12 
REMARK    5  A    between atoms: N5_17  and  O2_18 
REMARK    6  A    between atoms: C7_22  and  N7_23 
REMARK    7  A    between atoms: C8_28  and  C9_29 
REMARK    8  A    between atoms: C10_32  and  N11_33 
ROOT
HETATM    1  C1  UNL     1      29.596  40.155   9.238  1.00  0.00     0.145 A 
HETATM    2  N2  UNL     1      29.819  40.169  10.564  1.00  0.00    -0.347 N 
ATOM      3  H2  UNL     1      29.297  40.800  11.172  1.00  0.00     0.167 HD
HETATM    4  C2  UNL     1      30.751  39.329  11.078  1.00  0.00     0.123 A 
HETATM    5  C3  UNL     1      31.477  38.460  10.294  1.00  0.00     0.098 A 
HETATM    6  N6  UNL     1      31.237  38.464   8.971  1.00  0.00    -0.334 N 
ATOM      7  H6  UNL     1      31.758  37.833   8.362  1.00  0.00     0.168 HD
HETATM    8  C7  UNL     1      30.314  39.293   8.440  1.00  0.00     0.175 A 
ENDROOT
BRANCH   8   9
HETATM    9  N7  UNL     1      30.067  39.290   7.031  1.00  0.00    -0.203 N 
HETATM   10  N8  UNL     1      29.356  38.343   6.448  1.00  0.00    -0.232 N 
HETATM   11  N9  UNL     1      29.320  38.635   5.165  1.00  0.00    -0.278 N 
ATOM     12  H8  UNL     1      28.920  37.540   6.903  1.00  0.00     0.209 HD
HETATM   13  C8  UNL     1      30.009  39.775   4.913  1.00  0.00     0.160 A 
ATOM     14  H9  UNL     1      28.839  38.080   4.457  1.00  0.00     0.189 HD
HETATM   15  C10 UNL     1      30.494  40.201   6.123  1.00  0.00     0.158 A 
BRANCH  13  16
HETATM   16  C9  UNL     1      30.179  40.395   3.604  1.00  0.00     0.286 C 
HETATM   17  N10 UNL     1      30.374  41.806   3.547  1.00  0.00    -0.056 NA
HETATM   18  O3  UNL     1      30.163  39.747   2.527  1.00  0.00    -0.269 OA
ENDBRANCH  13  16
BRANCH  15  19
HETATM   19  N11 UNL     1      31.198  41.222   6.399  1.00  0.00    -0.382 N 
ATOM     20 2H11 UNL     1      32.169  41.278   6.709  1.00  0.00     0.157 HD
ATOM     21 1H11 UNL     1      30.869  42.186   6.345  1.00  0.00     0.157 HD
ENDBRANCH  15  19
ENDBRANCH   8   9
BRANCH   1  22
HETATM   22  N1  UNL     1      28.732  40.917   8.660  1.00  0.00    -0.382 N 
ATOM     23  H12 UNL     1      27.989  41.308   9.240  1.00  0.00     0.157 HD
ATOM     24  H11 UNL     1      28.762  41.140   7.665  1.00  0.00     0.157 HD
ENDBRANCH   1  22
BRANCH   5  25
HETATM   25  C4  UNL     1      32.486  37.555  10.876  1.00  0.00     0.185 A 
HETATM   26  N3  UNL     1      32.527  37.147  12.155  1.00  0.00    -0.301 N 
HETATM   27  C6  UNL     1      33.601  36.342  12.234  1.00  0.00     0.206 A 
HETATM   28  N4  UNL     1      34.183  36.277  11.024  1.00  0.00    -0.268 N 
HETATM   29  N5  UNL     1      33.510  37.018  10.173  1.00  0.00    -0.143 N 
ATOM     30  H4  UNL     1      35.018  35.735  10.801  1.00  0.00     0.190 HD
BRANCH  26  31
HETATM   31  C5  UNL     1      31.601  37.515  13.190  1.00  0.00     0.298 C 
BRANCH  31  32
HETATM   32  O1  UNL     1      30.598  36.562  13.348  1.00  0.00    -0.382 OA
ATOM     33  H1  UNL     1      30.192  36.617  14.205  1.00  0.00     0.211 HD
ENDBRANCH  31  32
ENDBRANCH  26  31
BRANCH  29  34
HETATM   34  O2  UNL     1      33.780  37.216   8.835  1.00  0.00    -0.266 OA
ATOM     35  H2  UNL     1      33.544  37.977   8.317  1.00  0.00     0.247 HD
ENDBRANCH  29  34
ENDBRANCH   5  25
TORSDOF 8
ENDMDL
MODEL 2
REMARK VINA RESULT: -7.329359510      1.368      1.953
REMARK  8 active torsions:
REMARK  status: ('A' for Active; 'I' for Inactive)
REMARK    1  A    between atoms: N1_1  and  C1_4 
REMARK    2  A    between atoms: C3_8  and  C4_9 
REMARK    3  A    between atoms: N3_10  and  C5_11 
REMARK    4  A    between atoms: C5_11  and  O1_12 
REMARK    5  A    between atoms: N5_17  and  O2_18 
REMARK    6  A    between atoms: C7_22  and  N7_23 
REMARK    7  A    between atoms: C8_28  and  C9_29 
REMARK    8  A    between atoms: C10_32  and  N11_33 
ROOT
HETATM    1  C1  UNL     1      30.529  39.771  10.449  1.00  0.00     0.145 A 
HETATM    2  N2  UNL     1      30.674  39.400  11.734  1.00  0.00    -0.347 N 
ATOM      3  H2  UNL     1      30.048  39.762  12.452  1.00  0.00     0.167 HD
HETATM    4  C2  UNL     1      31.667  38.535  12.055  1.00  0.00     0.123 A 
HETATM    5  C3  UNL     1      32.534  38.021  11.116  1.00  0.00     0.098 A 
HETATM    6  N6  UNL     1      32.370  38.406   9.838  1.00  0.00    -0.334 N 
ATOM      7  H6  UNL     1      32.995  38.044   9.118  1.00  0.00     0.168 HD
HETATM    8  C7  UNL     1      31.388  39.266   9.498  1.00  0.00     0.175 A 
ENDROOT
BRANCH   8   9
HETATM    9  N7  UNL     1      31.222  39.670   8.136  1.00  0.00    -0.203 N 
HETATM   10  N8  UNL     1      31.819  40.740   7.646  1.00  0.00    -0.232 N 
HETATM   11  N9  UNL     1      31.461  40.826   6.382  1.00  0.00    -0.278 N 
ATOM     12  H8  UNL     1      32.438  41.377   8.149  1.00  0.00     0.209 HD
HETATM   13  C8  UNL     1      30.629  39.809   6.049  1.00  0.00     0.160 A 
ATOM     14  H9  UNL     1      31.768  41.558   5.741  1.00  0.00     0.189 HD
HETATM   15  C10 UNL     1      30.474  39.059   7.186  1.00  0.00     0.158 A 
BRANCH  13  16
HETATM   16  C9  UNL     1      30.037  39.589   4.735  1.00  0.00     0.286 C 
HETATM   17  N10 UNL     1      30.544  40.338   3.633  1.00  0.00    -0.056 NA
HETATM   18  O3  UNL     1      29.104  38.773   4.527  1.00  0.00    -0.269 OA
ENDBRANCH  13  16
BRANCH  15  19
HETATM   19  N11 UNL     1      29.788  38.004   7.373  1.00  0.00    -0.382 N 
ATOM     20 2H11 UNL     1      29.779  37.367   8.170  1.00  0.00     0.157 HD
ATOM     21 1H11 UNL     1      29.111  37.628   6.710  1.00  0.00     0.157 HD
ENDBRANCH  15  19
ENDBRANCH   8   9
BRANCH   1  22
HETATM   22  N1  UNL     1      29.616  40.588  10.050  1.00  0.00    -0.382 N 
ATOM     23  H12 UNL     1      28.697  40.515  10.487  1.00  0.00     0.157 HD
ATOM     24  H11 UNL     1      29.773  41.291   9.327  1.00  0.00     0.157 HD
ENDBRANCH   1  22
BRANCH   5  25
HETATM   25  C4  UNL     1      33.607  37.081  11.490  1.00  0.00     0.185 A 
HETATM   26  N3  UNL     1      34.047  36.851  12.738  1.00  0.00    -0.301 N 
HETATM   27  C6  UNL     1      35.019  35.932  12.605  1.00  0.00     0.206 A 
HETATM   28  N4  UNL     1      35.150  35.625  11.303  1.00  0.00    -0.268 N 
HETATM   29  N5  UNL     1      34.288  36.323  10.599  1.00  0.00    -0.143 N 
ATOM     30  H4  UNL     1      35.816  34.953  10.921  1.00  0.00     0.190 HD
BRANCH  26  31
HETATM   31  C5  UNL     1      33.558  37.476  13.936  1.00  0.00     0.298 C 
BRANCH  31  32
HETATM   32  O1  UNL     1      32.563  36.716  14.545  1.00  0.00    -0.382 OA
ATOM     33  H1  UNL     1      31.907  36.429  13.920  1.00  0.00     0.211 HD
ENDBRANCH  31  32
ENDBRANCH  26  31
BRANCH  29  34
HETATM   34  O2  UNL     1      34.103  36.298   9.232  1.00  0.00    -0.266 OA
ATOM     35  H2  UNL     1      33.705  36.979   8.703  1.00  0.00     0.247 HD
ENDBRANCH  29  34
ENDBRANCH   5  25
TORSDOF 8
ENDMDL
MODEL 3
REMARK VINA RESULT: -6.964583161      3.161      8.791
REMARK  8 active torsions:
REMARK  status: ('A' for Active; 'I' for Inactive)
REMARK    1  A    between atoms: N1_1  and  C1_4 
REMARK    2  A    between atoms: C3_8  and  C4_9 
REMARK    3  A    between atoms: N3_10  and  C5_11 
REMARK    4  A    between atoms: C5_11  and  O1_12 
REMARK    5  A    between atoms: N5_17  and  O2_18 
REMARK    6  A    between atoms: C7_22  and  N7_23 
REMARK    7  A    between atoms: C8_28  and  C9_29 
REMARK    8  A    between atoms: C10_32  and  N11_33 
ROOT
HETATM    1  C1  UNL     1      29.838  39.659   4.585  1.00  0.00     0.145 A 
HETATM    2  N2  UNL     1      29.245  39.642   3.378  1.00  0.00    -0.347 N 
ATOM      3  H2  UNL     1      29.095  38.761   2.886  1.00  0.00     0.167 HD
HETATM    4  C2  UNL     1      28.850  40.817   2.828  1.00  0.00     0.123 A 
HETATM    5  C3  UNL     1      29.031  42.027   3.460  1.00  0.00     0.098 A 
HETATM    6  N6  UNL     1      29.626  42.019   4.666  1.00  0.00    -0.334 N 
ATOM      7  H6  UNL     1      29.776  42.899   5.160  1.00  0.00     0.168 HD
HETATM    8  C7  UNL     1      30.027  40.861   5.229  1.00  0.00     0.175 A 
ENDROOT
BRANCH   8   9
HETATM    9  N7  UNL     1      30.659  40.863   6.512  1.00  0.00    -0.203 N 
HETATM   10  N8  UNL     1      31.969  40.954   6.646  1.00  0.00    -0.232 N 
HETATM   11  N9  UNL     1      32.218  40.929   7.939  1.00  0.00    -0.278 N 
ATOM     12  H8  UNL     1      32.655  41.030   5.895  1.00  0.00     0.209 HD
HETATM   13  C8  UNL     1      31.067  40.821   8.647  1.00  0.00     0.160 A 
ATOM     14  H9  UNL     1      33.149  40.984   8.352  1.00  0.00     0.189 HD
HETATM   15  C10 UNL     1      30.055  40.779   7.723  1.00  0.00     0.158 A 
BRANCH  13  16
HETATM   16  C9  UNL     1      30.964  40.765  10.101  1.00  0.00     0.286 C 
HETATM   17  N10 UNL     1      29.983  39.904  10.674  1.00  0.00    -0.056 NA
HETATM   18  O3  UNL     1      31.696  41.437  10.870  1.00  0.00    -0.269 OA
ENDBRANCH  13  16
BRANCH  15  19
HETATM   19  N11 UNL     1      28.800  40.681   7.900  1.00  0.00    -0.382 N 
ATOM     20 2H11 UNL     1      28.204  39.853   7.889  1.00  0.00     0.157 HD
ATOM     21 1H11 UNL     1      28.178  41.467   8.088  1.00  0.00     0.157 HD
ENDBRANCH  15  19
ENDBRANCH   8   9
BRANCH   1  22
HETATM   22  N1  UNL     1      30.246  38.593   5.185  1.00  0.00    -0.382 N 
ATOM     23  H12 UNL     1      29.643  37.772   5.144  1.00  0.00     0.157 HD
ATOM     24  H11 UNL     1      31.132  38.542   5.689  1.00  0.00     0.157 HD
ENDBRANCH   1  22
BRANCH   5  25
HETATM   25  C4  UNL     1      28.593  43.293   2.841  1.00  0.00     0.185 A 
HETATM   26  N3  UNL     1      29.102  43.835   1.723  1.00  0.00    -0.301 N 
HETATM   27  C6  UNL     1      28.407  44.971   1.536  1.00  0.00     0.206 A 
HETATM   28  N4  UNL     1      27.506  45.096   2.525  1.00  0.00    -0.268 N 
HETATM   29  N5  UNL     1      27.605  44.071   3.341  1.00  0.00    -0.143 N 
ATOM     30  H4  UNL     1      26.848  45.868   2.627  1.00  0.00     0.190 HD
BRANCH  26  31
HETATM   31  C5  UNL     1      30.163  43.287   0.924  1.00  0.00     0.298 C 
BRANCH  31  32
HETATM   32  O1  UNL     1      29.674  42.613  -0.192  1.00  0.00    -0.382 OA
ATOM     33  H1  UNL     1      29.472  41.706   0.005  1.00  0.00     0.211 HD
ENDBRANCH  31  32
ENDBRANCH  26  31
BRANCH  29  34
HETATM   34  O2  UNL     1      26.861  43.826   4.476  1.00  0.00    -0.266 OA
ATOM     35  H2  UNL     1      27.183  43.477   5.299  1.00  0.00     0.247 HD
ENDBRANCH  29  34
ENDBRANCH   5  25
TORSDOF 8
ENDMDL
MODEL 4
REMARK VINA RESULT: -6.959282416      1.469      1.629
REMARK  8 active torsions:
REMARK  status: ('A' for Active; 'I' for Inactive)
REMARK    1  A    between atoms: N1_1  and  C1_4 
REMARK    2  A    between atoms: C3_8  and  C4_9 
REMARK    3  A    between atoms: N3_10  and  C5_11 
REMARK    4  A    between atoms: C5_11  and  O1_12 
REMARK    5  A    between atoms: N5_17  and  O2_18 
REMARK    6  A    between atoms: C7_22  and  N7_23 
REMARK    7  A    between atoms: C8_28  and  C9_29 
REMARK    8  A    between atoms: C10_32  and  N11_33 
ROOT
HETATM    1  C1  UNL     1      29.401  40.212   9.385  1.00  0.00     0.145 A 
HETATM    2  N2  UNL     1      29.583  40.284  10.717  1.00  0.00    -0.347 N 
ATOM      3  H2  UNL     1      28.932  40.806  11.302  1.00  0.00     0.167 HD
HETATM    4  C2  UNL     1      30.647  39.647  11.265  1.00  0.00     0.123 A 
HETATM    5  C3  UNL     1      31.549  38.930  10.511  1.00  0.00     0.098 A 
HETATM    6  N6  UNL     1      31.348  38.873   9.183  1.00  0.00    -0.334 N 
ATOM      7  H6  UNL     1      31.998  38.350   8.596  1.00  0.00     0.168 HD
HETATM    8  C7  UNL     1      30.294  39.499   8.618  1.00  0.00     0.175 A 
ENDROOT
BRANCH   8   9
HETATM    9  N7  UNL     1      30.089  39.433   7.204  1.00  0.00    -0.203 N 
HETATM   10  N8  UNL     1      29.488  38.406   6.632  1.00  0.00    -0.232 N 
HETATM   11  N9  UNL     1      29.462  38.658   5.340  1.00  0.00    -0.278 N 
ATOM     12  H8  UNL     1      29.117  37.579   7.100  1.00  0.00     0.209 HD
HETATM   13  C8  UNL     1      30.046  39.851   5.071  1.00  0.00     0.160 A 
ATOM     14  H9  UNL     1      29.056  38.039   4.637  1.00  0.00     0.189 HD
HETATM   15  C10 UNL     1      30.454  40.354   6.280  1.00  0.00     0.158 A 
BRANCH  13  16
HETATM   16  C9  UNL     1      30.195  40.448   3.749  1.00  0.00     0.286 C 
HETATM   17  N10 UNL     1      30.351  41.861   3.661  1.00  0.00    -0.056 NA
HETATM   18  O3  UNL     1      30.193  39.777   2.686  1.00  0.00    -0.269 OA
ENDBRANCH  13  16
BRANCH  15  19
HETATM   19  N11 UNL     1      31.050  41.446   6.542  1.00  0.00    -0.382 N 
ATOM     20 2H11 UNL     1      31.303  41.847   7.446  1.00  0.00     0.157 HD
ATOM     21 1H11 UNL     1      31.377  42.111   5.843  1.00  0.00     0.157 HD
ENDBRANCH  15  19
ENDBRANCH   8   9
BRANCH   1  22
HETATM   22  N1  UNL     1      28.420  40.784   8.776  1.00  0.00    -0.382 N 
ATOM     23  H12 UNL     1      28.516  41.776   8.560  1.00  0.00     0.157 HD
ATOM     24  H11 UNL     1      27.567  40.292   8.507  1.00  0.00     0.157 HD
ENDBRANCH   1  22
BRANCH   5  25
HETATM   25  C4  UNL     1      32.700  38.246  11.131  1.00  0.00     0.185 A 
HETATM   26  N3  UNL     1      33.589  38.810  11.965  1.00  0.00    -0.301 N 
HETATM   27  C6  UNL     1      34.451  37.826  12.277  1.00  0.00     0.206 A 
HETATM   28  N4  UNL     1      34.078  36.704  11.638  1.00  0.00    -0.268 N 
HETATM   29  N5  UNL     1      33.000  36.943  10.926  1.00  0.00    -0.143 N 
ATOM     30  H4  UNL     1      34.558  35.806  11.697  1.00  0.00     0.190 HD
BRANCH  26  31
HETATM   31  C5  UNL     1      33.586  40.177  12.408  1.00  0.00     0.298 C 
BRANCH  31  32
HETATM   32  O1  UNL     1      34.856  40.742  12.348  1.00  0.00    -0.382 OA
ATOM     33  H1  UNL     1      34.906  41.551  12.844  1.00  0.00     0.211 HD
ENDBRANCH  31  32
ENDBRANCH  26  31
BRANCH  29  34
HETATM   34  O2  UNL     1      32.306  36.056  10.129  1.00  0.00    -0.266 OA
ATOM     35  H2  UNL     1      32.583  35.181   9.883  1.00  0.00     0.247 HD
ENDBRANCH  29  34
ENDBRANCH   5  25
TORSDOF 8
ENDMDL
MODEL 5
REMARK VINA RESULT: -6.809891176      3.707      4.623
REMARK  8 active torsions:
REMARK  status: ('A' for Active; 'I' for Inactive)
REMARK    1  A    between atoms: N1_1  and  C1_4 
REMARK    2  A    between atoms: C3_8  and  C4_9 
REMARK    3  A    between atoms: N3_10  and  C5_11 
REMARK    4  A    between atoms: C5_11  and  O1_12 
REMARK    5  A    between atoms: N5_17  and  O2_18 
REMARK    6  A    between atoms: C7_22  and  N7_23 
REMARK    7  A    between atoms: C8_28  and  C9_29 
REMARK    8  A    between atoms: C10_32  and  N11_33 
ROOT
HETATM    1  C1  UNL     1      31.081  40.959   7.164  1.00  0.00     0.145 A 
HETATM    2  N2  UNL     1      30.493  39.749   7.201  1.00  0.00    -0.347 N 
ATOM      3  H2  UNL     1      29.802  39.486   6.499  1.00  0.00     0.167 HD
HETATM    4  C2  UNL     1      30.836  38.887   8.190  1.00  0.00     0.123 A 
HETATM    5  C3  UNL     1      31.764  39.202   9.157  1.00  0.00     0.098 A 
HETATM    6  N6  UNL     1      32.339  40.416   9.100  1.00  0.00    -0.334 N 
ATOM      7  H6  UNL     1      33.030  40.681   9.801  1.00  0.00     0.168 HD
HETATM    8  C7  UNL     1      32.010  41.289   8.124  1.00  0.00     0.175 A 
ENDROOT
BRANCH   8   9
HETATM    9  N7  UNL     1      32.627  42.579   8.072  1.00  0.00    -0.203 N 
HETATM   10  N8  UNL     1      33.709  42.808   7.352  1.00  0.00    -0.232 N 
HETATM   11  N9  UNL     1      34.011  44.078   7.523  1.00  0.00    -0.278 N 
ATOM     12  H8  UNL     1      34.212  42.133   6.776  1.00  0.00     0.209 HD
HETATM   13  C8  UNL     1      33.125  44.675   8.355  1.00  0.00     0.160 A 
ATOM     14  H9  UNL     1      34.805  44.549   7.087  1.00  0.00     0.189 HD
HETATM   15  C10 UNL     1      32.226  43.704   8.712  1.00  0.00     0.158 A 
BRANCH  13  16
HETATM   16  C9  UNL     1      33.152  46.074   8.767  1.00  0.00     0.286 C 
HETATM   17  N10 UNL     1      34.396  46.630   9.184  1.00  0.00    -0.056 NA
HETATM   18  O3  UNL     1      32.133  46.811   8.772  1.00  0.00    -0.269 OA
ENDBRANCH  13  16
BRANCH  15  19
HETATM   19  N11 UNL     1      31.212  43.779   9.476  1.00  0.00    -0.382 N 
ATOM     20 2H11 UNL     1      30.418  43.145   9.567  1.00  0.00     0.157 HD
ATOM     21 1H11 UNL     1      31.043  44.531  10.143  1.00  0.00     0.157 HD
ENDBRANCH  15  19
ENDBRANCH   8   9
BRANCH   1  22
HETATM   22  N1  UNL     1      30.818  41.843   6.263  1.00  0.00    -0.382 N 
ATOM     23  H12 UNL     1      31.596  42.184   5.700  1.00  0.00     0.157 HD
ATOM     24  H11 UNL     1      29.879  42.206   6.096  1.00  0.00     0.157 HD
ENDBRANCH   1  22
BRANCH   5  25
HETATM   25  C4  UNL     1      32.122  38.247  10.223  1.00  0.00     0.185 A 
HETATM   26  N3  UNL     1      31.633  38.251  11.474  1.00  0.00    -0.301 N 
HETATM   27  C6  UNL     1      32.229  37.215  12.088  1.00  0.00     0.206 A 
HETATM   28  N4  UNL     1      33.055  36.611  11.216  1.00  0.00    -0.268 N 
HETATM   29  N5  UNL     1      33.002  37.232  10.060  1.00  0.00    -0.143 N 
ATOM     30  H4  UNL     1      33.632  35.796  11.421  1.00  0.00     0.190 HD
BRANCH  26  31
HETATM   31  C5  UNL     1      30.676  39.183  12.005  1.00  0.00     0.298 C 
BRANCH  31  32
HETATM   32  O1  UNL     1      31.234  40.444  12.195  1.00  0.00    -0.382 OA
ATOM     33  H1  UNL     1      30.640  41.136  11.929  1.00  0.00     0.211 HD
ENDBRANCH  31  32
ENDBRANCH  26  31
BRANCH  29  34
HETATM   34  O2  UNL     1      33.696  36.924   8.909  1.00  0.00    -0.266 OA
ATOM     35  H2  UNL     1      33.930  36.055   8.605  1.00  0.00     0.247 HD
ENDBRANCH  29  34
ENDBRANCH   5  25
TORSDOF 8
ENDMDL
