MODEL 1
REMARK VINA RESULT: -7.636888949      0.000      0.000
REMARK  9 active torsions:
REMARK  status: ('A' for Active; 'I' for Inactive)
REMARK    1  A    between atoms: N1_1  and  N2_4 
REMARK    2  A    between atoms: N2_4  and  C1_6 
REMARK    3  A    between atoms: C1_6  and  O1_7 
REMARK    4  A    between atoms: C1_6  and  C2_9 
REMARK    5  A    between atoms: C2_9  and  N3_10 
REMARK    6  A    between atoms: C2_9  and  C4_22 
REMARK    7  A    between atoms: N3_10  and  N4_12 
REMARK    8  A    between atoms: N4_12  and  C3_14 
REMARK    9  A    between atoms: C5_25  and  C6_26 
REMARK       I    between atoms: C6_26  and  N10_28 
ROOT
HETATM    1  C2  UNL     1      30.551  40.966   5.651  1.00  0.00     0.129 C 
ENDROOT
BRANCH   1   2
HETATM    2  C1  UNL     1      30.084  42.301   5.775  1.00  0.00     0.185 C 
BRANCH   2   3
HETATM    3  N2  UNL     1      28.869  42.829   6.235  1.00  0.00    -0.285 N 
ATOM      4  H2  UNL     1      28.289  43.370   5.595  1.00  0.00     0.188 HD
BRANCH   3   5
HETATM    5  N1  UNL     1      28.427  42.628   7.566  1.00  0.00    -0.343 N 
ATOM      6  H12 UNL     1      29.080  42.822   8.325  1.00  0.00     0.176 HD
ATOM      7  H11 UNL     1      27.484  42.298   7.773  1.00  0.00     0.176 HD
ENDBRANCH   3   5
ENDBRANCH   2   3
BRANCH   2   8
HETATM    8  O1  UNL     1      30.910  43.251   5.405  1.00  0.00    -0.343 OA
ATOM      9  H1  UNL     1      30.708  43.565   4.532  1.00  0.00     0.219 HD
ENDBRANCH   2   8
ENDBRANCH   1   2
BRANCH   1  10
HETATM   10  N3  UNL     1      30.929  40.592   4.444  1.00  0.00    -0.280 N 
ATOM     11  H3  UNL     1      31.575  39.803   4.396  1.00  0.00     0.188 HD
BRANCH  10  12
HETATM   12  N4  UNL     1      30.555  41.138   3.253  1.00  0.00    -0.129 N 
ATOM     13  H4  UNL     1      31.019  41.994   2.948  1.00  0.00     0.205 HD
BRANCH  12  14
HETATM   14  C3  UNL     1      29.632  40.622   2.476  1.00  0.00     0.725 A 
HETATM   15  N5  UNL     1      29.431  40.897   1.175  1.00  0.00    -0.112 N 
HETATM   16  N6  UNL     1      28.405  40.174   0.756  1.00  0.00     0.009 NA
ATOM     17  H5  UNL     1      29.975  41.550   0.610  1.00  0.00     0.203 HD
HETATM   18  N7  UNL     1      27.937  39.438   1.749  1.00  0.00    -0.211 N 
HETATM   19  N8  UNL     1      28.691  39.719   2.794  1.00  0.00    -0.117 N 
ATOM     20  H7  UNL     1      27.152  38.787   1.715  1.00  0.00     0.206 HD
ATOM     21  H8  UNL     1      28.575  39.305   3.720  1.00  0.00     0.207 HD
ENDBRANCH  12  14
ENDBRANCH  10  12
ENDBRANCH   1  10
BRANCH   1  22
HETATM   22  C4  UNL     1      30.684  39.920   6.656  1.00  0.00     0.090 A 
HETATM   23  N9  UNL     1      31.267  39.941   7.842  1.00  0.00    -0.348 N 
HETATM   24  C5  UNL     1      31.168  38.731   8.484  1.00  0.00     0.109 A 
ATOM     25  H9  UNL     1      31.733  40.759   8.234  1.00  0.00     0.166 HD
HETATM   26  C7  UNL     1      30.482  37.894   7.653  1.00  0.00     0.064 A 
HETATM   27  C8  UNL     1      30.175  38.614   6.517  1.00  0.00     0.077 A 
HETATM   28  N11 UNL     1      29.462  38.083   5.418  1.00  0.00    -0.100 NA
BRANCH  24  29
HETATM   29  C6  UNL     1      31.698  38.431   9.785  1.00  0.00     0.334 C 
HETATM   30  O2  UNL     1      31.107  38.905  10.815  1.00  0.00    -0.259 OA
HETATM   31  N10 UNL     1      32.827  37.646  10.013  1.00  0.00    -0.071 N 
HETATM   32  O3  UNL     1      33.226  37.432  11.213  1.00  0.00    -0.529 OA
HETATM   33  O4  UNL     1      33.553  37.077   8.998  1.00  0.00    -0.529 OA
ENDBRANCH  24  29
ENDBRANCH   1  22
TORSDOF 9
ENDMDL
MODEL 2
REMARK VINA RESULT: -7.434477187      1.167      1.583
REMARK  9 active torsions:
REMARK  status: ('A' for Active; 'I' for Inactive)
REMARK    1  A    between atoms: N1_1  and  N2_4 
REMARK    2  A    between atoms: N2_4  and  C1_6 
REMARK    3  A    between atoms: C1_6  and  O1_7 
REMARK    4  A    between atoms: C1_6  and  C2_9 
REMARK    5  A    between atoms: C2_9  and  N3_10 
REMARK    6  A    between atoms: C2_9  and  C4_22 
REMARK    7  A    between atoms: N3_10  and  N4_12 
REMARK    8  A    between atoms: N4_12  and  C3_14 
REMARK    9  A    between atoms: C5_25  and  C6_26 
REMARK       I    between atoms: C6_26  and  N10_28 
ROOT
HETATM    1  C2  UNL     1      30.575  40.995   5.555  1.00  0.00     0.129 C 
ENDROOT
BRANCH   1   2
HETATM    2  C1  UNL     1      30.244  42.356   5.786  1.00  0.00     0.185 C 
BRANCH   2   3
HETATM    3  N2  UNL     1      31.005  43.439   6.250  1.00  0.00    -0.285 N 
ATOM      4  H2  UNL     1      30.626  44.382   6.171  1.00  0.00     0.188 HD
BRANCH   3   5
HETATM    5  N1  UNL     1      32.287  43.255   6.824  1.00  0.00    -0.343 N 
ATOM      6  H12 UNL     1      33.083  43.712   6.380  1.00  0.00     0.176 HD
ATOM      7  H11 UNL     1      32.423  42.685   7.658  1.00  0.00     0.176 HD
ENDBRANCH   3   5
ENDBRANCH   2   3
BRANCH   2   8
HETATM    8  O1  UNL     1      29.007  42.712   5.531  1.00  0.00    -0.343 OA
ATOM      9  H1  UNL     1      28.972  43.547   5.079  1.00  0.00     0.219 HD
ENDBRANCH   2   8
ENDBRANCH   1   2
BRANCH   1  10
HETATM   10  N3  UNL     1      30.883  40.673   4.313  1.00  0.00    -0.280 N 
ATOM     11  H3  UNL     1      31.524  39.888   4.195  1.00  0.00     0.188 HD
BRANCH  10  12
HETATM   12  N4  UNL     1      30.443  41.270   3.170  1.00  0.00    -0.129 N 
ATOM     13  H4  UNL     1      30.823  42.186   2.927  1.00  0.00     0.205 HD
BRANCH  12  14
HETATM   14  C3  UNL     1      29.557  40.733   2.366  1.00  0.00     0.725 A 
HETATM   15  N5  UNL     1      29.321  41.076   1.087  1.00  0.00    -0.112 N 
HETATM   16  N6  UNL     1      28.353  40.299   0.625  1.00  0.00     0.009 NA
ATOM     17  H5  UNL     1      29.803  41.806   0.564  1.00  0.00     0.203 HD
HETATM   18  N7  UNL     1      27.958  39.463   1.569  1.00  0.00    -0.211 N 
HETATM   19  N8  UNL     1      28.697  39.735   2.627  1.00  0.00    -0.117 N 
ATOM     20  H7  UNL     1      27.229  38.753   1.495  1.00  0.00     0.206 HD
ATOM     21  H8  UNL     1      28.625  39.253   3.523  1.00  0.00     0.207 HD
ENDBRANCH  12  14
ENDBRANCH  10  12
ENDBRANCH   1  10
BRANCH   1  22
HETATM   22  C4  UNL     1      30.632  39.871   6.481  1.00  0.00     0.090 A 
HETATM   23  N9  UNL     1      31.237  39.756   7.650  1.00  0.00    -0.348 N 
HETATM   24  C5  UNL     1      31.042  38.516   8.209  1.00  0.00     0.109 A 
ATOM     25  H9  UNL     1      31.783  40.499   8.086  1.00  0.00     0.166 HD
HETATM   26  C7  UNL     1      30.268  37.805   7.340  1.00  0.00     0.064 A 
HETATM   27  C8  UNL     1      30.005  38.629   6.265  1.00  0.00     0.077 A 
HETATM   28  N11 UNL     1      29.226  38.243   5.150  1.00  0.00    -0.100 NA
BRANCH  24  29
HETATM   29  C6  UNL     1      31.567  38.078   9.472  1.00  0.00     0.334 C 
HETATM   30  O2  UNL     1      32.164  36.948   9.533  1.00  0.00    -0.259 OA
HETATM   31  N10 UNL     1      31.474  38.805  10.658  1.00  0.00    -0.071 N 
HETATM   32  O3  UNL     1      31.974  38.330  11.740  1.00  0.00    -0.529 OA
HETATM   33  O4  UNL     1      30.860  40.028  10.732  1.00  0.00    -0.529 OA
ENDBRANCH  24  29
ENDBRANCH   1  22
TORSDOF 9
ENDMDL
MODEL 3
REMARK VINA RESULT: -7.408611352      0.682      1.183
REMARK  9 active torsions:
REMARK  status: ('A' for Active; 'I' for Inactive)
REMARK    1  A    between atoms: N1_1  and  N2_4 
REMARK    2  A    between atoms: N2_4  and  C1_6 
REMARK    3  A    between atoms: C1_6  and  O1_7 
REMARK    4  A    between atoms: C1_6  and  C2_9 
REMARK    5  A    between atoms: C2_9  and  N3_10 
REMARK    6  A    between atoms: C2_9  and  C4_22 
REMARK    7  A    between atoms: N3_10  and  N4_12 
REMARK    8  A    between atoms: N4_12  and  C3_14 
REMARK    9  A    between atoms: C5_25  and  C6_26 
REMARK       I    between atoms: C6_26  and  N10_28 
ROOT
HETATM    1  C2  UNL     1      30.461  41.086   5.609  1.00  0.00     0.129 C 
ENDROOT
BRANCH   1   2
HETATM    2  C1  UNL     1      30.013  42.412   5.851  1.00  0.00     0.185 C 
BRANCH   2   3
HETATM    3  N2  UNL     1      28.825  42.912   6.402  1.00  0.00    -0.285 N 
ATOM      4  H2  UNL     1      28.222  43.501   5.829  1.00  0.00     0.188 HD
BRANCH   3   5
HETATM    5  N1  UNL     1      28.441  42.618   7.734  1.00  0.00    -0.343 N 
ATOM      6  H12 UNL     1      27.445  42.567   7.947  1.00  0.00     0.176 HD
ATOM      7  H11 UNL     1      29.131  42.461   8.468  1.00  0.00     0.176 HD
ENDBRANCH   3   5
ENDBRANCH   2   3
BRANCH   2   8
HETATM    8  O1  UNL     1      30.832  43.381   5.515  1.00  0.00    -0.343 OA
ATOM      9  H1  UNL     1      31.737  43.096   5.543  1.00  0.00     0.219 HD
ENDBRANCH   2   8
ENDBRANCH   1   2
BRANCH   1  10
HETATM   10  N3  UNL     1      30.825  40.813   4.370  1.00  0.00    -0.280 N 
ATOM     11  H3  UNL     1      31.520  40.074   4.256  1.00  0.00     0.188 HD
BRANCH  10  12
HETATM   12  N4  UNL     1      30.380  41.404   3.226  1.00  0.00    -0.129 N 
ATOM     13  H4  UNL     1      30.708  42.346   3.011  1.00  0.00     0.205 HD
BRANCH  12  14
HETATM   14  C3  UNL     1      29.551  40.829   2.388  1.00  0.00     0.725 A 
HETATM   15  N5  UNL     1      29.324  41.185   1.111  1.00  0.00    -0.112 N 
HETATM   16  N6  UNL     1      28.421  40.358   0.608  1.00  0.00     0.009 NA
ATOM     17  H5  UNL     1      29.770  41.957   0.616  1.00  0.00     0.203 HD
HETATM   18  N7  UNL     1      28.058  39.476   1.523  1.00  0.00    -0.211 N 
HETATM   19  N8  UNL     1      28.752  39.772   2.605  1.00  0.00    -0.117 N 
ATOM     20  H7  UNL     1      27.380  38.722   1.415  1.00  0.00     0.206 HD
ATOM     21  H8  UNL     1      28.689  39.265   3.489  1.00  0.00     0.207 HD
ENDBRANCH  12  14
ENDBRANCH  10  12
ENDBRANCH   1  10
BRANCH   1  22
HETATM   22  C4  UNL     1      30.587  39.956   6.518  1.00  0.00     0.090 A 
HETATM   23  N9  UNL     1      31.222  39.853   7.673  1.00  0.00    -0.348 N 
HETATM   24  C5  UNL     1      31.093  38.600   8.219  1.00  0.00     0.109 A 
ATOM     25  H9  UNL     1      31.744  40.614   8.107  1.00  0.00     0.166 HD
HETATM   26  C7  UNL     1      30.332  37.866   7.358  1.00  0.00     0.064 A 
HETATM   27  C8  UNL     1      30.010  38.690   6.299  1.00  0.00     0.077 A 
HETATM   28  N11 UNL     1      29.225  38.284   5.196  1.00  0.00    -0.100 NA
BRANCH  24  29
HETATM   29  C6  UNL     1      31.664  38.169   9.466  1.00  0.00     0.334 C 
HETATM   30  O2  UNL     1      32.232  37.025   9.521  1.00  0.00    -0.259 OA
HETATM   31  N10 UNL     1      31.645  38.920  10.640  1.00  0.00    -0.071 N 
HETATM   32  O3  UNL     1      32.182  38.451  11.707  1.00  0.00    -0.529 OA
HETATM   33  O4  UNL     1      31.069  40.161  10.718  1.00  0.00    -0.529 OA
ENDBRANCH  24  29
ENDBRANCH   1  22
TORSDOF 9
ENDMDL
MODEL 4
REMARK VINA RESULT: -7.229181592      2.592      6.802
REMARK  9 active torsions:
REMARK  status: ('A' for Active; 'I' for Inactive)
REMARK    1  A    between atoms: N1_1  and  N2_4 
REMARK    2  A    between atoms: N2_4  and  C1_6 
REMARK    3  A    between atoms: C1_6  and  O1_7 
REMARK    4  A    between atoms: C1_6  and  C2_9 
REMARK    5  A    between atoms: C2_9  and  N3_10 
REMARK    6  A    between atoms: C2_9  and  C4_22 
REMARK    7  A    between atoms: N3_10  and  N4_12 
REMARK    8  A    between atoms: N4_12  and  C3_14 
REMARK    9  A    between atoms: C5_25  and  C6_26 
REMARK       I    between atoms: C6_26  and  N10_28 
ROOT
HETATM    1  C2  UNL     1      31.386  40.773   7.804  1.00  0.00     0.129 C 
ENDROOT
BRANCH   1   2
HETATM    2  C1  UNL     1      32.335  41.786   8.103  1.00  0.00     0.185 C 
BRANCH   2   3
HETATM    3  N2  UNL     1      33.449  42.263   7.397  1.00  0.00    -0.285 N 
ATOM      4  H2  UNL     1      34.137  41.597   7.047  1.00  0.00     0.188 HD
BRANCH   3   5
HETATM    5  N1  UNL     1      33.641  43.646   7.157  1.00  0.00    -0.343 N 
ATOM      6  H12 UNL     1      33.706  44.269   7.961  1.00  0.00     0.176 HD
ATOM      7  H11 UNL     1      33.715  44.020   6.211  1.00  0.00     0.176 HD
ENDBRANCH   3   5
ENDBRANCH   2   3
BRANCH   2   8
HETATM    8  O1  UNL     1      32.179  42.422   9.239  1.00  0.00    -0.343 OA
ATOM      9  H1  UNL     1      31.288  42.736   9.342  1.00  0.00     0.219 HD
ENDBRANCH   2   8
ENDBRANCH   1   2
BRANCH   1  10
HETATM   10  N3  UNL     1      30.884  40.123   8.836  1.00  0.00    -0.280 N 
ATOM     11  H3  UNL     1      29.879  39.949   8.816  1.00  0.00     0.188 HD
BRANCH  10  12
HETATM   12  N4  UNL     1      31.555  39.656   9.927  1.00  0.00    -0.129 N 
ATOM     13  H4  UNL     1      31.527  40.210  10.783  1.00  0.00     0.205 HD
BRANCH  12  14
HETATM   14  C3  UNL     1      32.235  38.535   9.934  1.00  0.00     0.725 A 
HETATM   15  N5  UNL     1      32.823  37.944   8.878  1.00  0.00    -0.112 N 
HETATM   16  N6  UNL     1      33.406  36.833   9.301  1.00  0.00     0.009 NA
ATOM     17  H5  UNL     1      32.820  38.292   7.920  1.00  0.00     0.203 HD
HETATM   18  N7  UNL     1      33.212  36.688  10.600  1.00  0.00    -0.211 N 
HETATM   19  N8  UNL     1      32.497  37.730  10.978  1.00  0.00    -0.117 N 
ATOM     20  H7  UNL     1      33.547  35.927  11.190  1.00  0.00     0.206 HD
ATOM     21  H8  UNL     1      32.184  37.902  11.934  1.00  0.00     0.207 HD
ENDBRANCH  12  14
ENDBRANCH  10  12
ENDBRANCH   1  10
BRANCH   1  22
HETATM   22  C4  UNL     1      30.865  40.323   6.520  1.00  0.00     0.090 A 
HETATM   23  N9  UNL     1      30.793  40.949   5.358  1.00  0.00    -0.348 N 
HETATM   24  C5  UNL     1      30.226  40.163   4.386  1.00  0.00     0.109 A 
ATOM     25  H9  UNL     1      31.121  41.902   5.203  1.00  0.00     0.166 HD
HETATM   26  C7  UNL     1      29.919  38.968   4.968  1.00  0.00     0.064 A 
HETATM   27  C8  UNL     1      30.308  39.050   6.289  1.00  0.00     0.077 A 
HETATM   28  N11 UNL     1      30.153  37.999   7.222  1.00  0.00    -0.100 NA
BRANCH  24  29
HETATM   29  C6  UNL     1      30.007  40.552   3.020  1.00  0.00     0.334 C 
HETATM   30  O2  UNL     1      29.702  39.651   2.165  1.00  0.00    -0.259 OA
HETATM   31  N10 UNL     1      30.104  41.860   2.550  1.00  0.00    -0.071 N 
HETATM   32  O3  UNL     1      29.890  42.111   1.310  1.00  0.00    -0.529 OA
HETATM   33  O4  UNL     1      30.423  42.919   3.360  1.00  0.00    -0.529 OA
ENDBRANCH  24  29
ENDBRANCH   1  22
TORSDOF 9
ENDMDL
MODEL 5
REMARK VINA RESULT: -7.098640211      1.012      1.519
REMARK  9 active torsions:
REMARK  status: ('A' for Active; 'I' for Inactive)
REMARK    1  A    between atoms: N1_1  and  N2_4 
REMARK    2  A    between atoms: N2_4  and  C1_6 
REMARK    3  A    between atoms: C1_6  and  O1_7 
REMARK    4  A    between atoms: C1_6  and  C2_9 
REMARK    5  A    between atoms: C2_9  and  N3_10 
REMARK    6  A    between atoms: C2_9  and  C4_22 
REMARK    7  A    between atoms: N3_10  and  N4_12 
REMARK    8  A    between atoms: N4_12  and  C3_14 
REMARK    9  A    between atoms: C5_25  and  C6_26 
REMARK       I    between atoms: C6_26  and  N10_28 
ROOT
HETATM    1  C2  UNL     1      30.411  40.907   5.296  1.00  0.00     0.129 C 
ENDROOT
BRANCH   1   2
HETATM    2  C1  UNL     1      29.925  42.235   5.423  1.00  0.00     0.185 C 
BRANCH   2   3
HETATM    3  N2  UNL     1      29.250  42.889   6.464  1.00  0.00    -0.285 N 
ATOM      4  H2  UNL     1      28.241  43.018   6.399  1.00  0.00     0.188 HD
BRANCH   3   5
HETATM    5  N1  UNL     1      29.936  43.375   7.605  1.00  0.00    -0.343 N 
ATOM      6  H12 UNL     1      30.925  43.146   7.707  1.00  0.00     0.176 HD
ATOM      7  H11 UNL     1      29.466  43.940   8.312  1.00  0.00     0.176 HD
ENDBRANCH   3   5
ENDBRANCH   2   3
BRANCH   2   8
HETATM    8  O1  UNL     1      30.122  43.035   4.402  1.00  0.00    -0.343 OA
ATOM      9  H1  UNL     1      30.997  42.934   4.046  1.00  0.00     0.219 HD
ENDBRANCH   2   8
ENDBRANCH   1   2
BRANCH   1  10
HETATM   10  N3  UNL     1      30.799  40.542   4.089  1.00  0.00    -0.280 N 
ATOM     11  H3  UNL     1      31.758  40.776   3.832  1.00  0.00     0.188 HD
BRANCH  10  12
HETATM   12  N4  UNL     1      30.064  39.888   3.146  1.00  0.00    -0.129 N 
ATOM     13  H4  UNL     1      29.936  38.881   3.248  1.00  0.00     0.205 HD
BRANCH  12  14
HETATM   14  C3  UNL     1      29.514  40.482   2.115  1.00  0.00     0.725 A 
HETATM   15  N5  UNL     1      28.629  39.945   1.256  1.00  0.00    -0.112 N 
HETATM   16  N6  UNL     1      28.317  40.867   0.357  1.00  0.00     0.009 NA
ATOM     17  H5  UNL     1      28.262  38.995   1.290  1.00  0.00     0.203 HD
HETATM   18  N7  UNL     1      28.975  41.984   0.612  1.00  0.00    -0.211 N 
HETATM   19  N8  UNL     1      29.703  41.741   1.684  1.00  0.00    -0.117 N 
ATOM     20  H7  UNL     1      28.930  42.857   0.085  1.00  0.00     0.206 HD
ATOM     21  H8  UNL     1      30.325  42.417   2.128  1.00  0.00     0.207 HD
ENDBRANCH  12  14
ENDBRANCH  10  12
ENDBRANCH   1  10
BRANCH   1  22
HETATM   22  C4  UNL     1      30.554  39.859   6.298  1.00  0.00     0.090 A 
HETATM   23  N9  UNL     1      31.284  39.822   7.400  1.00  0.00    -0.348 N 
HETATM   24  C5  UNL     1      31.134  38.636   8.075  1.00  0.00     0.109 A 
ATOM     25  H9  UNL     1      31.885  40.584   7.712  1.00  0.00     0.166 HD
HETATM   26  C7  UNL     1      30.258  37.876   7.356  1.00  0.00     0.064 A 
HETATM   27  C8  UNL     1      29.889  38.619   6.253  1.00  0.00     0.077 A 
HETATM   28  N11 UNL     1      28.986  38.164   5.265  1.00  0.00    -0.100 NA
BRANCH  24  29
HETATM   29  C6  UNL     1      31.790  38.286   9.304  1.00  0.00     0.334 C 
HETATM   30  O2  UNL     1      32.066  37.057   9.527  1.00  0.00    -0.259 OA
HETATM   31  N10 UNL     1      32.155  39.202  10.289  1.00  0.00    -0.071 N 
HETATM   32  O3  UNL     1      32.738  38.795  11.356  1.00  0.00    -0.529 OA
HETATM   33  O4  UNL     1      31.917  40.548  10.176  1.00  0.00    -0.529 OA
ENDBRANCH  24  29
ENDBRANCH   1  22
TORSDOF 9
ENDMDL
