MODEL 1
REMARK VINA RESULT: -6.693559055      0.000      0.000
REMARK  10 active torsions:
REMARK  status: ('A' for Active; 'I' for Inactive)
REMARK    1  A    between atoms: O1_2  and  C2_3 
REMARK    2  A    between atoms: C3_4  and  O2_5 
REMARK    3  A    between atoms: C4_7  and  O3_8 
REMARK    4  A    between atoms: C8_12  and  O4_13 
REMARK    5  A    between atoms: C9_15  and  C10_16 
REMARK    6  A    between atoms: C10_16  and  O5_17 
REMARK    7  A    between atoms: C10_16  and  O6_19 
REMARK    8  A    between atoms: O6_19  and  C11_20 
REMARK    9  A    between atoms: N2_22  and  N3_24 
REMARK   10  A    between atoms: C12_27  and  O7_28 
ROOT
HETATM    1  C2  UNL     1      31.678  42.215   8.255  1.00  0.00     0.138 A 
HETATM    2  C3  UNL     1      31.514  41.364   9.331  1.00  0.00     0.138 A 
HETATM    3  C4  UNL     1      30.810  40.190   9.163  1.00  0.00     0.131 A 
HETATM    4  C6  UNL     1      30.256  39.836   7.929  1.00  0.00     0.080 A 
HETATM    5  C7  UNL     1      30.421  40.687   6.850  1.00  0.00     0.041 A 
HETATM    6  C8  UNL     1      31.135  41.872   7.037  1.00  0.00     0.115 A 
HETATM    7  C9  UNL     1      29.837  40.155   5.793  1.00  0.00     0.038 A 
HETATM    8  C12 UNL     1      29.225  38.879   6.238  1.00  0.00     0.254 A 
HETATM    9  N4  UNL     1      29.577  38.805   7.610  1.00  0.00    -0.357 N 
ATOM     10  H4  UNL     1      29.327  38.046   8.243  1.00  0.00     0.162 HD
ENDROOT
BRANCH   7  11
HETATM   11  C10 UNL     1      29.740  40.667   4.427  1.00  0.00     0.302 C 
BRANCH  11  12
HETATM   12  O5  UNL     1      28.860  41.793   4.448  1.00  0.00    -0.367 OA
ATOM     13  H5  UNL     1      27.980  41.474   4.283  1.00  0.00     0.213 HD
ENDBRANCH  11  12
BRANCH  11  14
HETATM   14  O6  UNL     1      29.051  39.774   3.528  1.00  0.00    -0.288 OA
BRANCH  14  15
HETATM   15  C11 UNL     1      28.867  40.239   2.239  1.00  0.00     0.248 C 
HETATM   16  N1  UNL     1      29.959  40.782   1.501  1.00  0.00    -0.055 NA
HETATM   17  N2  UNL     1      27.693  40.169   1.728  1.00  0.00    -0.274 N 
ATOM     18  H2  UNL     1      26.954  39.770   2.307  1.00  0.00     0.189 HD
BRANCH  17  19
HETATM   19  N3  UNL     1      27.350  40.587   0.465  1.00  0.00    -0.342 N 
ATOM     20  H32 UNL     1      28.036  40.412  -0.269  1.00  0.00     0.176 HD
ATOM     21  H31 UNL     1      26.476  41.050   0.214  1.00  0.00     0.176 HD
ENDBRANCH  17  19
ENDBRANCH  14  15
ENDBRANCH  11  14
ENDBRANCH   7  11
BRANCH   8  22
HETATM   22  O7  UNL     1      29.668  37.794   5.485  1.00  0.00    -0.373 OA
ATOM     23  H7  UNL     1      29.115  37.632   4.730  1.00  0.00     0.212 HD
ENDBRANCH   8  22
BRANCH   6  24
HETATM   24  O4  UNL     1      31.329  42.763   5.996  1.00  0.00    -0.357 OA
ATOM     25  H4  UNL     1      30.552  43.066   5.541  1.00  0.00     0.217 HD
ENDBRANCH   6  24
BRANCH   3  26
HETATM   26  O3  UNL     1      30.662  39.353  10.271  1.00  0.00    -0.351 OA
HETATM   27  C5  UNL     1      31.694  38.481  10.621  1.00  0.00     0.210 C 
ENDBRANCH   3  26
BRANCH   1  28
HETATM   28  O1  UNL     1      32.390  43.423   8.390  1.00  0.00    -0.351 OA
HETATM   29  C1  UNL     1      33.795  43.457   8.126  1.00  0.00     0.210 C 
ENDBRANCH   1  28
BRANCH   2  30
HETATM   30  O2  UNL     1      32.078  41.747  10.544  1.00  0.00    -0.356 OA
ATOM     31  H2  UNL     1      31.796  41.284  11.325  1.00  0.00     0.218 HD
ENDBRANCH   2  30
TORSDOF 10
ENDMDL
MODEL 2
REMARK VINA RESULT: -6.272514758      2.467      6.181
REMARK  10 active torsions:
REMARK  status: ('A' for Active; 'I' for Inactive)
REMARK    1  A    between atoms: O1_2  and  C2_3 
REMARK    2  A    between atoms: C3_4  and  O2_5 
REMARK    3  A    between atoms: C4_7  and  O3_8 
REMARK    4  A    between atoms: C8_12  and  O4_13 
REMARK    5  A    between atoms: C9_15  and  C10_16 
REMARK    6  A    between atoms: C10_16  and  O5_17 
REMARK    7  A    between atoms: C10_16  and  O6_19 
REMARK    8  A    between atoms: O6_19  and  C11_20 
REMARK    9  A    between atoms: N2_22  and  N3_24 
REMARK   10  A    between atoms: C12_27  and  O7_28 
ROOT
HETATM    1  C2  UNL     1      29.671  42.562   5.723  1.00  0.00     0.138 A 
HETATM    2  C3  UNL     1      29.179  42.104   4.516  1.00  0.00     0.138 A 
HETATM    3  C4  UNL     1      29.103  40.746   4.290  1.00  0.00     0.131 A 
HETATM    4  C6  UNL     1      29.513  39.816   5.250  1.00  0.00     0.080 A 
HETATM    5  C7  UNL     1      30.005  40.275   6.460  1.00  0.00     0.041 A 
HETATM    6  C8  UNL     1      30.076  41.653   6.674  1.00  0.00     0.115 A 
HETATM    7  C9  UNL     1      30.314  39.238   7.216  1.00  0.00     0.038 A 
HETATM    8  C12 UNL     1      30.026  38.023   6.416  1.00  0.00     0.254 A 
HETATM    9  N4  UNL     1      29.519  38.543   5.198  1.00  0.00    -0.357 N 
ATOM     10  H4  UNL     1      29.207  37.985   4.403  1.00  0.00     0.162 HD
ENDROOT
BRANCH   7  11
HETATM   11  C10 UNL     1      30.863  39.205   8.570  1.00  0.00     0.302 C 
BRANCH  11  12
HETATM   12  O5  UNL     1      32.209  39.680   8.505  1.00  0.00    -0.367 OA
ATOM     13  H5  UNL     1      32.781  38.961   8.746  1.00  0.00     0.213 HD
ENDBRANCH  11  12
BRANCH  11  14
HETATM   14  O6  UNL     1      31.050  37.868   9.080  1.00  0.00    -0.288 OA
BRANCH  14  15
HETATM   15  C11 UNL     1      32.171  37.674   9.866  1.00  0.00     0.248 C 
HETATM   16  N1  UNL     1      33.368  37.142   9.303  1.00  0.00    -0.055 NA
HETATM   17  N2  UNL     1      32.105  37.984  11.108  1.00  0.00    -0.274 N 
ATOM     18  H2  UNL     1      31.221  38.360  11.450  1.00  0.00     0.189 HD
BRANCH  17  19
HETATM   19  N3  UNL     1      33.128  37.851  12.016  1.00  0.00    -0.342 N 
ATOM     20  H32 UNL     1      33.084  37.036  12.627  1.00  0.00     0.176 HD
ATOM     21  H31 UNL     1      33.911  38.495  12.120  1.00  0.00     0.176 HD
ENDBRANCH  17  19
ENDBRANCH  14  15
ENDBRANCH  11  14
ENDBRANCH   7  11
BRANCH   8  22
HETATM   22  O7  UNL     1      29.147  37.161   7.068  1.00  0.00    -0.373 OA
ATOM     23  H7  UNL     1      28.245  37.452   7.000  1.00  0.00     0.212 HD
ENDBRANCH   8  22
BRANCH   6  24
HETATM   24  O4  UNL     1      30.562  42.169   7.863  1.00  0.00    -0.357 OA
ATOM     25  H4  UNL     1      30.691  41.554   8.576  1.00  0.00     0.217 HD
ENDBRANCH   6  24
BRANCH   3  26
HETATM   26  O3  UNL     1      28.602  40.316   3.059  1.00  0.00    -0.351 OA
HETATM   27  C5  UNL     1      29.450  40.248   1.953  1.00  0.00     0.210 C 
ENDBRANCH   3  26
BRANCH   1  28
HETATM   28  O1  UNL     1      29.763  43.943   5.989  1.00  0.00    -0.351 OA
HETATM   29  C1  UNL     1      28.619  44.655   6.467  1.00  0.00     0.210 C 
ENDBRANCH   1  28
BRANCH   2  30
HETATM   30  O2  UNL     1      28.780  43.056   3.583  1.00  0.00    -0.356 OA
ATOM     31  H2  UNL     1      28.204  43.750   3.883  1.00  0.00     0.218 HD
ENDBRANCH   2  30
TORSDOF 10
ENDMDL
MODEL 3
REMARK VINA RESULT: -6.185791532      2.366      3.441
REMARK  10 active torsions:
REMARK  status: ('A' for Active; 'I' for Inactive)
REMARK    1  A    between atoms: O1_2  and  C2_3 
REMARK    2  A    between atoms: C3_4  and  O2_5 
REMARK    3  A    between atoms: C4_7  and  O3_8 
REMARK    4  A    between atoms: C8_12  and  O4_13 
REMARK    5  A    between atoms: C9_15  and  C10_16 
REMARK    6  A    between atoms: C10_16  and  O5_17 
REMARK    7  A    between atoms: C10_16  and  O6_19 
REMARK    8  A    between atoms: O6_19  and  C11_20 
REMARK    9  A    between atoms: N2_22  and  N3_24 
REMARK   10  A    between atoms: C12_27  and  O7_28 
ROOT
HETATM    1  C2  UNL     1      29.869  39.594   8.156  1.00  0.00     0.138 A 
HETATM    2  C3  UNL     1      29.353  40.512   9.052  1.00  0.00     0.138 A 
HETATM    3  C4  UNL     1      28.889  41.723   8.586  1.00  0.00     0.131 A 
HETATM    4  C6  UNL     1      28.926  42.051   7.227  1.00  0.00     0.080 A 
HETATM    5  C7  UNL     1      29.441  41.132   6.329  1.00  0.00     0.041 A 
HETATM    6  C8  UNL     1      29.908  39.910   6.817  1.00  0.00     0.115 A 
HETATM    7  C9  UNL     1      29.365  41.636   5.111  1.00  0.00     0.038 A 
HETATM    8  C12 UNL     1      28.785  42.995   5.245  1.00  0.00     0.254 A 
HETATM    9  N4  UNL     1      28.551  43.118   6.638  1.00  0.00    -0.357 N 
ATOM     10  H4  UNL     1      28.146  43.933   7.099  1.00  0.00     0.162 HD
ENDROOT
BRANCH   7  11
HETATM   11  C10 UNL     1      29.776  41.052   3.836  1.00  0.00     0.302 C 
BRANCH  11  12
HETATM   12  O5  UNL     1      29.680  42.072   2.840  1.00  0.00    -0.367 OA
ATOM     13  H5  UNL     1      29.560  41.644   2.000  1.00  0.00     0.213 HD
ENDBRANCH  11  12
BRANCH  11  14
HETATM   14  O6  UNL     1      28.851  40.066   3.334  1.00  0.00    -0.288 OA
BRANCH  14  15
HETATM   15  C11 UNL     1      28.053  40.468   2.279  1.00  0.00     0.248 C 
HETATM   16  N1  UNL     1      26.893  41.265   2.510  1.00  0.00    -0.055 NA
HETATM   17  N2  UNL     1      28.382  40.109   1.094  1.00  0.00    -0.274 N 
ATOM     18  H2  UNL     1      29.223  39.540   0.994  1.00  0.00     0.189 HD
BRANCH  17  19
HETATM   19  N3  UNL     1      27.696  40.427  -0.053  1.00  0.00    -0.342 N 
ATOM     20  H32 UNL     1      26.975  41.142   0.038  1.00  0.00     0.176 HD
ATOM     21  H31 UNL     1      27.853  40.008  -0.969  1.00  0.00     0.176 HD
ENDBRANCH  17  19
ENDBRANCH  14  15
ENDBRANCH  11  14
ENDBRANCH   7  11
BRANCH   8  22
HETATM   22  O7  UNL     1      27.640  43.155   4.467  1.00  0.00    -0.373 OA
ATOM     23  H7  UNL     1      26.899  43.454   4.980  1.00  0.00     0.212 HD
ENDBRANCH   8  22
BRANCH   6  24
HETATM   24  O4  UNL     1      30.436  38.954   5.967  1.00  0.00    -0.357 OA
ATOM     25  H4  UNL     1      31.133  38.410   6.316  1.00  0.00     0.217 HD
ENDBRANCH   6  24
BRANCH   3  26
HETATM   26  O3  UNL     1      28.375  42.628   9.518  1.00  0.00    -0.351 OA
HETATM   27  C5  UNL     1      27.011  42.616   9.812  1.00  0.00     0.210 C 
ENDBRANCH   3  26
BRANCH   1  28
HETATM   28  O1  UNL     1      30.353  38.347   8.597  1.00  0.00    -0.351 OA
HETATM   29  C1  UNL     1      31.723  38.208   8.979  1.00  0.00     0.210 C 
ENDBRANCH   1  28
BRANCH   2  30
HETATM   30  O2  UNL     1      29.332  40.153  10.396  1.00  0.00    -0.356 OA
ATOM     31  H2  UNL     1      28.502  40.220  10.855  1.00  0.00     0.218 HD
ENDBRANCH   2  30
TORSDOF 10
ENDMDL
MODEL 4
REMARK VINA RESULT: -6.127380672      1.140      1.336
REMARK  10 active torsions:
REMARK  status: ('A' for Active; 'I' for Inactive)
REMARK    1  A    between atoms: O1_2  and  C2_3 
REMARK    2  A    between atoms: C3_4  and  O2_5 
REMARK    3  A    between atoms: C4_7  and  O3_8 
REMARK    4  A    between atoms: C8_12  and  O4_13 
REMARK    5  A    between atoms: C9_15  and  C10_16 
REMARK    6  A    between atoms: C10_16  and  O5_17 
REMARK    7  A    between atoms: C10_16  and  O6_19 
REMARK    8  A    between atoms: O6_19  and  C11_20 
REMARK    9  A    between atoms: N2_22  and  N3_24 
REMARK   10  A    between atoms: C12_27  and  O7_28 
ROOT
HETATM    1  C2  UNL     1      31.487  42.441   7.288  1.00  0.00     0.138 A 
HETATM    2  C3  UNL     1      31.899  41.796   8.439  1.00  0.00     0.138 A 
HETATM    3  C4  UNL     1      31.495  40.498   8.667  1.00  0.00     0.131 A 
HETATM    4  C6  UNL     1      30.677  39.813   7.764  1.00  0.00     0.080 A 
HETATM    5  C7  UNL     1      30.264  40.459   6.611  1.00  0.00     0.041 A 
HETATM    6  C8  UNL     1      30.680  41.773   6.394  1.00  0.00     0.115 A 
HETATM    7  C9  UNL     1      29.519  39.630   5.901  1.00  0.00     0.038 A 
HETATM    8  C12 UNL     1      29.424  38.369   6.676  1.00  0.00     0.254 A 
HETATM    9  N4  UNL     1      30.210  38.629   7.827  1.00  0.00    -0.357 N 
ATOM     10  H4  UNL     1      30.377  37.971   8.588  1.00  0.00     0.162 HD
ENDROOT
BRANCH   7  11
HETATM   11  C10 UNL     1      28.858  39.843   4.615  1.00  0.00     0.302 C 
BRANCH  11  12
HETATM   12  O5  UNL     1      28.013  38.719   4.370  1.00  0.00    -0.367 OA
ATOM     13  H5  UNL     1      28.234  38.373   3.512  1.00  0.00     0.213 HD
ENDBRANCH  11  12
BRANCH  11  14
HETATM   14  O6  UNL     1      29.760  39.782   3.491  1.00  0.00    -0.288 OA
BRANCH  14  15
HETATM   15  C11 UNL     1      29.339  40.427   2.343  1.00  0.00     0.248 C 
HETATM   16  N1  UNL     1      29.874  41.700   1.988  1.00  0.00    -0.055 NA
HETATM   17  N2  UNL     1      28.458  39.852   1.610  1.00  0.00    -0.274 N 
ATOM     18  H2  UNL     1      28.115  38.942   1.917  1.00  0.00     0.189 HD
BRANCH  17  19
HETATM   19  N3  UNL     1      27.940  40.360   0.444  1.00  0.00    -0.342 N 
ATOM     20  H32 UNL     1      27.239  41.094   0.545  1.00  0.00     0.176 HD
ATOM     21  H31 UNL     1      28.201  40.063  -0.496  1.00  0.00     0.176 HD
ENDBRANCH  17  19
ENDBRANCH  14  15
ENDBRANCH  11  14
ENDBRANCH   7  11
BRANCH   8  22
HETATM   22  O7  UNL     1      29.854  37.267   5.940  1.00  0.00    -0.373 OA
ATOM     23  H7  UNL     1      30.068  37.498   5.043  1.00  0.00     0.212 HD
ENDBRANCH   8  22
BRANCH   6  24
HETATM   24  O4  UNL     1      30.296  42.469   5.261  1.00  0.00    -0.357 OA
ATOM     25  H4  UNL     1      30.090  41.952   4.491  1.00  0.00     0.217 HD
ENDBRANCH   6  24
BRANCH   3  26
HETATM   26  O3  UNL     1      31.930  39.876   9.840  1.00  0.00    -0.351 OA
HETATM   27  C5  UNL     1      31.109  39.879  10.968  1.00  0.00     0.210 C 
ENDBRANCH   3  26
BRANCH   1  28
HETATM   28  O1  UNL     1      31.879  43.768   7.022  1.00  0.00    -0.351 OA
HETATM   29  C1  UNL     1      31.086  44.856   7.502  1.00  0.00     0.210 C 
ENDBRANCH   1  28
BRANCH   2  30
HETATM   30  O2  UNL     1      32.713  42.507   9.315  1.00  0.00    -0.356 OA
ATOM     31  H2  UNL     1      32.442  42.555  10.225  1.00  0.00     0.218 HD
ENDBRANCH   2  30
TORSDOF 10
ENDMDL
MODEL 5
REMARK VINA RESULT: -5.982474775      1.047      1.204
REMARK  10 active torsions:
REMARK  status: ('A' for Active; 'I' for Inactive)
REMARK    1  A    between atoms: O1_2  and  C2_3 
REMARK    2  A    between atoms: C3_4  and  O2_5 
REMARK    3  A    between atoms: C4_7  and  O3_8 
REMARK    4  A    between atoms: C8_12  and  O4_13 
REMARK    5  A    between atoms: C9_15  and  C10_16 
REMARK    6  A    between atoms: C10_16  and  O5_17 
REMARK    7  A    between atoms: C10_16  and  O6_19 
REMARK    8  A    between atoms: O6_19  and  C11_20 
REMARK    9  A    between atoms: N2_22  and  N3_24 
REMARK   10  A    between atoms: C12_27  and  O7_28 
ROOT
HETATM    1  C2  UNL     1      31.638  42.177   8.181  1.00  0.00     0.138 A 
HETATM    2  C3  UNL     1      31.516  41.368   9.295  1.00  0.00     0.138 A 
HETATM    3  C4  UNL     1      30.847  40.167   9.187  1.00  0.00     0.131 A 
HETATM    4  C6  UNL     1      30.288  39.743   7.978  1.00  0.00     0.080 A 
HETATM    5  C7  UNL     1      30.411  40.553   6.862  1.00  0.00     0.041 A 
HETATM    6  C8  UNL     1      31.090  41.766   6.987  1.00  0.00     0.115 A 
HETATM    7  C9  UNL     1      29.829  39.958   5.836  1.00  0.00     0.038 A 
HETATM    8  C12 UNL     1      29.264  38.684   6.344  1.00  0.00     0.254 A 
HETATM    9  N4  UNL     1      29.638  38.680   7.712  1.00  0.00    -0.357 N 
ATOM     10  H4  UNL     1      29.420  37.941   8.381  1.00  0.00     0.162 HD
ENDROOT
BRANCH   7  11
HETATM   11  C10 UNL     1      29.698  40.409   4.452  1.00  0.00     0.302 C 
BRANCH  11  12
HETATM   12  O5  UNL     1      31.003  40.740   3.977  1.00  0.00    -0.367 OA
ATOM     13  H5  UNL     1      30.952  40.835   3.033  1.00  0.00     0.213 HD
ENDBRANCH  11  12
BRANCH  11  14
HETATM   14  O6  UNL     1      29.011  41.671   4.324  1.00  0.00    -0.288 OA
BRANCH  14  15
HETATM   15  C11 UNL     1      28.962  42.205   3.050  1.00  0.00     0.248 C 
HETATM   16  N1  UNL     1      28.904  43.616   2.856  1.00  0.00    -0.055 NA
HETATM   17  N2  UNL     1      28.973  41.400   2.052  1.00  0.00    -0.274 N 
ATOM     18  H2  UNL     1      29.016  40.401   2.256  1.00  0.00     0.189 HD
BRANCH  17  19
HETATM   19  N3  UNL     1      28.930  41.772   0.730  1.00  0.00    -0.342 N 
ATOM     20  H32 UNL     1      29.289  42.701   0.512  1.00  0.00     0.176 HD
ATOM     21  H31 UNL     1      28.571  41.198  -0.033  1.00  0.00     0.176 HD
ENDBRANCH  17  19
ENDBRANCH  14  15
ENDBRANCH  11  14
ENDBRANCH   7  11
BRANCH   8  22
HETATM   22  O7  UNL     1      29.731  37.582   5.631  1.00  0.00    -0.373 OA
ATOM     23  H7  UNL     1      29.110  37.291   4.974  1.00  0.00     0.212 HD
ENDBRANCH   8  22
BRANCH   6  24
HETATM   24  O4  UNL     1      31.242  42.618   5.907  1.00  0.00    -0.357 OA
ATOM     25  H4  UNL     1      31.311  43.546   6.100  1.00  0.00     0.217 HD
ENDBRANCH   6  24
BRANCH   3  26
HETATM   26  O3  UNL     1      30.741  39.373  10.332  1.00  0.00    -0.351 OA
HETATM   27  C5  UNL     1      31.772  38.492  10.659  1.00  0.00     0.210 C 
ENDBRANCH   3  26
BRANCH   1  28
HETATM   28  O1  UNL     1      32.314  43.411   8.255  1.00  0.00    -0.351 OA
HETATM   29  C1  UNL     1      33.721  43.470   8.009  1.00  0.00     0.210 C 
ENDBRANCH   1  28
BRANCH   2  30
HETATM   30  O2  UNL     1      32.084  41.820  10.482  1.00  0.00    -0.356 OA
ATOM     31  H2  UNL     1      31.555  42.384  11.034  1.00  0.00     0.218 HD
ENDBRANCH   2  30
TORSDOF 10
ENDMDL
