MODEL 1
REMARK VINA RESULT: -7.909483488      0.000      0.000
REMARK  5 active torsions:
REMARK  status: ('A' for Active; 'I' for Inactive)
REMARK    1  A    between atoms: N8_21  and  C8_22 
REMARK    2  A    between atoms: C8_22  and  C9_23 
REMARK    3  A    between atoms: C9_23  and  C10_24 
REMARK    4  A    between atoms: C10_24  and  O1_25 
REMARK    5  A    between atoms: C10_24  and  C11_27 
ROOT
HETATM    1  N1  UNL     1      33.957  43.155   8.589  1.00  0.00    -0.172 NA
HETATM    2  C1  UNL     1      33.168  42.591   7.922  1.00  0.00     0.183 C 
HETATM    3  N2  UNL     1      32.250  41.940   7.115  1.00  0.00    -0.281 N 
ATOM      4  H2  UNL     1      32.233  42.132   6.113  1.00  0.00     0.179 HD
HETATM    5  C2  UNL     1      31.428  41.105   7.609  1.00  0.00     0.115 C 
HETATM    6  C3  UNL     1      31.509  40.874   9.068  1.00  0.00     0.170 C 
HETATM    7  C4  UNL     1      31.768  39.439   9.412  1.00  0.00     0.154 C 
HETATM    8  N3  UNL     1      31.041  38.475   8.638  1.00  0.00    -0.374 N 
ATOM      9  H3  UNL     1      31.388  37.525   8.767  1.00  0.00     0.161 HD
HETATM   10  C5  UNL     1      29.958  38.540   7.741  1.00  0.00     0.114 C 
HETATM   11  N4  UNL     1      29.363  37.426   7.524  1.00  0.00    -0.386 N 
ATOM     12  H41 UNL     1      28.579  37.473   6.874  1.00  0.00     0.157 HD
ATOM     13  H42 UNL     1      29.755  36.634   8.033  1.00  0.00     0.157 HD
HETATM   14  C6  UNL     1      29.390  39.690   7.002  1.00  0.00     0.255 C 
HETATM   15  N5  UNL     1      28.569  40.513   7.887  1.00  0.00    -0.337 N 
ATOM     16  H5  UNL     1      27.595  40.614   7.601  1.00  0.00     0.164 HD
HETATM   17  C7  UNL     1      28.888  41.133   8.978  1.00  0.00     0.186 C 
HETATM   18  N6  UNL     1      27.829  41.871   9.626  1.00  0.00    -0.064 NA
HETATM   19  N7  UNL     1      30.164  41.162   9.599  1.00  0.00    -0.351 N 
ATOM     20  H7  UNL     1      30.148  41.428  10.584  1.00  0.00     0.163 HD
HETATM   21  N8  UNL     1      30.555  40.526   6.650  1.00  0.00    -0.340 N 
ENDROOT
BRANCH  21  22
HETATM   22  C8  UNL     1      30.797  40.749   5.250  1.00  0.00     0.130 C 
BRANCH  22  23
HETATM   23  C9  UNL     1      29.689  40.102   4.422  1.00  0.00     0.059 C 
BRANCH  23  24
HETATM   24  C10 UNL     1      29.015  41.187   3.598  1.00  0.00     0.190 C 
BRANCH  24  25
HETATM   25  O1  UNL     1      29.790  42.340   3.572  1.00  0.00    -0.388 OA
ATOM     26  H1  UNL     1      29.368  43.018   3.057  1.00  0.00     0.210 HD
ENDBRANCH  24  25
BRANCH  24  27
HETATM   27  C11 UNL     1      28.636  40.697   2.266  1.00  0.00     0.142 A 
HETATM   28  N9  UNL     1      29.141  39.621   1.624  1.00  0.00    -0.270 N 
HETATM   29  N10 UNL     1      28.520  39.539   0.450  1.00  0.00    -0.227 N 
ATOM     30  H9  UNL     1      29.862  38.990   1.973  1.00  0.00     0.190 HD
HETATM   31  N11 UNL     1      27.643  40.517   0.320  1.00  0.00    -0.227 N 
ATOM     32  H10 UNL     1      28.697  38.820  -0.252  1.00  0.00     0.210 HD
HETATM   33  N12 UNL     1      27.724  41.216   1.434  1.00  0.00    -0.270 N 
ATOM     34  H11 UNL     1      27.031  40.694  -0.476  1.00  0.00     0.210 HD
ATOM     35  H12 UNL     1      27.164  42.044   1.637  1.00  0.00     0.190 HD
ENDBRANCH  24  27
ENDBRANCH  23  24
ENDBRANCH  22  23
ENDBRANCH  21  22
TORSDOF 5
ENDMDL
MODEL 2
REMARK VINA RESULT: -7.729742145      1.293      3.292
REMARK  5 active torsions:
REMARK  status: ('A' for Active; 'I' for Inactive)
REMARK    1  A    between atoms: N8_21  and  C8_22 
REMARK    2  A    between atoms: C8_22  and  C9_23 
REMARK    3  A    between atoms: C9_23  and  C10_24 
REMARK    4  A    between atoms: C10_24  and  O1_25 
REMARK    5  A    between atoms: C10_24  and  C11_27 
ROOT
HETATM    1  N1  UNL     1      31.982  37.359   9.704  1.00  0.00    -0.172 NA
HETATM    2  C1  UNL     1      31.688  38.063   8.808  1.00  0.00     0.183 C 
HETATM    3  N2  UNL     1      31.343  38.870   7.737  1.00  0.00    -0.281 N 
ATOM      4  H2  UNL     1      31.252  38.462   6.807  1.00  0.00     0.179 HD
HETATM    5  C2  UNL     1      31.138  40.115   7.901  1.00  0.00     0.115 C 
HETATM    6  C3  UNL     1      31.288  40.639   9.275  1.00  0.00     0.170 C 
HETATM    7  C4  UNL     1      30.039  41.296   9.782  1.00  0.00     0.154 C 
HETATM    8  N3  UNL     1      29.350  42.127   8.838  1.00  0.00    -0.374 N 
ATOM      9  H3  UNL     1      28.417  42.392   9.154  1.00  0.00     0.161 HD
HETATM   10  C5  UNL     1      29.665  42.660   7.573  1.00  0.00     0.114 C 
HETATM   11  N4  UNL     1      28.933  43.643   7.199  1.00  0.00    -0.386 N 
ATOM     12  H41 UNL     1      29.161  44.030   6.283  1.00  0.00     0.157 HD
ATOM     13  H42 UNL     1      28.214  43.911   7.871  1.00  0.00     0.157 HD
HETATM   14  C6  UNL     1      30.708  42.270   6.599  1.00  0.00     0.255 C 
HETATM   15  N5  UNL     1      32.015  42.771   7.018  1.00  0.00    -0.337 N 
ATOM     16  H5  UNL     1      32.471  43.395   6.352  1.00  0.00     0.164 HD
HETATM   17  C7  UNL     1      32.682  42.545   8.104  1.00  0.00     0.186 C 
HETATM   18  N6  UNL     1      33.963  43.201   8.215  1.00  0.00    -0.064 NA
HETATM   19  N7  UNL     1      32.286  41.721   9.191  1.00  0.00    -0.351 N 
ATOM     20  H7  UNL     1      32.778  41.910  10.064  1.00  0.00     0.163 HD
HETATM   21  N8  UNL     1      30.794  40.800   6.705  1.00  0.00    -0.340 N 
ENDROOT
BRANCH  21  22
HETATM   22  C8  UNL     1      30.506  40.043   5.516  1.00  0.00     0.130 C 
BRANCH  22  23
HETATM   23  C9  UNL     1      30.446  40.976   4.309  1.00  0.00     0.059 C 
BRANCH  23  24
HETATM   24  C10 UNL     1      28.987  41.171   3.930  1.00  0.00     0.190 C 
BRANCH  24  25
HETATM   25  O1  UNL     1      28.611  42.500   4.085  1.00  0.00    -0.388 OA
ATOM     26  H1  UNL     1      27.761  42.564   4.506  1.00  0.00     0.210 HD
ENDBRANCH  24  25
BRANCH  24  27
HETATM   27  C11 UNL     1      28.695  40.623   2.599  1.00  0.00     0.142 A 
HETATM   28  N9  UNL     1      27.686  40.986   1.777  1.00  0.00    -0.270 N 
HETATM   29  N10 UNL     1      27.790  40.244   0.678  1.00  0.00    -0.227 N 
ATOM     30  H9  UNL     1      26.977  41.695   1.964  1.00  0.00     0.190 HD
HETATM   31  N11 UNL     1      28.822  39.426   0.768  1.00  0.00    -0.227 N 
ATOM     32  H10 UNL     1      27.160  40.299  -0.122  1.00  0.00     0.210 HD
HETATM   33  N12 UNL     1      29.365  39.668   1.944  1.00  0.00    -0.270 N 
ATOM     34  H11 UNL     1      29.133  38.748   0.072  1.00  0.00     0.210 HD
ATOM     35  H12 UNL     1      30.189  39.189   2.307  1.00  0.00     0.190 HD
ENDBRANCH  24  27
ENDBRANCH  23  24
ENDBRANCH  22  23
ENDBRANCH  21  22
TORSDOF 5
ENDMDL
MODEL 3
REMARK VINA RESULT: -7.562517724      1.538      3.645
REMARK  5 active torsions:
REMARK  status: ('A' for Active; 'I' for Inactive)
REMARK    1  A    between atoms: N8_21  and  C8_22 
REMARK    2  A    between atoms: C8_22  and  C9_23 
REMARK    3  A    between atoms: C9_23  and  C10_24 
REMARK    4  A    between atoms: C10_24  and  O1_25 
REMARK    5  A    between atoms: C10_24  and  C11_27 
ROOT
HETATM    1  N1  UNL     1      27.318  40.594  12.016  1.00  0.00    -0.172 NA
HETATM    2  C1  UNL     1      27.795  40.565  10.941  1.00  0.00     0.183 C 
HETATM    3  N2  UNL     1      28.332  40.531   9.665  1.00  0.00    -0.281 N 
ATOM      4  H2  UNL     1      27.710  40.505   8.856  1.00  0.00     0.179 HD
HETATM    5  C2  UNL     1      29.592  40.532   9.490  1.00  0.00     0.115 C 
HETATM    6  C3  UNL     1      30.433  40.571  10.705  1.00  0.00     0.170 C 
HETATM    7  C4  UNL     1      31.354  41.753  10.733  1.00  0.00     0.154 C 
HETATM    8  N3  UNL     1      31.990  42.072   9.488  1.00  0.00    -0.374 N 
ATOM      9  H3  UNL     1      32.446  42.984   9.502  1.00  0.00     0.161 HD
HETATM   10  C5  UNL     1      32.130  41.414   8.252  1.00  0.00     0.114 C 
HETATM   11  N4  UNL     1      33.067  41.861   7.499  1.00  0.00    -0.386 N 
ATOM     12  H41 UNL     1      33.169  41.385   6.604  1.00  0.00     0.157 HD
ATOM     13  H42 UNL     1      33.591  42.640   7.899  1.00  0.00     0.157 HD
HETATM   14  C6  UNL     1      31.369  40.285   7.672  1.00  0.00     0.255 C 
HETATM   15  N5  UNL     1      31.791  39.021   8.271  1.00  0.00    -0.337 N 
ATOM     16  H5  UNL     1      32.156  38.332   7.613  1.00  0.00     0.164 HD
HETATM   17  C7  UNL     1      31.772  38.641   9.509  1.00  0.00     0.186 C 
HETATM   18  N6  UNL     1      32.266  37.311   9.776  1.00  0.00    -0.064 NA
HETATM   19  N7  UNL     1      31.318  39.394  10.624  1.00  0.00    -0.351 N 
ATOM     20  H7  UNL     1      31.664  39.064  11.525  1.00  0.00     0.163 HD
HETATM   21  N8  UNL     1      29.979  40.495   8.124  1.00  0.00    -0.340 N 
ENDROOT
BRANCH  21  22
HETATM   22  C8  UNL     1      28.982  40.669   7.102  1.00  0.00     0.130 C 
BRANCH  22  23
HETATM   23  C9  UNL     1      29.465  40.048   5.793  1.00  0.00     0.059 C 
BRANCH  23  24
HETATM   24  C10 UNL     1      29.492  41.136   4.733  1.00  0.00     0.190 C 
BRANCH  24  25
HETATM   25  O1  UNL     1      30.693  41.835   4.772  1.00  0.00    -0.388 OA
ATOM     26  H1  UNL     1      30.822  42.236   5.624  1.00  0.00     0.210 HD
ENDBRANCH  24  25
BRANCH  24  27
HETATM   27  C11 UNL     1      29.159  40.605   3.404  1.00  0.00     0.142 A 
HETATM   28  N9  UNL     1      27.967  40.111   3.004  1.00  0.00    -0.270 N 
HETATM   29  N10 UNL     1      28.103  39.743   1.733  1.00  0.00    -0.227 N 
ATOM     30  H9  UNL     1      27.122  40.034   3.570  1.00  0.00     0.190 HD
HETATM   31  N11 UNL     1      29.329  39.983   1.310  1.00  0.00    -0.227 N 
ATOM     32  H10 UNL     1      27.362  39.333   1.164  1.00  0.00     0.210 HD
HETATM   33  N12 UNL     1      29.963  40.508   2.338  1.00  0.00    -0.270 N 
ATOM     34  H11 UNL     1      29.707  39.799   0.381  1.00  0.00     0.210 HD
ATOM     35  H12 UNL     1      30.940  40.803   2.324  1.00  0.00     0.190 HD
ENDBRANCH  24  27
ENDBRANCH  23  24
ENDBRANCH  22  23
ENDBRANCH  21  22
TORSDOF 5
ENDMDL
MODEL 4
REMARK VINA RESULT: -7.363186937      2.571      6.928
REMARK  5 active torsions:
REMARK  status: ('A' for Active; 'I' for Inactive)
REMARK    1  A    between atoms: N8_21  and  C8_22 
REMARK    2  A    between atoms: C8_22  and  C9_23 
REMARK    3  A    between atoms: C9_23  and  C10_24 
REMARK    4  A    between atoms: C10_24  and  O1_25 
REMARK    5  A    between atoms: C10_24  and  C11_27 
ROOT
HETATM    1  N1  UNL     1      25.877  44.764   5.299  1.00  0.00    -0.172 NA
HETATM    2  C1  UNL     1      26.796  44.073   5.050  1.00  0.00     0.183 C 
HETATM    3  N2  UNL     1      27.887  43.264   4.783  1.00  0.00    -0.281 N 
ATOM      4  H2  UNL     1      28.580  43.093   5.512  1.00  0.00     0.179 HD
HETATM    5  C2  UNL     1      28.036  42.730   3.638  1.00  0.00     0.115 C 
HETATM    6  C3  UNL     1      26.995  43.020   2.628  1.00  0.00     0.170 C 
HETATM    7  C4  UNL     1      26.332  41.779   2.110  1.00  0.00     0.154 C 
HETATM    8  N3  UNL     1      27.205  40.673   1.848  1.00  0.00    -0.374 N 
ATOM      9  H3  UNL     1      26.700  39.802   1.688  1.00  0.00     0.161 HD
HETATM   10  C5  UNL     1      28.601  40.514   1.760  1.00  0.00     0.114 C 
HETATM   11  N4  UNL     1      28.992  39.451   1.161  1.00  0.00    -0.386 N 
ATOM     12  H41 UNL     1      30.003  39.335   1.097  1.00  0.00     0.157 HD
ATOM     13  H42 UNL     1      28.235  38.856   0.823  1.00  0.00     0.157 HD
HETATM   14  C6  UNL     1      29.700  41.376   2.251  1.00  0.00     0.255 C 
HETATM   15  N5  UNL     1      29.882  42.525   1.368  1.00  0.00    -0.337 N 
ATOM     16  H5  UNL     1      30.809  42.605   0.949  1.00  0.00     0.164 HD
HETATM   17  C7  UNL     1      29.048  43.459   1.035  1.00  0.00     0.186 C 
HETATM   18  N6  UNL     1      29.546  44.467   0.129  1.00  0.00    -0.064 NA
HETATM   19  N7  UNL     1      27.703  43.592   1.468  1.00  0.00    -0.351 N 
ATOM     20  H7  UNL     1      27.125  44.187   0.874  1.00  0.00     0.163 HD
HETATM   21  N8  UNL     1      29.204  41.930   3.527  1.00  0.00    -0.340 N 
ENDROOT
BRANCH  21  22
HETATM   22  C8  UNL     1      29.967  41.626   4.708  1.00  0.00     0.130 C 
BRANCH  22  23
HETATM   23  C9  UNL     1      30.443  40.176   4.660  1.00  0.00     0.059 C 
BRANCH  23  24
HETATM   24  C10 UNL     1      29.749  39.410   5.774  1.00  0.00     0.190 C 
BRANCH  24  25
HETATM   25  O1  UNL     1      29.181  38.238   5.288  1.00  0.00    -0.388 OA
ATOM     26  H1  UNL     1      28.967  38.324   4.367  1.00  0.00     0.210 HD
ENDBRANCH  24  25
BRANCH  24  27
HETATM   27  C11 UNL     1      30.638  39.205   6.926  1.00  0.00     0.142 A 
HETATM   28  N9  UNL     1      31.103  40.153   7.769  1.00  0.00    -0.270 N 
HETATM   29  N10 UNL     1      31.871  39.537   8.664  1.00  0.00    -0.227 N 
ATOM     30  H9  UNL     1      30.904  41.153   7.727  1.00  0.00     0.190 HD
HETATM   31  N11 UNL     1      31.912  38.240   8.425  1.00  0.00    -0.227 N 
ATOM     32  H10 UNL     1      32.359  40.003   9.429  1.00  0.00     0.210 HD
HETATM   33  N12 UNL     1      31.157  38.051   7.362  1.00  0.00    -0.270 N 
ATOM     34  H11 UNL     1      32.423  37.533   8.952  1.00  0.00     0.210 HD
ATOM     35  H12 UNL     1      30.988  37.143   6.928  1.00  0.00     0.190 HD
ENDBRANCH  24  27
ENDBRANCH  23  24
ENDBRANCH  22  23
ENDBRANCH  21  22
TORSDOF 5
ENDMDL
MODEL 5
REMARK VINA RESULT: -7.200463669      1.322      3.104
REMARK  5 active torsions:
REMARK  status: ('A' for Active; 'I' for Inactive)
REMARK    1  A    between atoms: N8_21  and  C8_22 
REMARK    2  A    between atoms: C8_22  and  C9_23 
REMARK    3  A    between atoms: C9_23  and  C10_24 
REMARK    4  A    between atoms: C10_24  and  O1_25 
REMARK    5  A    between atoms: C10_24  and  C11_27 
ROOT
HETATM    1  N1  UNL     1      32.764  37.329   9.644  1.00  0.00    -0.172 NA
HETATM    2  C1  UNL     1      32.015  37.936   8.970  1.00  0.00     0.183 C 
HETATM    3  N2  UNL     1      31.131  38.630   8.160  1.00  0.00    -0.281 N 
ATOM      4  H2  UNL     1      30.769  38.190   7.314  1.00  0.00     0.179 HD
HETATM    5  C2  UNL     1      30.766  39.811   8.460  1.00  0.00     0.115 C 
HETATM    6  C3  UNL     1      31.329  40.388   9.699  1.00  0.00     0.170 C 
HETATM    7  C4  UNL     1      30.271  40.791  10.682  1.00  0.00     0.154 C 
HETATM    8  N3  UNL     1      29.121  41.441  10.123  1.00  0.00    -0.374 N 
ATOM      9  H3  UNL     1      28.352  41.519  10.787  1.00  0.00     0.161 HD
HETATM   10  C5  UNL     1      28.812  41.996   8.866  1.00  0.00     0.114 C 
HETATM   11  N4  UNL     1      27.815  42.801   8.857  1.00  0.00    -0.386 N 
ATOM     12  H41 UNL     1      27.590  43.203   7.947  1.00  0.00     0.157 HD
ATOM     13  H42 UNL     1      27.374  42.934   9.767  1.00  0.00     0.157 HD
HETATM   14  C6  UNL     1      29.452  41.802   7.546  1.00  0.00     0.255 C 
HETATM   15  N5  UNL     1      30.692  42.568   7.460  1.00  0.00    -0.337 N 
ATOM     16  H5  UNL     1      30.724  43.255   6.706  1.00  0.00     0.164 HD
HETATM   17  C7  UNL     1      31.759  42.508   8.193  1.00  0.00     0.186 C 
HETATM   18  N6  UNL     1      32.827  43.413   7.841  1.00  0.00    -0.064 NA
HETATM   19  N7  UNL     1      31.984  41.648   9.300  1.00  0.00    -0.351 N 
ATOM     20  H7  UNL     1      32.727  41.954   9.927  1.00  0.00     0.163 HD
HETATM   21  N8  UNL     1      29.859  40.383   7.528  1.00  0.00    -0.340 N 
ENDROOT
BRANCH  21  22
HETATM   22  C8  UNL     1      29.288  39.555   6.499  1.00  0.00     0.130 C 
BRANCH  22  23
HETATM   23  C9  UNL     1      30.150  39.623   5.241  1.00  0.00     0.059 C 
BRANCH  23  24
HETATM   24  C10 UNL     1      29.713  40.833   4.430  1.00  0.00     0.190 C 
BRANCH  24  25
HETATM   25  O1  UNL     1      30.746  41.756   4.325  1.00  0.00    -0.388 OA
ATOM     26  H1  UNL     1      31.408  41.453   3.713  1.00  0.00     0.210 HD
ENDBRANCH  24  25
BRANCH  24  27
HETATM   27  C11 UNL     1      29.136  40.439   3.138  1.00  0.00     0.142 A 
HETATM   28  N9  UNL     1      27.864  40.635   2.725  1.00  0.00    -0.270 N 
HETATM   29  N10 UNL     1      27.769  40.128   1.499  1.00  0.00    -0.227 N 
ATOM     30  H9  UNL     1      27.117  41.085   3.254  1.00  0.00     0.190 HD
HETATM   31  N11 UNL     1      28.925  39.620   1.116  1.00  0.00    -0.227 N 
ATOM     32  H10 UNL     1      26.921  40.132   0.932  1.00  0.00     0.210 HD
HETATM   33  N12 UNL     1      29.750  39.816   2.125  1.00  0.00    -0.270 N 
ATOM     34  H11 UNL     1      29.136  39.169   0.226  1.00  0.00     0.210 HD
ATOM     35  H12 UNL     1      30.729  39.530   2.133  1.00  0.00     0.190 HD
ENDBRANCH  24  27
ENDBRANCH  23  24
ENDBRANCH  22  23
ENDBRANCH  21  22
TORSDOF 5
ENDMDL
