MODEL 1
REMARK VINA RESULT: -6.211627973      0.000      0.000
REMARK  6 active torsions:
REMARK  status: ('A' for Active; 'I' for Inactive)
REMARK       I    between atoms: N1_2  and  C2_4 
REMARK    1  A    between atoms: C2_4  and  C3_6 
REMARK    2  A    between atoms: C3_6  and  O2_7 
REMARK    3  A    between atoms: C5_13  and  C6_14 
REMARK    4  A    between atoms: C6_14  and  O3_15 
REMARK    5  A    between atoms: C6_14  and  C7_17 
REMARK    6  A    between atoms: C7_17  and  O4_18 
ROOT
HETATM    1  C3  UNL     1      28.140  42.135   2.495  1.00  0.00     0.347 C 
HETATM    2  N2  UNL     1      28.408  41.731   1.171  1.00  0.00    -0.257 N 
ATOM      3  H2  UNL     1      28.072  42.259   0.366  1.00  0.00     0.183 HD
HETATM    4  N3  UNL     1      29.170  40.551   1.027  1.00  0.00    -0.029 NA
HETATM    5  N4  UNL     1      30.134  40.674   2.028  1.00  0.00    -0.091 NA
HETATM    6  C5  UNL     1      29.389  40.330   3.242  1.00  0.00     0.273 C 
HETATM    7  O6  UNL     1      28.364  41.239   3.461  1.00  0.00    -0.303 OA
ENDROOT
BRANCH   6   8
HETATM    8  C6  UNL     1      30.267  40.352   4.439  1.00  0.00     0.238 C 
BRANCH   8   9
HETATM    9  O3  UNL     1      30.546  41.650   4.824  1.00  0.00    -0.385 OA
ATOM     10  H3  UNL     1      31.446  41.732   5.118  1.00  0.00     0.210 HD
ENDBRANCH   8   9
BRANCH   8  11
HETATM   11  C7  UNL     1      29.782  39.528   5.582  1.00  0.00     0.245 C 
HETATM   12  O5  UNL     1      30.877  38.896   6.193  1.00  0.00    -0.343 OA
HETATM   13  C8  UNL     1      30.533  38.513   7.455  1.00  0.00     0.187 C 
HETATM   14  C9  UNL     1      30.206  39.776   8.249  1.00  0.00     0.072 C 
HETATM   15  C10 UNL     1      31.434  40.528   8.651  1.00  0.00     0.024 C 
HETATM   16  S1  UNL     1      29.275  40.647   6.915  1.00  0.00    -0.093 SA
BRANCH  11  17
HETATM   17  O4  UNL     1      28.763  38.652   5.291  1.00  0.00    -0.355 OA
ATOM     18  H4  UNL     1      28.743  38.330   4.397  1.00  0.00     0.214 HD
ENDBRANCH  11  17
ENDBRANCH   8  11
ENDBRANCH   6   8
BRANCH   1  19
HETATM   19  C2  UNL     1      26.681  42.634   2.530  1.00  0.00     0.304 C 
HETATM   20  N1  UNL     1      26.398  43.381   3.747  1.00  0.00    -0.359 N 
HETATM   21  C1  UNL     1      25.073  43.921   3.852  1.00  0.00     0.149 C 
ATOM     22  H1  UNL     1      27.097  43.512   4.478  1.00  0.00     0.162 HD
HETATM   23  O1  UNL     1      25.898  42.420   1.623  1.00  0.00    -0.265 OA
ENDBRANCH   1  19
BRANCH   1  24
HETATM   24  O2  UNL     1      28.830  43.319   2.862  1.00  0.00    -0.335 OA
HETATM   25  C4  UNL     1      29.023  44.072   1.687  1.00  0.00     0.208 C 
ENDBRANCH   1  24
TORSDOF 6
ENDMDL
MODEL 2
REMARK VINA RESULT: -5.856349425      3.121      6.207
REMARK  6 active torsions:
REMARK  status: ('A' for Active; 'I' for Inactive)
REMARK       I    between atoms: N1_2  and  C2_4 
REMARK    1  A    between atoms: C2_4  and  C3_6 
REMARK    2  A    between atoms: C3_6  and  O2_7 
REMARK    3  A    between atoms: C5_13  and  C6_14 
REMARK    4  A    between atoms: C6_14  and  O3_15 
REMARK    5  A    between atoms: C6_14  and  C7_17 
REMARK    6  A    between atoms: C7_17  and  O4_18 
ROOT
HETATM    1  C3  UNL     1      29.860  39.801   7.033  1.00  0.00     0.347 C 
HETATM    2  N2  UNL     1      29.677  38.409   6.899  1.00  0.00    -0.257 N 
ATOM      3  H2  UNL     1      29.608  37.792   7.708  1.00  0.00     0.183 HD
HETATM    4  N3  UNL     1      29.593  37.921   5.577  1.00  0.00    -0.029 NA
HETATM    5  N4  UNL     1      28.821  38.888   4.933  1.00  0.00    -0.091 NA
HETATM    6  C5  UNL     1      29.774  39.981   4.724  1.00  0.00     0.273 C 
HETATM    7  O6  UNL     1      30.227  40.474   5.939  1.00  0.00    -0.303 OA
ENDROOT
BRANCH   6   8
HETATM    8  C6  UNL     1      29.148  41.111   3.991  1.00  0.00     0.238 C 
BRANCH   8   9
HETATM    9  O3  UNL     1      29.892  42.267   4.136  1.00  0.00    -0.385 OA
ATOM     10  H3  UNL     1      29.456  42.882   4.714  1.00  0.00     0.210 HD
ENDBRANCH   8   9
BRANCH   8  11
HETATM   11  C7  UNL     1      28.836  40.829   2.562  1.00  0.00     0.245 C 
HETATM   12  O5  UNL     1      27.448  40.928   2.365  1.00  0.00    -0.343 OA
HETATM   13  C8  UNL     1      27.192  41.110   1.038  1.00  0.00     0.187 C 
HETATM   14  C9  UNL     1      27.829  42.433   0.620  1.00  0.00     0.072 C 
HETATM   15  C10 UNL     1      27.043  43.616   1.088  1.00  0.00     0.024 C 
HETATM   16  S1  UNL     1      29.399  42.237   1.568  1.00  0.00    -0.093 SA
BRANCH  11  17
HETATM   17  O4  UNL     1      29.357  39.661   2.060  1.00  0.00    -0.355 OA
ATOM     18  H4  UNL     1      30.160  39.752   1.559  1.00  0.00     0.214 HD
ENDBRANCH  11  17
ENDBRANCH   8  11
ENDBRANCH   6   8
BRANCH   1  19
HETATM   19  C2  UNL     1      30.869  40.016   8.180  1.00  0.00     0.304 C 
HETATM   20  N1  UNL     1      30.523  39.227   9.354  1.00  0.00    -0.359 N 
HETATM   21  C1  UNL     1      31.429  39.332  10.462  1.00  0.00     0.149 C 
ATOM     22  H1  UNL     1      29.691  38.639   9.387  1.00  0.00     0.162 HD
HETATM   23  O1  UNL     1      31.832  40.753   8.071  1.00  0.00    -0.265 OA
ENDBRANCH   1  19
BRANCH   1  24
HETATM   24  O2  UNL     1      28.721  40.460   7.561  1.00  0.00    -0.335 OA
HETATM   25  C4  UNL     1      28.987  41.843   7.535  1.00  0.00     0.208 C 
ENDBRANCH   1  24
TORSDOF 6
ENDMDL
MODEL 3
REMARK VINA RESULT: -5.768872642      0.997      1.322
REMARK  6 active torsions:
REMARK  status: ('A' for Active; 'I' for Inactive)
REMARK       I    between atoms: N1_2  and  C2_4 
REMARK    1  A    between atoms: C2_4  and  C3_6 
REMARK    2  A    between atoms: C3_6  and  O2_7 
REMARK    3  A    between atoms: C5_13  and  C6_14 
REMARK    4  A    between atoms: C6_14  and  O3_15 
REMARK    5  A    between atoms: C6_14  and  C7_17 
REMARK    6  A    between atoms: C7_17  and  O4_18 
ROOT
HETATM    1  C3  UNL     1      28.116  41.885   2.067  1.00  0.00     0.347 C 
HETATM    2  N2  UNL     1      28.194  41.036   0.944  1.00  0.00    -0.257 N 
ATOM      3  H2  UNL     1      27.800  41.297   0.040  1.00  0.00     0.183 HD
HETATM    4  N3  UNL     1      28.853  39.804   1.145  1.00  0.00    -0.029 NA
HETATM    5  N4  UNL     1      29.936  40.153   1.951  1.00  0.00    -0.091 NA
HETATM    6  C5  UNL     1      29.322  40.314   3.271  1.00  0.00     0.273 C 
HETATM    7  O6  UNL     1      28.394  41.345   3.257  1.00  0.00    -0.303 OA
ENDROOT
BRANCH   6   8
HETATM    8  C6  UNL     1      30.338  40.643   4.304  1.00  0.00     0.238 C 
BRANCH   8   9
HETATM    9  O3  UNL     1      31.148  41.683   3.887  1.00  0.00    -0.385 OA
ATOM     10  H3  UNL     1      31.026  41.859   2.961  1.00  0.00     0.210 HD
ENDBRANCH   8   9
BRANCH   8  11
HETATM   11  C7  UNL     1      29.785  40.884   5.666  1.00  0.00     0.245 C 
HETATM   12  O5  UNL     1      29.140  39.720   6.114  1.00  0.00    -0.343 OA
HETATM   13  C8  UNL     1      29.022  39.762   7.472  1.00  0.00     0.187 C 
HETATM   14  C9  UNL     1      30.431  39.784   8.059  1.00  0.00     0.072 C 
HETATM   15  C10 UNL     1      31.088  38.441   8.007  1.00  0.00     0.024 C 
HETATM   16  S1  UNL     1      31.167  40.953   6.837  1.00  0.00    -0.093 SA
BRANCH  11  17
HETATM   17  O4  UNL     1      29.001  42.005   5.798  1.00  0.00    -0.355 OA
ATOM     18  H4  UNL     1      29.469  42.832   5.818  1.00  0.00     0.214 HD
ENDBRANCH  11  17
ENDBRANCH   8  11
ENDBRANCH   6   8
BRANCH   1  19
HETATM   19  C2  UNL     1      26.708  42.515   2.061  1.00  0.00     0.304 C 
HETATM   20  N1  UNL     1      26.448  43.260   3.285  1.00  0.00    -0.359 N 
HETATM   21  C1  UNL     1      25.175  43.918   3.353  1.00  0.00     0.149 C 
ATOM     22  H1  UNL     1      27.128  43.311   4.043  1.00  0.00     0.162 HD
HETATM   23  O1  UNL     1      25.944  42.393   1.121  1.00  0.00    -0.265 OA
ENDBRANCH   1  19
BRANCH   1  24
HETATM   24  O2  UNL     1      28.922  43.045   1.941  1.00  0.00    -0.335 OA
HETATM   25  C4  UNL     1      29.152  43.248   0.566  1.00  0.00     0.208 C 
ENDBRANCH   1  24
TORSDOF 6
ENDMDL
MODEL 4
REMARK VINA RESULT: -5.663506907      1.668      2.467
REMARK  6 active torsions:
REMARK  status: ('A' for Active; 'I' for Inactive)
REMARK       I    between atoms: N1_2  and  C2_4 
REMARK    1  A    between atoms: C2_4  and  C3_6 
REMARK    2  A    between atoms: C3_6  and  O2_7 
REMARK    3  A    between atoms: C5_13  and  C6_14 
REMARK    4  A    between atoms: C6_14  and  O3_15 
REMARK    5  A    between atoms: C6_14  and  C7_17 
REMARK    6  A    between atoms: C7_17  and  O4_18 
ROOT
HETATM    1  C3  UNL     1      28.149  41.627   2.581  1.00  0.00     0.347 C 
HETATM    2  N2  UNL     1      29.254  42.336   2.068  1.00  0.00    -0.257 N 
ATOM      3  H2  UNL     1      29.144  43.105   1.407  1.00  0.00     0.183 HD
HETATM    4  N3  UNL     1      30.523  41.918   2.523  1.00  0.00    -0.029 NA
HETATM    5  N4  UNL     1      30.304  41.666   3.878  1.00  0.00    -0.091 NA
HETATM    6  C5  UNL     1      29.618  40.371   3.861  1.00  0.00     0.273 C 
HETATM    7  O6  UNL     1      28.404  40.470   3.198  1.00  0.00    -0.303 OA
ENDROOT
BRANCH   6   8
HETATM    8  C6  UNL     1      29.336  39.891   5.238  1.00  0.00     0.238 C 
BRANCH   8   9
HETATM    9  O3  UNL     1      28.907  38.577   5.226  1.00  0.00    -0.385 OA
ATOM     10  H3  UNL     1      28.504  38.344   6.054  1.00  0.00     0.210 HD
ENDBRANCH   8   9
BRANCH   8  11
HETATM   11  C7  UNL     1      30.445  40.102   6.210  1.00  0.00     0.245 C 
HETATM   12  O5  UNL     1      30.191  41.265   6.955  1.00  0.00    -0.343 OA
HETATM   13  C8  UNL     1      30.926  41.237   8.103  1.00  0.00     0.187 C 
HETATM   14  C9  UNL     1      30.460  40.035   8.922  1.00  0.00     0.072 C 
HETATM   15  C10 UNL     1      29.145  40.278   9.591  1.00  0.00     0.024 C 
HETATM   16  S1  UNL     1      30.303  38.852   7.515  1.00  0.00    -0.093 SA
BRANCH  11  17
HETATM   17  O4  UNL     1      31.712  40.084   5.677  1.00  0.00    -0.355 OA
ATOM     18  H4  UNL     1      32.417  40.251   6.292  1.00  0.00     0.214 HD
ENDBRANCH  11  17
ENDBRANCH   8  11
ENDBRANCH   6   8
BRANCH   1  19
HETATM   19  C2  UNL     1      27.158  41.427   1.416  1.00  0.00     0.304 C 
HETATM   20  N1  UNL     1      27.737  41.836   0.144  1.00  0.00    -0.359 N 
HETATM   21  C1  UNL     1      26.901  41.650  -1.007  1.00  0.00     0.149 C 
ATOM     22  H1  UNL     1      28.675  42.229   0.076  1.00  0.00     0.162 HD
HETATM   23  O1  UNL     1      26.043  40.967   1.581  1.00  0.00    -0.265 OA
ENDBRANCH   1  19
BRANCH   1  24
HETATM   24  O2  UNL     1      27.358  42.402   3.467  1.00  0.00    -0.335 OA
HETATM   25  C4  UNL     1      27.520  43.753   3.099  1.00  0.00     0.208 C 
ENDBRANCH   1  24
TORSDOF 6
ENDMDL
MODEL 5
REMARK VINA RESULT: -5.438824857      2.955      6.169
REMARK  6 active torsions:
REMARK  status: ('A' for Active; 'I' for Inactive)
REMARK       I    between atoms: N1_2  and  C2_4 
REMARK    1  A    between atoms: C2_4  and  C3_6 
REMARK    2  A    between atoms: C3_6  and  O2_7 
REMARK    3  A    between atoms: C5_13  and  C6_14 
REMARK    4  A    between atoms: C6_14  and  O3_15 
REMARK    5  A    between atoms: C6_14  and  C7_17 
REMARK    6  A    between atoms: C7_17  and  O4_18 
ROOT
HETATM    1  C3  UNL     1      30.158  40.686   6.368  1.00  0.00     0.347 C 
HETATM    2  N2  UNL     1      29.991  39.289   6.465  1.00  0.00    -0.257 N 
ATOM      3  H2  UNL     1      30.055  38.797   7.356  1.00  0.00     0.183 HD
HETATM    4  N3  UNL     1      29.729  38.612   5.254  1.00  0.00    -0.029 NA
HETATM    5  N4  UNL     1      28.849  39.472   4.597  1.00  0.00    -0.091 NA
HETATM    6  C5  UNL     1      29.735  40.525   4.095  1.00  0.00     0.273 C 
HETATM    7  O6  UNL     1      30.347  41.192   5.146  1.00  0.00    -0.303 OA
ENDROOT
BRANCH   6   8
HETATM    8  C6  UNL     1      28.983  41.534   3.305  1.00  0.00     0.238 C 
BRANCH   8   9
HETATM    9  O3  UNL     1      29.469  42.807   3.538  1.00  0.00    -0.385 OA
ATOM     10  H3  UNL     1      29.507  42.991   4.469  1.00  0.00     0.210 HD
ENDBRANCH   8   9
BRANCH   8  11
HETATM   11  C7  UNL     1      28.884  41.236   1.849  1.00  0.00     0.245 C 
HETATM   12  O5  UNL     1      27.534  41.061   1.504  1.00  0.00    -0.343 OA
HETATM   13  C8  UNL     1      27.385  41.226   0.159  1.00  0.00     0.187 C 
HETATM   14  C9  UNL     1      27.781  42.662  -0.178  1.00  0.00     0.072 C 
HETATM   15  C10 UNL     1      26.727  43.648   0.212  1.00  0.00     0.024 C 
HETATM   16  S1  UNL     1      29.251  42.757   0.932  1.00  0.00    -0.093 SA
BRANCH  11  17
HETATM   17  O4  UNL     1      29.681  40.211   1.397  1.00  0.00    -0.355 OA
ATOM     18  H4  UNL     1      29.310  39.681   0.701  1.00  0.00     0.214 HD
ENDBRANCH  11  17
ENDBRANCH   8  11
ENDBRANCH   6   8
BRANCH   1  19
HETATM   19  C2  UNL     1      31.317  41.070   7.311  1.00  0.00     0.304 C 
HETATM   20  N1  UNL     1      31.812  42.410   7.034  1.00  0.00    -0.359 N 
HETATM   21  C1  UNL     1      32.868  42.872   7.890  1.00  0.00     0.149 C 
ATOM     22  H1  UNL     1      31.434  42.984   6.281  1.00  0.00     0.162 HD
HETATM   23  O1  UNL     1      31.727  40.319   8.178  1.00  0.00    -0.265 OA
ENDBRANCH   1  19
BRANCH   1  24
HETATM   24  O2  UNL     1      29.092  41.412   6.956  1.00  0.00    -0.335 OA
HETATM   25  C4  UNL     1      28.719  40.732   8.132  1.00  0.00     0.208 C 
ENDBRANCH   1  24
TORSDOF 6
ENDMDL
