MODEL 1
REMARK VINA RESULT: -7.382033860      0.000      0.000
REMARK  7 active torsions:
REMARK  status: ('A' for Active; 'I' for Inactive)
REMARK    1  A    between atoms: C3_6  and  N3_7 
REMARK    2  A    between atoms: N3_7  and  C4_8 
REMARK       I    between atoms: N3_7  and  C7_19 
REMARK    3  A    between atoms: C4_8  and  C5_9 
REMARK       I    between atoms: C5_9  and  N4_11 
REMARK    4  A    between atoms: N4_11  and  O2_12 
REMARK    5  A    between atoms: N4_11  and  C6_14 
REMARK    6  A    between atoms: C6_14  and  N5_15 
REMARK    7  A    between atoms: C8_25  and  N9_26 
ROOT
HETATM    1  N1  UNL     1      26.009  45.327   5.084  1.00  0.00    -0.190 NA
HETATM    2  C1  UNL     1      26.657  44.441   4.713  1.00  0.00     0.120 C 
HETATM    3  C2  UNL     1      27.458  43.316   4.263  1.00  0.00     0.154 A 
HETATM    4  N2  UNL     1      28.459  42.826   4.974  1.00  0.00    -0.178 N 
ATOM      5  H2  UNL     1      28.658  43.274   5.869  1.00  0.00     0.185 HD
HETATM    6  C3  UNL     1      29.256  41.767   4.613  1.00  0.00     0.713 A 
HETATM    7  N7  UNL     1      28.981  41.194   3.438  1.00  0.00    -0.053 N 
HETATM    8  N8  UNL     1      29.515  40.180   2.787  1.00  0.00    -0.109 N 
ATOM      9  H8  UNL     1      30.304  39.635   3.132  1.00  0.00     0.207 HD
HETATM   10  C8  UNL     1      28.893  39.947   1.608  1.00  0.00     0.693 A 
HETATM   11  N10 UNL     1      27.932  40.865   1.539  1.00  0.00    -0.172 N 
ATOM     12  H10 UNL     1      27.272  40.968   0.768  1.00  0.00     0.186 HD
HETATM   13  C9  UNL     1      27.961  41.638   2.640  1.00  0.00     0.185 A 
HETATM   14  C10 UNL     1      27.198  42.704   3.057  1.00  0.00     0.129 A 
HETATM   15  C11 UNL     1      26.135  43.161   2.215  1.00  0.00     0.106 C 
HETATM   16  N11 UNL     1      25.272  43.516   1.515  1.00  0.00    -0.191 NA
ENDROOT
BRANCH   6  17
HETATM   17  N3  UNL     1      30.281  41.350   5.476  1.00  0.00    -0.124 N 
HETATM   18  C7  UNL     1      30.716  42.372   6.434  1.00  0.00     0.349 C 
HETATM   19  N6  UNL     1      31.747  42.072   7.365  1.00  0.00    -0.039 NA
HETATM   20  O3  UNL     1      30.222  43.501   6.475  1.00  0.00    -0.250 OA
BRANCH  17  21
HETATM   21  C4  UNL     1      30.964  40.121   5.632  1.00  0.00     0.257 C 
BRANCH  21  22
HETATM   22  C5  UNL     1      30.035  39.054   6.122  1.00  0.00     0.263 C 
HETATM   23  O1  UNL     1      29.161  38.572   5.352  1.00  0.00    -0.269 OA
HETATM   24  N4  UNL     1      30.077  38.532   7.443  1.00  0.00    -0.202 N 
BRANCH  24  25
HETATM   25  O2  UNL     1      29.218  37.559   7.862  1.00  0.00    -0.283 OA
ATOM     26  H2  UNL     1      29.290  36.661   7.559  1.00  0.00     0.245 HD
ENDBRANCH  24  25
BRANCH  24  27
HETATM   27  C6  UNL     1      31.056  39.052   8.358  1.00  0.00     0.387 C 
BRANCH  27  28
HETATM   28  N5  UNL     1      32.108  38.078   8.583  1.00  0.00    -0.061 N 
ATOM     29  H53 UNL     1      32.716  38.348   9.356  1.00  0.00     0.276 HD
ATOM     30  H52 UNL     1      31.743  37.209   8.974  1.00  0.00     0.276 HD
ATOM     31  H51 UNL     1      32.634  37.916   7.724  1.00  0.00     0.276 HD
ENDBRANCH  27  28
ENDBRANCH  24  27
ENDBRANCH  21  22
ENDBRANCH  17  21
ENDBRANCH   6  17
BRANCH  10  32
HETATM   32  N9  UNL     1      29.176  39.032   0.742  1.00  0.00    -0.233 N 
ATOM     33  H92 UNL     1      30.082  38.831   0.319  1.00  0.00     0.174 HD
ATOM     34  H91 UNL     1      28.538  38.351   0.332  1.00  0.00     0.174 HD
ENDBRANCH  10  32
TORSDOF 7
ENDMDL
MODEL 2
REMARK VINA RESULT: -7.138431518      2.760      6.337
REMARK  7 active torsions:
REMARK  status: ('A' for Active; 'I' for Inactive)
REMARK    1  A    between atoms: C3_6  and  N3_7 
REMARK    2  A    between atoms: N3_7  and  C4_8 
REMARK       I    between atoms: N3_7  and  C7_19 
REMARK    3  A    between atoms: C4_8  and  C5_9 
REMARK       I    between atoms: C5_9  and  N4_11 
REMARK    4  A    between atoms: N4_11  and  O2_12 
REMARK    5  A    between atoms: N4_11  and  C6_14 
REMARK    6  A    between atoms: C6_14  and  N5_15 
REMARK    7  A    between atoms: C8_25  and  N9_26 
ROOT
HETATM    1  N1  UNL     1      26.548  41.422  10.590  1.00  0.00    -0.190 NA
HETATM    2  C1  UNL     1      27.526  41.418   9.969  1.00  0.00     0.120 C 
HETATM    3  C2  UNL     1      28.742  41.425   9.174  1.00  0.00     0.154 A 
HETATM    4  N2  UNL     1      28.910  40.640   8.124  1.00  0.00    -0.178 N 
ATOM      5  H2  UNL     1      28.141  40.013   7.884  1.00  0.00     0.185 HD
HETATM    6  C3  UNL     1      30.028  40.594   7.328  1.00  0.00     0.713 A 
HETATM    7  N7  UNL     1      31.022  41.422   7.658  1.00  0.00    -0.053 N 
HETATM    8  N8  UNL     1      32.210  41.651   7.135  1.00  0.00    -0.109 N 
ATOM      9  H8  UNL     1      32.573  41.168   6.313  1.00  0.00     0.207 HD
HETATM   10  C8  UNL     1      32.892  42.602   7.815  1.00  0.00     0.693 A 
HETATM   11  N10 UNL     1      32.077  42.970   8.801  1.00  0.00    -0.172 N 
ATOM     12  H10 UNL     1      32.289  43.678   9.505  1.00  0.00     0.186 HD
HETATM   13  C9  UNL     1      30.931  42.269   8.730  1.00  0.00     0.185 A 
HETATM   14  C10 UNL     1      29.784  42.268   9.490  1.00  0.00     0.129 A 
HETATM   15  C11 UNL     1      29.699  43.156  10.608  1.00  0.00     0.106 C 
HETATM   16  N11 UNL     1      29.649  43.890  11.515  1.00  0.00    -0.191 NA
ENDROOT
BRANCH   6  17
HETATM   17  N3  UNL     1      30.061  39.712   6.237  1.00  0.00    -0.124 N 
HETATM   18  C7  UNL     1      29.857  38.304   6.592  1.00  0.00     0.349 C 
HETATM   19  N6  UNL     1      29.867  37.311   5.575  1.00  0.00    -0.039 NA
HETATM   20  O3  UNL     1      29.674  37.929   7.753  1.00  0.00    -0.250 OA
BRANCH  17  21
HETATM   21  C4  UNL     1      30.220  39.913   4.845  1.00  0.00     0.257 C 
BRANCH  21  22
HETATM   22  C5  UNL     1      29.336  41.020   4.361  1.00  0.00     0.263 C 
HETATM   23  O1  UNL     1      28.836  41.835   5.183  1.00  0.00    -0.269 OA
HETATM   24  N4  UNL     1      29.015  41.217   2.991  1.00  0.00    -0.202 N 
BRANCH  24  25
HETATM   25  O2  UNL     1      28.207  42.236   2.580  1.00  0.00    -0.283 OA
ATOM     26  H2  UNL     1      27.586  42.128   1.868  1.00  0.00     0.245 HD
ENDBRANCH  24  25
BRANCH  24  27
HETATM   27  C6  UNL     1      29.562  40.311   2.019  1.00  0.00     0.387 C 
BRANCH  27  28
HETATM   28  N5  UNL     1      28.523  39.845   1.120  1.00  0.00    -0.061 N 
ATOM     29  H53 UNL     1      27.812  39.302   1.611  1.00  0.00     0.276 HD
ATOM     30  H52 UNL     1      27.931  40.610   0.795  1.00  0.00     0.276 HD
ATOM     31  H51 UNL     1      28.930  39.324   0.343  1.00  0.00     0.276 HD
ENDBRANCH  27  28
ENDBRANCH  24  27
ENDBRANCH  21  22
ENDBRANCH  17  21
ENDBRANCH   6  17
BRANCH  10  32
HETATM   32  N9  UNL     1      34.076  43.050   7.559  1.00  0.00    -0.233 N 
ATOM     33  H92 UNL     1      34.330  43.834   6.959  1.00  0.00     0.174 HD
ATOM     34  H91 UNL     1      34.963  42.692   7.914  1.00  0.00     0.174 HD
ENDBRANCH  10  32
TORSDOF 7
ENDMDL
MODEL 3
REMARK VINA RESULT: -7.133015012      2.464      3.967
REMARK  7 active torsions:
REMARK  status: ('A' for Active; 'I' for Inactive)
REMARK    1  A    between atoms: C3_6  and  N3_7 
REMARK    2  A    between atoms: N3_7  and  C4_8 
REMARK       I    between atoms: N3_7  and  C7_19 
REMARK    3  A    between atoms: C4_8  and  C5_9 
REMARK       I    between atoms: C5_9  and  N4_11 
REMARK    4  A    between atoms: N4_11  and  O2_12 
REMARK    5  A    between atoms: N4_11  and  C6_14 
REMARK    6  A    between atoms: C6_14  and  N5_15 
REMARK    7  A    between atoms: C8_25  and  N9_26 
ROOT
HETATM    1  N1  UNL     1      28.728  43.579   1.005  1.00  0.00    -0.190 NA
HETATM    2  C1  UNL     1      28.839  42.995   2.000  1.00  0.00     0.120 C 
HETATM    3  C2  UNL     1      28.955  42.267   3.251  1.00  0.00     0.154 A 
HETATM    4  N2  UNL     1      28.910  42.865   4.429  1.00  0.00    -0.178 N 
ATOM      5  H2  UNL     1      28.790  43.878   4.433  1.00  0.00     0.185 HD
HETATM    6  C3  UNL     1      29.011  42.242   5.649  1.00  0.00     0.713 A 
HETATM    7  N7  UNL     1      29.168  40.916   5.624  1.00  0.00    -0.053 N 
HETATM    8  N8  UNL     1      29.291  40.008   6.572  1.00  0.00    -0.109 N 
ATOM      9  H8  UNL     1      29.285  40.222   7.569  1.00  0.00     0.207 HD
HETATM   10  C8  UNL     1      29.425  38.759   6.068  1.00  0.00     0.693 A 
HETATM   11  N10 UNL     1      29.380  38.915   4.747  1.00  0.00    -0.172 N 
ATOM     12  H10 UNL     1      29.453  38.161   4.063  1.00  0.00     0.186 HD
HETATM   13  C9  UNL     1      29.223  40.217   4.447  1.00  0.00     0.185 A 
HETATM   14  C10 UNL     1      29.116  40.900   3.257  1.00  0.00     0.129 A 
HETATM   15  C11 UNL     1      29.176  40.161   2.033  1.00  0.00     0.106 C 
HETATM   16  N11 UNL     1      29.225  39.540   1.046  1.00  0.00    -0.191 NA
ENDROOT
BRANCH   6  17
HETATM   17  N3  UNL     1      28.938  43.008   6.823  1.00  0.00    -0.124 N 
HETATM   18  C7  UNL     1      27.734  43.837   6.928  1.00  0.00     0.349 C 
HETATM   19  N6  UNL     1      27.541  44.659   8.072  1.00  0.00    -0.039 NA
HETATM   20  O3  UNL     1      26.861  43.860   6.057  1.00  0.00    -0.250 OA
BRANCH  17  21
HETATM   21  C4  UNL     1      29.784  43.117   7.951  1.00  0.00     0.257 C 
BRANCH  21  22
HETATM   22  C5  UNL     1      31.224  43.035   7.548  1.00  0.00     0.263 C 
HETATM   23  O1  UNL     1      31.706  43.880   6.747  1.00  0.00    -0.269 OA
HETATM   24  N4  UNL     1      32.110  42.033   8.028  1.00  0.00    -0.202 N 
BRANCH  24  25
HETATM   25  O2  UNL     1      33.418  41.983   7.644  1.00  0.00    -0.283 OA
ATOM     26  H2  UNL     1      33.799  41.202   7.261  1.00  0.00     0.245 HD
ENDBRANCH  24  25
BRANCH  24  27
HETATM   27  C6  UNL     1      31.605  41.047   8.943  1.00  0.00     0.387 C 
BRANCH  27  28
HETATM   28  N5  UNL     1      31.971  39.714   8.505  1.00  0.00    -0.061 N 
ATOM     29  H53 UNL     1      31.211  39.259   7.998  1.00  0.00     0.276 HD
ATOM     30  H52 UNL     1      32.661  39.737   7.754  1.00  0.00     0.276 HD
ATOM     31  H51 UNL     1      32.289  39.153   9.296  1.00  0.00     0.276 HD
ENDBRANCH  27  28
ENDBRANCH  24  27
ENDBRANCH  21  22
ENDBRANCH  17  21
ENDBRANCH   6  17
BRANCH  10  32
HETATM   32  N9  UNL     1      29.566  37.660   6.730  1.00  0.00    -0.233 N 
ATOM     33  H92 UNL     1      28.891  36.902   6.833  1.00  0.00     0.174 HD
ATOM     34  H91 UNL     1      30.380  37.361   7.266  1.00  0.00     0.174 HD
ENDBRANCH  10  32
TORSDOF 7
ENDMDL
MODEL 4
REMARK VINA RESULT: -7.079636789      3.915      7.005
REMARK  7 active torsions:
REMARK  status: ('A' for Active; 'I' for Inactive)
REMARK    1  A    between atoms: C3_6  and  N3_7 
REMARK    2  A    between atoms: N3_7  and  C4_8 
REMARK       I    between atoms: N3_7  and  C7_19 
REMARK    3  A    between atoms: C4_8  and  C5_9 
REMARK       I    between atoms: C5_9  and  N4_11 
REMARK    4  A    between atoms: N4_11  and  O2_12 
REMARK    5  A    between atoms: N4_11  and  C6_14 
REMARK    6  A    between atoms: C6_14  and  N5_15 
REMARK    7  A    between atoms: C8_25  and  N9_26 
ROOT
HETATM    1  N1  UNL     1      32.593  39.370  12.769  1.00  0.00    -0.190 NA
HETATM    2  C1  UNL     1      31.947  39.460  11.811  1.00  0.00     0.120 C 
HETATM    3  C2  UNL     1      31.152  39.591  10.603  1.00  0.00     0.154 A 
HETATM    4  N2  UNL     1      30.207  40.507  10.470  1.00  0.00    -0.178 N 
ATOM      5  H2  UNL     1      30.050  41.133  11.261  1.00  0.00     0.185 HD
HETATM    6  C3  UNL     1      29.418  40.690   9.361  1.00  0.00     0.713 A 
HETATM    7  N7  UNL     1      29.639  39.862   8.336  1.00  0.00    -0.053 N 
HETATM    8  N8  UNL     1      29.094  39.747   7.142  1.00  0.00    -0.109 N 
ATOM      9  H8  UNL     1      28.341  40.344   6.800  1.00  0.00     0.207 HD
HETATM   10  C8  UNL     1      29.651  38.746   6.421  1.00  0.00     0.693 A 
HETATM   11  N10 UNL     1      30.582  38.226   7.218  1.00  0.00    -0.172 N 
ATOM     12  H10 UNL     1      31.193  37.445   6.976  1.00  0.00     0.186 HD
HETATM   13  C9  UNL     1      30.598  38.886   8.390  1.00  0.00     0.185 A 
HETATM   14  C10 UNL     1      31.356  38.753   9.531  1.00  0.00     0.129 A 
HETATM   15  C11 UNL     1      32.355  37.729   9.577  1.00  0.00     0.106 C 
HETATM   16  N11 UNL     1      33.165  36.890   9.594  1.00  0.00    -0.191 NA
ENDROOT
BRANCH   6  17
HETATM   17  N3  UNL     1      28.458  41.713   9.359  1.00  0.00    -0.124 N 
HETATM   18  C7  UNL     1      27.221  41.380  10.073  1.00  0.00     0.349 C 
HETATM   19  N6  UNL     1      26.170  42.335  10.145  1.00  0.00    -0.039 NA
HETATM   20  O3  UNL     1      27.042  40.292  10.626  1.00  0.00    -0.250 OA
BRANCH  17  21
HETATM   21  C4  UNL     1      28.454  43.025   8.831  1.00  0.00     0.257 C 
BRANCH  21  22
HETATM   22  C5  UNL     1      29.299  43.106   7.597  1.00  0.00     0.263 C 
HETATM   23  O1  UNL     1      28.814  42.792   6.477  1.00  0.00    -0.269 OA
HETATM   24  N4  UNL     1      30.656  43.527   7.609  1.00  0.00    -0.202 N 
BRANCH  24  25
HETATM   25  O2  UNL     1      31.401  43.590   6.468  1.00  0.00    -0.283 OA
ATOM     26  H2  UNL     1      32.112  44.213   6.367  1.00  0.00     0.245 HD
ENDBRANCH  24  25
BRANCH  24  27
HETATM   27  C6  UNL     1      31.253  43.892   8.864  1.00  0.00     0.387 C 
BRANCH  27  28
HETATM   28  N5  UNL     1      32.363  43.012   9.174  1.00  0.00    -0.061 N 
ATOM     29  H53 UNL     1      32.298  42.637  10.120  1.00  0.00     0.276 HD
ATOM     30  H52 UNL     1      32.305  42.134   8.659  1.00  0.00     0.276 HD
ATOM     31  H51 UNL     1      33.251  43.488   9.014  1.00  0.00     0.276 HD
ENDBRANCH  27  28
ENDBRANCH  24  27
ENDBRANCH  21  22
ENDBRANCH  17  21
ENDBRANCH   6  17
BRANCH  10  32
HETATM   32  N9  UNL     1      29.342  38.380   5.222  1.00  0.00    -0.233 N 
ATOM     33  H92 UNL     1      28.888  38.935   4.497  1.00  0.00     0.174 HD
ATOM     34  H91 UNL     1      29.499  37.467   4.795  1.00  0.00     0.174 HD
ENDBRANCH  10  32
TORSDOF 7
ENDMDL
MODEL 5
REMARK VINA RESULT: -7.019928344      3.542      7.158
REMARK  7 active torsions:
REMARK  status: ('A' for Active; 'I' for Inactive)
REMARK    1  A    between atoms: C3_6  and  N3_7 
REMARK    2  A    between atoms: N3_7  and  C4_8 
REMARK       I    between atoms: N3_7  and  C7_19 
REMARK    3  A    between atoms: C4_8  and  C5_9 
REMARK       I    between atoms: C5_9  and  N4_11 
REMARK    4  A    between atoms: N4_11  and  O2_12 
REMARK    5  A    between atoms: N4_11  and  C6_14 
REMARK    6  A    between atoms: C6_14  and  N5_15 
REMARK    7  A    between atoms: C8_25  and  N9_26 
ROOT
HETATM    1  N1  UNL     1      32.595  39.512  12.909  1.00  0.00    -0.190 NA
HETATM    2  C1  UNL     1      31.967  39.519  11.936  1.00  0.00     0.120 C 
HETATM    3  C2  UNL     1      31.193  39.547  10.707  1.00  0.00     0.154 A 
HETATM    4  N2  UNL     1      30.234  40.432  10.491  1.00  0.00    -0.178 N 
ATOM      5  H2  UNL     1      30.051  41.110  11.231  1.00  0.00     0.185 HD
HETATM    6  C3  UNL     1      29.464  40.518   9.357  1.00  0.00     0.713 A 
HETATM    7  N7  UNL     1      29.719  39.622   8.400  1.00  0.00    -0.053 N 
HETATM    8  N8  UNL     1      29.200  39.410   7.207  1.00  0.00    -0.109 N 
ATOM      9  H8  UNL     1      28.443  39.965   6.809  1.00  0.00     0.207 HD
HETATM   10  C8  UNL     1      29.789  38.370   6.572  1.00  0.00     0.693 A 
HETATM   11  N10 UNL     1      30.714  37.928   7.421  1.00  0.00    -0.172 N 
ATOM     12  H10 UNL     1      31.343  37.144   7.248  1.00  0.00     0.186 HD
HETATM   13  C9  UNL     1      30.695  38.672   8.542  1.00  0.00     0.185 A 
HETATM   14  C10 UNL     1      31.433  38.637   9.703  1.00  0.00     0.129 A 
HETATM   15  C11 UNL     1      32.449  37.640   9.842  1.00  0.00     0.106 C 
HETATM   16  N11 UNL     1      33.275  36.819   9.935  1.00  0.00    -0.191 NA
ENDROOT
BRANCH   6  17
HETATM   17  N3  UNL     1      28.485  41.519   9.263  1.00  0.00    -0.124 N 
HETATM   18  C7  UNL     1      27.338  41.327  10.156  1.00  0.00     0.349 C 
HETATM   19  N6  UNL     1      26.279  42.274  10.157  1.00  0.00    -0.039 NA
HETATM   20  O3  UNL     1      27.243  40.365  10.923  1.00  0.00    -0.250 OA
BRANCH  17  21
HETATM   21  C4  UNL     1      28.396  42.705   8.497  1.00  0.00     0.257 C 
BRANCH  21  22
HETATM   22  C5  UNL     1      29.758  43.243   8.186  1.00  0.00     0.263 C 
HETATM   23  O1  UNL     1      30.403  43.879   9.062  1.00  0.00    -0.269 OA
HETATM   24  N4  UNL     1      30.391  43.075   6.925  1.00  0.00    -0.202 N 
BRANCH  24  25
HETATM   25  O2  UNL     1      31.634  43.576   6.670  1.00  0.00    -0.283 OA
ATOM     26  H2  UNL     1      31.984  43.626   5.788  1.00  0.00     0.245 HD
ENDBRANCH  24  25
BRANCH  24  27
HETATM   27  C6  UNL     1      29.694  42.358   5.894  1.00  0.00     0.387 C 
BRANCH  27  28
HETATM   28  N5  UNL     1      30.627  41.592   5.089  1.00  0.00    -0.061 N 
ATOM     29  H53 UNL     1      31.340  42.186   4.666  1.00  0.00     0.276 HD
ATOM     30  H52 UNL     1      31.236  41.011   5.664  1.00  0.00     0.276 HD
ATOM     31  H51 UNL     1      30.127  41.042   4.390  1.00  0.00     0.276 HD
ENDBRANCH  27  28
ENDBRANCH  24  27
ENDBRANCH  21  22
ENDBRANCH  17  21
ENDBRANCH   6  17
BRANCH  10  32
HETATM   32  N9  UNL     1      29.510  37.912   5.397  1.00  0.00    -0.233 N 
ATOM     33  H92 UNL     1      29.619  36.956   5.058  1.00  0.00     0.174 HD
ATOM     34  H91 UNL     1      29.132  38.431   4.605  1.00  0.00     0.174 HD
ENDBRANCH  10  32
TORSDOF 7
ENDMDL
