MODEL 1
REMARK VINA RESULT: -6.777813273      0.000      0.000
REMARK  8 active torsions:
REMARK  status: ('A' for Active; 'I' for Inactive)
REMARK    1  A    between atoms: O1_2  and  C2_3 
REMARK    2  A    between atoms: C3_6  and  N2_7 
REMARK    3  A    between atoms: C5_14  and  C6_15 
REMARK    4  A    between atoms: C7_20  and  S1_21 
REMARK    5  A    between atoms: S1_21  and  N6_22 
REMARK       I    between atoms: N6_22  and  C8_24 
REMARK    6  A    between atoms: C8_24  and  C9_26 
REMARK    7  A    between atoms: C10_27  and  N7_28 
REMARK    8  A    between atoms: N8_31  and  N9_32 
ROOT
HETATM    1  C6  UNL     1      31.379  39.223   8.573  1.00  0.00     0.164 A 
HETATM    2  N4  UNL     1      31.921  40.340   8.065  1.00  0.00    -0.281 N 
ATOM      3  H4  UNL     1      32.638  40.909   8.515  1.00  0.00     0.188 HD
HETATM    4  N5  UNL     1      31.375  40.583   6.892  1.00  0.00    -0.275 N 
ATOM      5  H5  UNL     1      31.608  41.376   6.294  1.00  0.00     0.189 HD
HETATM    6  C7  UNL     1      30.448  39.619   6.587  1.00  0.00     0.203 A 
HETATM    7  N8  UNL     1      30.478  38.796   7.651  1.00  0.00    -0.219 N 
ENDROOT
BRANCH   1   8
HETATM    8  C5  UNL     1      31.678  38.603   9.862  1.00  0.00     0.131 A 
HETATM    9  C2  UNL     1      31.116  39.007  11.049  1.00  0.00     0.176 A 
HETATM   10  N1  UNL     1      31.440  38.390  12.204  1.00  0.00    -0.170 N 
HETATM   11  C3  UNL     1      32.302  37.378  12.276  1.00  0.00     0.680 A 
ATOM     12  H1  UNL     1      31.003  38.717  13.066  1.00  0.00     0.186 HD
HETATM   13  N3  UNL     1      32.876  36.957  11.124  1.00  0.00    -0.155 N 
HETATM   14  C4  UNL     1      32.574  37.548   9.960  1.00  0.00     0.278 A 
ATOM     15  H3  UNL     1      33.541  36.184  11.142  1.00  0.00     0.187 HD
HETATM   16  O2  UNL     1      33.111  37.148   8.902  1.00  0.00    -0.266 OA
BRANCH   9  17
HETATM   17  O1  UNL     1      30.208  40.067  11.022  1.00  0.00    -0.340 OA
HETATM   18  C1  UNL     1      29.550  40.384  12.233  1.00  0.00     0.211 C 
ENDBRANCH   9  17
BRANCH  11  19
HETATM   19  N2  UNL     1      32.628  36.765  13.366  1.00  0.00    -0.234 N 
ATOM     20  H22 UNL     1      32.241  35.833  13.517  1.00  0.00     0.174 HD
ATOM     21  H21 UNL     1      33.240  37.147  14.088  1.00  0.00     0.174 HD
ENDBRANCH  11  19
ENDBRANCH   1   8
BRANCH   7  22
HETATM   22  N9  UNL     1      29.681  37.671   7.812  1.00  0.00    -0.335 N 
ATOM     23  H92 UNL     1      29.043  37.511   8.592  1.00  0.00     0.177 HD
ATOM     24  H91 UNL     1      29.674  36.881   7.166  1.00  0.00     0.177 HD
ENDBRANCH   7  22
BRANCH   6  25
HETATM   25  S1  UNL     1      29.458  39.607   5.110  1.00  0.00     0.029 SA
BRANCH  25  26
HETATM   26  N6  UNL     1      29.744  40.936   4.051  1.00  0.00    -0.283 N 
HETATM   27  C8  UNL     1      29.426  40.950   2.698  1.00  0.00     0.308 C 
HETATM   28  O3  UNL     1      28.890  39.968   2.141  1.00  0.00    -0.257 OA
ATOM     29  H6  UNL     1      30.177  41.772   4.446  1.00  0.00     0.178 HD
BRANCH  27  30
HETATM   30  C9  UNL     1      29.689  42.088   1.837  1.00  0.00     0.018 C 
HETATM   31  C10 UNL     1      29.908  43.036   1.097  1.00  0.00     0.013 C 
BRANCH  31  32
HETATM   32  N7  UNL     1      30.171  44.100   0.243  1.00  0.00    -0.359 N 
ATOM     33  H72 UNL     1      29.433  43.420   0.429  1.00  0.00     0.166 HD
ATOM     34  H71 UNL     1      30.379  44.883  -0.376  1.00  0.00     0.166 HD
ENDBRANCH  31  32
ENDBRANCH  27  30
ENDBRANCH  25  26
ENDBRANCH   6  25
TORSDOF 8
ENDMDL
MODEL 2
REMARK VINA RESULT: -6.763037461      2.092      2.376
REMARK  8 active torsions:
REMARK  status: ('A' for Active; 'I' for Inactive)
REMARK    1  A    between atoms: O1_2  and  C2_3 
REMARK    2  A    between atoms: C3_6  and  N2_7 
REMARK    3  A    between atoms: C5_14  and  C6_15 
REMARK    4  A    between atoms: C7_20  and  S1_21 
REMARK    5  A    between atoms: S1_21  and  N6_22 
REMARK       I    between atoms: N6_22  and  C8_24 
REMARK    6  A    between atoms: C8_24  and  C9_26 
REMARK    7  A    between atoms: C10_27  and  N7_28 
REMARK    8  A    between atoms: N8_31  and  N9_32 
ROOT
HETATM    1  C6  UNL     1      30.331  39.952   9.322  1.00  0.00     0.164 A 
HETATM    2  N4  UNL     1      29.002  40.079   9.456  1.00  0.00    -0.281 N 
ATOM      3  H4  UNL     1      28.421  39.570  10.121  1.00  0.00     0.188 HD
HETATM    4  N5  UNL     1      28.571  40.969   8.587  1.00  0.00    -0.275 N 
ATOM      5  H5  UNL     1      27.596  41.252   8.479  1.00  0.00     0.189 HD
HETATM    6  C7  UNL     1      29.616  41.463   7.848  1.00  0.00     0.203 A 
HETATM    7  N8  UNL     1      30.689  40.808   8.332  1.00  0.00    -0.219 N 
ENDROOT
BRANCH   1   8
HETATM    8  C5  UNL     1      31.212  39.058  10.071  1.00  0.00     0.131 A 
HETATM    9  C2  UNL     1      31.458  39.183  11.417  1.00  0.00     0.176 A 
HETATM   10  N1  UNL     1      32.286  38.323  12.045  1.00  0.00    -0.170 N 
HETATM   11  C3  UNL     1      32.908  37.322  11.425  1.00  0.00     0.680 A 
ATOM     12  H1  UNL     1      32.444  38.446  13.045  1.00  0.00     0.186 HD
HETATM   13  N3  UNL     1      32.688  37.172  10.096  1.00  0.00    -0.155 N 
HETATM   14  C4  UNL     1      31.871  38.010   9.445  1.00  0.00     0.278 A 
ATOM     15  H3  UNL     1      33.148  36.416   9.589  1.00  0.00     0.187 HD
HETATM   16  O2  UNL     1      31.677  37.859   8.216  1.00  0.00    -0.266 OA
BRANCH   9  17
HETATM   17  O1  UNL     1      30.830  40.221  12.108  1.00  0.00    -0.340 OA
HETATM   18  C1  UNL     1      29.846  39.861  13.058  1.00  0.00     0.211 C 
ENDBRANCH   9  17
BRANCH  11  19
HETATM   19  N2  UNL     1      33.702  36.479  11.999  1.00  0.00    -0.234 N 
ATOM     20  H22 UNL     1      34.319  36.834  12.730  1.00  0.00     0.174 HD
ATOM     21  H21 UNL     1      33.758  35.486  11.773  1.00  0.00     0.174 HD
ENDBRANCH  11  19
ENDBRANCH   1   8
BRANCH   7  22
HETATM   22  N9  UNL     1      31.989  40.959   7.871  1.00  0.00    -0.335 N 
ATOM     23  H92 UNL     1      32.507  40.259   7.339  1.00  0.00     0.177 HD
ATOM     24  H91 UNL     1      32.561  41.786   8.040  1.00  0.00     0.177 HD
ENDBRANCH   7  22
BRANCH   6  25
HETATM   25  S1  UNL     1      29.448  42.655   6.540  1.00  0.00     0.029 SA
BRANCH  25  26
HETATM   26  N6  UNL     1      29.063  41.977   5.004  1.00  0.00    -0.283 N 
HETATM   27  C8  UNL     1      29.835  41.028   4.344  1.00  0.00     0.308 C 
HETATM   28  O3  UNL     1      30.893  40.584   4.840  1.00  0.00    -0.257 OA
ATOM     29  H6  UNL     1      28.208  42.294   4.547  1.00  0.00     0.178 HD
BRANCH  27  30
HETATM   30  C9  UNL     1      29.479  40.484   3.046  1.00  0.00     0.018 C 
HETATM   31  C10 UNL     1      29.167  40.017   1.962  1.00  0.00     0.013 C 
BRANCH  31  32
HETATM   32  N7  UNL     1      28.809  39.465   0.738  1.00  0.00    -0.359 N 
ATOM     33  H72 UNL     1      29.314  39.206   1.585  1.00  0.00     0.166 HD
ATOM     34  H71 UNL     1      28.538  39.074  -0.164  1.00  0.00     0.166 HD
ENDBRANCH  31  32
ENDBRANCH  27  30
ENDBRANCH  25  26
ENDBRANCH   6  25
TORSDOF 8
ENDMDL
MODEL 3
REMARK VINA RESULT: -6.604534965      3.266      8.578
REMARK  8 active torsions:
REMARK  status: ('A' for Active; 'I' for Inactive)
REMARK    1  A    between atoms: O1_2  and  C2_3 
REMARK    2  A    between atoms: C3_6  and  N2_7 
REMARK    3  A    between atoms: C5_14  and  C6_15 
REMARK    4  A    between atoms: C7_20  and  S1_21 
REMARK    5  A    between atoms: S1_21  and  N6_22 
REMARK       I    between atoms: N6_22  and  C8_24 
REMARK    6  A    between atoms: C8_24  and  C9_26 
REMARK    7  A    between atoms: C10_27  and  N7_28 
REMARK    8  A    between atoms: N8_31  and  N9_32 
ROOT
HETATM    1  C6  UNL     1      31.119  38.968   8.407  1.00  0.00     0.164 A 
HETATM    2  N4  UNL     1      32.012  38.004   8.680  1.00  0.00    -0.281 N 
ATOM      3  H4  UNL     1      32.432  37.374   7.997  1.00  0.00     0.188 HD
HETATM    4  N5  UNL     1      32.257  38.005   9.973  1.00  0.00    -0.275 N 
ATOM      5  H5  UNL     1      32.900  37.368  10.445  1.00  0.00     0.189 HD
HETATM    6  C7  UNL     1      31.525  38.983  10.598  1.00  0.00     0.203 A 
HETATM    7  N8  UNL     1      30.833  39.557   9.596  1.00  0.00    -0.219 N 
ENDROOT
BRANCH   1   8
HETATM    8  C5  UNL     1      30.551  39.302   7.102  1.00  0.00     0.131 A 
HETATM    9  C2  UNL     1      30.776  40.493   6.457  1.00  0.00     0.176 A 
HETATM   10  N1  UNL     1      30.217  40.736   5.253  1.00  0.00    -0.170 N 
HETATM   11  C3  UNL     1      29.428  39.866   4.625  1.00  0.00     0.680 A 
ATOM     12  H1  UNL     1      30.407  41.631   4.803  1.00  0.00     0.186 HD
HETATM   13  N3  UNL     1      29.184  38.682   5.236  1.00  0.00    -0.155 N 
HETATM   14  C4  UNL     1      29.726  38.411   6.431  1.00  0.00     0.278 A 
ATOM     15  H3  UNL     1      28.585  37.992   4.783  1.00  0.00     0.187 HD
HETATM   16  O2  UNL     1      29.492  37.312   6.984  1.00  0.00    -0.266 OA
BRANCH   9  17
HETATM   17  O1  UNL     1      31.595  41.437   7.080  1.00  0.00    -0.340 OA
HETATM   18  C1  UNL     1      31.173  42.786   7.034  1.00  0.00     0.211 C 
ENDBRANCH   9  17
BRANCH  11  19
HETATM   19  N2  UNL     1      28.883  40.068   3.470  1.00  0.00    -0.234 N 
ATOM     20  H22 UNL     1      28.182  40.806   3.401  1.00  0.00     0.174 HD
ATOM     21  H21 UNL     1      29.100  39.540   2.625  1.00  0.00     0.174 HD
ENDBRANCH  11  19
ENDBRANCH   1   8
BRANCH   7  22
HETATM   22  N9  UNL     1      29.924  40.594   9.747  1.00  0.00    -0.335 N 
ATOM     23  H92 UNL     1      29.638  41.235   9.007  1.00  0.00     0.177 HD
ATOM     24  H91 UNL     1      29.467  40.827  10.629  1.00  0.00     0.177 HD
ENDBRANCH   7  22
BRANCH   6  25
HETATM   25  S1  UNL     1      31.539  39.284  12.351  1.00  0.00     0.029 SA
BRANCH  25  26
HETATM   26  N6  UNL     1      30.326  38.433  13.229  1.00  0.00    -0.283 N 
HETATM   27  C8  UNL     1      30.490  37.167  13.778  1.00  0.00     0.308 C 
HETATM   28  O3  UNL     1      31.568  36.542  13.672  1.00  0.00    -0.257 OA
ATOM     29  H6  UNL     1      29.423  38.891  13.354  1.00  0.00     0.178 HD
BRANCH  27  30
HETATM   30  C9  UNL     1      29.441  36.479  14.506  1.00  0.00     0.018 C 
HETATM   31  C10 UNL     1      28.562  35.885  15.113  1.00  0.00     0.013 C 
BRANCH  31  32
HETATM   32  N7  UNL     1      27.559  35.196  15.783  1.00  0.00    -0.359 N 
ATOM     33  H72 UNL     1      27.663  35.848  15.006  1.00  0.00     0.166 HD
ATOM     34  H71 UNL     1      26.835  34.683  16.286  1.00  0.00     0.166 HD
ENDBRANCH  31  32
ENDBRANCH  27  30
ENDBRANCH  25  26
ENDBRANCH   6  25
TORSDOF 8
ENDMDL
MODEL 4
REMARK VINA RESULT: -6.500325540      3.531      8.638
REMARK  8 active torsions:
REMARK  status: ('A' for Active; 'I' for Inactive)
REMARK    1  A    between atoms: O1_2  and  C2_3 
REMARK    2  A    between atoms: C3_6  and  N2_7 
REMARK    3  A    between atoms: C5_14  and  C6_15 
REMARK    4  A    between atoms: C7_20  and  S1_21 
REMARK    5  A    between atoms: S1_21  and  N6_22 
REMARK       I    between atoms: N6_22  and  C8_24 
REMARK    6  A    between atoms: C8_24  and  C9_26 
REMARK    7  A    between atoms: C10_27  and  N7_28 
REMARK    8  A    between atoms: N8_31  and  N9_32 
ROOT
HETATM    1  C6  UNL     1      31.342  39.320   9.819  1.00  0.00     0.164 A 
HETATM    2  N4  UNL     1      32.010  38.258  10.296  1.00  0.00    -0.281 N 
ATOM      3  H4  UNL     1      32.545  37.593   9.737  1.00  0.00     0.188 HD
HETATM    4  N5  UNL     1      31.860  38.212  11.603  1.00  0.00    -0.275 N 
ATOM      5  H5  UNL     1      32.266  37.500  12.211  1.00  0.00     0.189 HD
HETATM    6  C7  UNL     1      31.083  39.258  12.032  1.00  0.00     0.203 A 
HETATM    7  N8  UNL     1      30.781  39.920  10.899  1.00  0.00    -0.219 N 
ENDROOT
BRANCH   1   8
HETATM    8  C5  UNL     1      31.223  39.734   8.423  1.00  0.00     0.131 A 
HETATM    9  C2  UNL     1      31.785  40.881   7.918  1.00  0.00     0.176 A 
HETATM   10  N1  UNL     1      31.632  41.204   6.618  1.00  0.00    -0.170 N 
HETATM   11  C3  UNL     1      30.945  40.458   5.755  1.00  0.00     0.680 A 
ATOM     12  H1  UNL     1      32.065  42.063   6.278  1.00  0.00     0.186 HD
HETATM   13  N3  UNL     1      30.375  39.320   6.221  1.00  0.00    -0.155 N 
HETATM   14  C4  UNL     1      30.510  38.973   7.508  1.00  0.00     0.278 A 
ATOM     15  H3  UNL     1      29.841  38.725   5.588  1.00  0.00     0.187 HD
HETATM   16  O2  UNL     1      29.978  37.918   7.925  1.00  0.00    -0.266 OA
BRANCH   9  17
HETATM   17  O1  UNL     1      32.513  41.696   8.787  1.00  0.00    -0.340 OA
HETATM   18  C1  UNL     1      32.958  42.941   8.284  1.00  0.00     0.211 C 
ENDBRANCH   9  17
BRANCH  11  19
HETATM   19  N2  UNL     1      30.785  40.738   4.503  1.00  0.00    -0.234 N 
ATOM     20  H22 UNL     1      30.181  41.525   4.268  1.00  0.00     0.174 HD
ATOM     21  H21 UNL     1      31.217  40.226   3.734  1.00  0.00     0.174 HD
ENDBRANCH  11  19
ENDBRANCH   1   8
BRANCH   7  22
HETATM   22  N9  UNL     1      29.981  41.052  10.827  1.00  0.00    -0.335 N 
ATOM     23  H92 UNL     1      30.320  42.013  10.868  1.00  0.00     0.177 HD
ATOM     24  H91 UNL     1      28.964  41.026  10.744  1.00  0.00     0.177 HD
ENDBRANCH   7  22
BRANCH   6  25
HETATM   25  S1  UNL     1      30.610  39.532  13.724  1.00  0.00     0.029 SA
BRANCH  25  26
HETATM   26  N6  UNL     1      29.476  38.389  14.340  1.00  0.00    -0.283 N 
HETATM   27  C8  UNL     1      29.620  37.010  14.253  1.00  0.00     0.308 C 
HETATM   28  O3  UNL     1      30.617  36.488  13.709  1.00  0.00    -0.257 OA
ATOM     29  H6  UNL     1      28.641  38.752  14.800  1.00  0.00     0.178 HD
BRANCH  27  30
HETATM   30  C9  UNL     1      28.638  36.079  14.779  1.00  0.00     0.018 C 
HETATM   31  C10 UNL     1      27.808  35.307  15.235  1.00  0.00     0.013 C 
BRANCH  31  32
HETATM   32  N7  UNL     1      26.871  34.435  15.775  1.00  0.00    -0.359 N 
ATOM     33  H72 UNL     1      27.491  34.502  14.967  1.00  0.00     0.166 HD
ATOM     34  H71 UNL     1      26.181  33.805  16.184  1.00  0.00     0.166 HD
ENDBRANCH  31  32
ENDBRANCH  27  30
ENDBRANCH  25  26
ENDBRANCH   6  25
TORSDOF 8
ENDMDL
MODEL 5
REMARK VINA RESULT: -6.482544811      2.589      8.304
REMARK  8 active torsions:
REMARK  status: ('A' for Active; 'I' for Inactive)
REMARK    1  A    between atoms: O1_2  and  C2_3 
REMARK    2  A    between atoms: C3_6  and  N2_7 
REMARK    3  A    between atoms: C5_14  and  C6_15 
REMARK    4  A    between atoms: C7_20  and  S1_21 
REMARK    5  A    between atoms: S1_21  and  N6_22 
REMARK       I    between atoms: N6_22  and  C8_24 
REMARK    6  A    between atoms: C8_24  and  C9_26 
REMARK    7  A    between atoms: C10_27  and  N7_28 
REMARK    8  A    between atoms: N8_31  and  N9_32 
ROOT
HETATM    1  C6  UNL     1      30.500  39.727   7.061  1.00  0.00     0.164 A 
HETATM    2  N4  UNL     1      31.497  38.842   7.209  1.00  0.00    -0.281 N 
ATOM      3  H4  UNL     1      32.003  38.385   6.451  1.00  0.00     0.188 HD
HETATM    4  N5  UNL     1      31.717  38.659   8.494  1.00  0.00    -0.275 N 
ATOM      5  H5  UNL     1      32.424  38.033   8.881  1.00  0.00     0.189 HD
HETATM    6  C7  UNL     1      30.862  39.430   9.240  1.00  0.00     0.203 A 
HETATM    7  N8  UNL     1      30.123  40.075   8.318  1.00  0.00    -0.219 N 
ENDROOT
BRANCH   1   8
HETATM    8  C5  UNL     1      29.919  40.201   5.807  1.00  0.00     0.131 A 
HETATM    9  C2  UNL     1      29.960  41.511   5.397  1.00  0.00     0.176 A 
HETATM   10  N1  UNL     1      29.401  41.880   4.226  1.00  0.00    -0.170 N 
HETATM   11  C3  UNL     1      28.785  41.028   3.409  1.00  0.00     0.680 A 
ATOM     12  H1  UNL     1      29.451  42.862   3.953  1.00  0.00     0.186 HD
HETATM   13  N3  UNL     1      28.725  39.728   3.785  1.00  0.00    -0.155 N 
HETATM   14  C4  UNL     1      29.272  39.330   4.942  1.00  0.00     0.278 A 
ATOM     15  H3  UNL     1      28.261  39.047   3.184  1.00  0.00     0.187 HD
HETATM   16  O2  UNL     1      29.209  38.125   5.277  1.00  0.00    -0.266 OA
BRANCH   9  17
HETATM   17  O1  UNL     1      30.593  42.442   6.223  1.00  0.00    -0.340 OA
HETATM   18  C1  UNL     1      29.864  43.606   6.561  1.00  0.00     0.211 C 
ENDBRANCH   9  17
BRANCH  11  19
HETATM   19  N2  UNL     1      28.245  41.350   2.280  1.00  0.00    -0.234 N 
ATOM     20  H22 UNL     1      28.278  42.332   2.003  1.00  0.00     0.174 HD
ATOM     21  H21 UNL     1      27.784  40.695   1.648  1.00  0.00     0.174 HD
ENDBRANCH  11  19
ENDBRANCH   1   8
BRANCH   7  22
HETATM   22  N9  UNL     1      29.093  40.961   8.599  1.00  0.00    -0.335 N 
ATOM     23  H92 UNL     1      29.108  41.961   8.397  1.00  0.00     0.177 HD
ATOM     24  H91 UNL     1      28.222  40.694   9.058  1.00  0.00     0.177 HD
ENDBRANCH   7  22
BRANCH   6  25
HETATM   25  S1  UNL     1      30.807  39.440  11.018  1.00  0.00     0.029 SA
BRANCH  25  26
HETATM   26  N6  UNL     1      32.174  38.715  11.775  1.00  0.00    -0.283 N 
HETATM   27  C8  UNL     1      32.666  37.451  11.474  1.00  0.00     0.308 C 
HETATM   28  O3  UNL     1      32.134  36.732  10.600  1.00  0.00    -0.257 OA
ATOM     29  H6  UNL     1      32.657  39.252  12.496  1.00  0.00     0.178 HD
BRANCH  27  30
HETATM   30  C9  UNL     1      33.818  36.872  12.140  1.00  0.00     0.018 C 
HETATM   31  C10 UNL     1      34.798  36.390  12.687  1.00  0.00     0.013 C 
BRANCH  31  32
HETATM   32  N7  UNL     1      35.921  35.835  13.289  1.00  0.00    -0.359 N 
ATOM     33  H72 UNL     1      35.179  36.502  13.501  1.00  0.00     0.166 HD
ATOM     34  H71 UNL     1      36.748  35.419  13.717  1.00  0.00     0.166 HD
ENDBRANCH  31  32
ENDBRANCH  27  30
ENDBRANCH  25  26
ENDBRANCH   6  25
TORSDOF 8
ENDMDL
