MODEL 1
REMARK VINA RESULT: -6.913597684      0.000      0.000
REMARK  11 active torsions:
REMARK  status: ('A' for Active; 'I' for Inactive)
REMARK    1  A    between atoms: N1_1  and  C1_4 
REMARK    2  A    between atoms: C2_7  and  N3_8 
REMARK    3  A    between atoms: C5_11  and  C6_12 
REMARK    4  A    between atoms: C5_11  and  N4_15 
REMARK    5  A    between atoms: C6_12  and  O1_13 
REMARK    6  A    between atoms: N4_15  and  C7_18 
REMARK    7  A    between atoms: C7_18  and  C8_19 
REMARK    8  A    between atoms: C8_19  and  O2_20 
REMARK    9  A    between atoms: C8_19  and  C9_22 
REMARK   10  A    between atoms: C9_22  and  O3_23 
REMARK   11  A    between atoms: N8_37  and  N9_38 
ROOT
HETATM    1  C1  UNL     1      28.537  41.324   1.674  1.00  0.00     0.149 A 
HETATM    2  N2  UNL     1      28.882  40.543   2.672  1.00  0.00    -0.174 N 
ATOM      3  H2  UNL     1      28.926  39.540   2.494  1.00  0.00     0.186 HD
HETATM    4  C2  UNL     1      29.182  40.974   3.919  1.00  0.00     0.684 A 
HETATM    5  N5  UNL     1      29.153  42.348   4.256  1.00  0.00    -0.167 N 
ATOM      6  H5  UNL     1      29.378  42.680   5.194  1.00  0.00     0.186 HD
HETATM    7  C11 UNL     1      28.830  43.139   3.325  1.00  0.00     0.198 A 
HETATM    8  C12 UNL     1      28.505  42.698   2.034  1.00  0.00     0.173 A 
HETATM    9  N6  UNL     1      28.012  43.371   0.887  1.00  0.00    -0.154 N 
HETATM   10  O4  UNL     1      26.807  44.140   0.829  1.00  0.00    -0.252 OA
HETATM   11  C13 UNL     1      27.120  45.388   1.646  1.00  0.00     0.287 C 
HETATM   12  C14 UNL     1      28.385  45.001   2.117  1.00  0.00     0.149 C 
HETATM   13  N7  UNL     1      29.429  44.711   1.365  1.00  0.00    -0.357 N 
ATOM     14  H7  UNL     1      30.326  44.513   1.810  1.00  0.00     0.162 HD
HETATM   15  C15 UNL     1      29.325  44.665  -0.128  1.00  0.00     0.263 C 
HETATM   16  N8  UNL     1      28.940  43.071  -0.170  1.00  0.00    -0.101 NA
HETATM   17  O5  UNL     1      28.791  44.684   3.475  1.00  0.00    -0.276 OA
ENDROOT
BRANCH   4  18
HETATM   18  N3  UNL     1      29.546  40.085   4.945  1.00  0.00    -0.215 N 
HETATM   19  C3  UNL     1      28.821  38.913   5.396  1.00  0.00     0.144 C 
HETATM   20  C4  UNL     1      29.569  38.375   6.583  1.00  0.00     0.063 C 
HETATM   21  C5  UNL     1      30.237  39.657   7.118  1.00  0.00     0.164 C 
HETATM   22  C10 UNL     1      30.741  40.189   5.758  1.00  0.00     0.182 C 
BRANCH  21  23
HETATM   23  C6  UNL     1      29.234  40.636   7.607  1.00  0.00     0.204 C 
BRANCH  23  24
HETATM   24  O1  UNL     1      28.546  40.306   8.748  1.00  0.00    -0.398 OA
ATOM     25  H1  UNL     1      28.692  40.852   9.512  1.00  0.00     0.209 HD
ENDBRANCH  23  24
ENDBRANCH  21  23
BRANCH  21  26
HETATM   26  N4  UNL     1      31.326  39.334   7.951  1.00  0.00    -0.060 N 
ATOM     27  H42 UNL     1      32.195  39.332   7.419  1.00  0.00     0.278 HD
ATOM     28  H41 UNL     1      31.520  40.100   8.597  1.00  0.00     0.278 HD
BRANCH  26  29
HETATM   29  C7  UNL     1      31.173  38.119   8.655  1.00  0.00     0.267 C 
BRANCH  29  30
HETATM   30  C8  UNL     1      32.281  38.026   9.715  1.00  0.00     0.167 C 
BRANCH  30  31
HETATM   31  O2  UNL     1      32.268  36.725  10.237  1.00  0.00    -0.392 OA
ATOM     32  H2  UNL     1      33.166  36.475  10.421  1.00  0.00     0.210 HD
ENDBRANCH  30  31
BRANCH  30  33
HETATM   33  C9  UNL     1      31.886  38.944  10.858  1.00  0.00     0.197 C 
BRANCH  33  34
HETATM   34  O3  UNL     1      30.624  39.494  10.690  1.00  0.00    -0.398 OA
ATOM     35  H3  UNL     1      30.598  40.421  10.897  1.00  0.00     0.209 HD
ENDBRANCH  33  34
ENDBRANCH  30  33
ENDBRANCH  29  30
ENDBRANCH  26  29
ENDBRANCH  21  26
ENDBRANCH   4  18
BRANCH   1  36
HETATM   36  N1  UNL     1      28.310  41.161   0.423  1.00  0.00    -0.383 N 
ATOM     37  H12 UNL     1      29.062  41.550  -0.147  1.00  0.00     0.157 HD
ATOM     38  H11 UNL     1      27.603  40.678  -0.131  1.00  0.00     0.157 HD
ENDBRANCH   1  36
BRANCH  16  39
HETATM   39  N9  UNL     1      30.313  42.934   0.220  1.00  0.00    -0.342 NA
ATOM     40  H92 UNL     1      29.935  43.200   1.128  1.00  0.00     0.172 HD
ATOM     41  H91 UNL     1      30.567  42.051   0.664  1.00  0.00     0.172 HD
ENDBRANCH  16  39
TORSDOF 11
ENDMDL
MODEL 2
REMARK VINA RESULT: -6.649855930      1.265      1.762
REMARK  11 active torsions:
REMARK  status: ('A' for Active; 'I' for Inactive)
REMARK    1  A    between atoms: N1_1  and  C1_4 
REMARK    2  A    between atoms: C2_7  and  N3_8 
REMARK    3  A    between atoms: C5_11  and  C6_12 
REMARK    4  A    between atoms: C5_11  and  N4_15 
REMARK    5  A    between atoms: C6_12  and  O1_13 
REMARK    6  A    between atoms: N4_15  and  C7_18 
REMARK    7  A    between atoms: C7_18  and  C8_19 
REMARK    8  A    between atoms: C8_19  and  O2_20 
REMARK    9  A    between atoms: C8_19  and  C9_22 
REMARK   10  A    between atoms: C9_22  and  O3_23 
REMARK   11  A    between atoms: N8_37  and  N9_38 
ROOT
HETATM    1  C1  UNL     1      28.882  41.703   2.032  1.00  0.00     0.149 A 
HETATM    2  N2  UNL     1      29.083  41.233   3.241  1.00  0.00    -0.174 N 
ATOM      3  H2  UNL     1      29.360  40.254   3.328  1.00  0.00     0.186 HD
HETATM    4  C2  UNL     1      28.950  41.951   4.380  1.00  0.00     0.684 A 
HETATM    5  N5  UNL     1      28.575  43.316   4.356  1.00  0.00    -0.167 N 
ATOM      6  H5  UNL     1      28.472  43.864   5.210  1.00  0.00     0.186 HD
HETATM    7  C11 UNL     1      28.374  43.813   3.212  1.00  0.00     0.198 A 
HETATM    8  C12 UNL     1      28.499  43.071   2.029  1.00  0.00     0.173 A 
HETATM    9  N6  UNL     1      28.217  43.375   0.672  1.00  0.00    -0.154 N 
HETATM   10  O4  UNL     1      26.952  43.804   0.163  1.00  0.00    -0.252 OA
HETATM   11  C13 UNL     1      26.793  45.222   0.698  1.00  0.00     0.287 C 
HETATM   12  C14 UNL     1      27.933  45.249   1.518  1.00  0.00     0.149 C 
HETATM   13  N7  UNL     1      29.177  45.083   1.111  1.00  0.00    -0.357 N 
ATOM     14  H7  UNL     1      29.941  45.196   1.777  1.00  0.00     0.162 HD
HETATM   15  C15 UNL     1      29.490  44.732  -0.311  1.00  0.00     0.263 C 
HETATM   16  N8  UNL     1      29.436  43.113  -0.046  1.00  0.00    -0.101 NA
HETATM   17  O5  UNL     1      28.009  45.303   2.967  1.00  0.00    -0.276 OA
ENDROOT
BRANCH   4  18
HETATM   18  N3  UNL     1      29.182  41.388   5.646  1.00  0.00    -0.215 N 
HETATM   19  C3  UNL     1      28.701  41.868   6.927  1.00  0.00     0.144 C 
HETATM   20  C4  UNL     1      29.315  40.983   7.975  1.00  0.00     0.063 C 
HETATM   21  C5  UNL     1      30.608  40.537   7.266  1.00  0.00     0.164 C 
HETATM   22  C10 UNL     1      29.968  40.198   5.901  1.00  0.00     0.182 C 
BRANCH  21  23
HETATM   23  C6  UNL     1      31.526  41.679   7.027  1.00  0.00     0.204 C 
BRANCH  23  24
HETATM   24  O1  UNL     1      32.826  41.531   7.441  1.00  0.00    -0.398 OA
ATOM     25  H1  UNL     1      33.466  41.294   6.780  1.00  0.00     0.209 HD
ENDBRANCH  23  24
ENDBRANCH  21  23
BRANCH  21  26
HETATM   26  N4  UNL     1      31.125  39.373   7.867  1.00  0.00    -0.060 N 
ATOM     27  H42 UNL     1      31.084  38.587   7.219  1.00  0.00     0.278 HD
ATOM     28  H41 UNL     1      32.134  39.449   7.984  1.00  0.00     0.278 HD
BRANCH  26  29
HETATM   29  C7  UNL     1      30.509  39.035   9.093  1.00  0.00     0.267 C 
BRANCH  29  30
HETATM   30  C8  UNL     1      31.596  38.910  10.170  1.00  0.00     0.167 C 
BRANCH  30  31
HETATM   31  O2  UNL     1      32.394  40.061  10.110  1.00  0.00    -0.392 OA
ATOM     32  H2  UNL     1      32.353  40.399   9.224  1.00  0.00     0.210 HD
ENDBRANCH  30  31
BRANCH  30  33
HETATM   33  C9  UNL     1      32.492  37.752   9.769  1.00  0.00     0.197 C 
BRANCH  33  34
HETATM   34  O3  UNL     1      32.170  36.574  10.426  1.00  0.00    -0.398 OA
ATOM     35  H3  UNL     1      32.437  36.579  11.338  1.00  0.00     0.209 HD
ENDBRANCH  33  34
ENDBRANCH  30  33
ENDBRANCH  29  30
ENDBRANCH  26  29
ENDBRANCH  21  26
ENDBRANCH   4  18
BRANCH   1  36
HETATM   36  N1  UNL     1      29.036  41.256   0.841  1.00  0.00    -0.383 N 
ATOM     37  H12 UNL     1      28.539  40.375   0.705  1.00  0.00     0.157 HD
ATOM     38  H11 UNL     1      29.469  41.602  -0.015  1.00  0.00     0.157 HD
ENDBRANCH   1  36
BRANCH  16  39
HETATM   39  N9  UNL     1      30.653  43.389   0.660  1.00  0.00    -0.342 NA
ATOM     40  H92 UNL     1      30.957  42.543   0.178  1.00  0.00     0.172 HD
ATOM     41  H91 UNL     1      31.380  43.867   0.128  1.00  0.00     0.172 HD
ENDBRANCH  16  39
TORSDOF 11
ENDMDL
MODEL 3
REMARK VINA RESULT: -6.557921243      2.981      9.594
REMARK  11 active torsions:
REMARK  status: ('A' for Active; 'I' for Inactive)
REMARK    1  A    between atoms: N1_1  and  C1_4 
REMARK    2  A    between atoms: C2_7  and  N3_8 
REMARK    3  A    between atoms: C5_11  and  C6_12 
REMARK    4  A    between atoms: C5_11  and  N4_15 
REMARK    5  A    between atoms: C6_12  and  O1_13 
REMARK    6  A    between atoms: N4_15  and  C7_18 
REMARK    7  A    between atoms: C7_18  and  C8_19 
REMARK    8  A    between atoms: C8_19  and  O2_20 
REMARK    9  A    between atoms: C8_19  and  C9_22 
REMARK   10  A    between atoms: C9_22  and  O3_23 
REMARK   11  A    between atoms: N8_37  and  N9_38 
ROOT
HETATM    1  C1  UNL     1      31.110  40.925  11.189  1.00  0.00     0.149 A 
HETATM    2  N2  UNL     1      30.721  41.249   9.978  1.00  0.00    -0.174 N 
ATOM      3  H2  UNL     1      30.399  42.205   9.825  1.00  0.00     0.186 HD
HETATM    4  C2  UNL     1      30.715  40.408   8.919  1.00  0.00     0.684 A 
HETATM    5  N5  UNL     1      31.149  39.065   9.036  1.00  0.00    -0.167 N 
ATOM      6  H5  UNL     1      31.148  38.426   8.242  1.00  0.00     0.186 HD
HETATM    7  C11 UNL     1      31.538  38.709  10.184  1.00  0.00     0.198 A 
HETATM    8  C12 UNL     1      31.534  39.573  11.289  1.00  0.00     0.173 A 
HETATM    9  N6  UNL     1      31.805  39.369  12.667  1.00  0.00    -0.154 N 
HETATM   10  O4  UNL     1      31.140  38.429  13.514  1.00  0.00    -0.252 OA
HETATM   11  C13 UNL     1      31.639  37.072  13.032  1.00  0.00     0.287 C 
HETATM   12  C14 UNL     1      32.370  37.517  11.919  1.00  0.00     0.149 C 
HETATM   13  N7  UNL     1      33.387  38.357  11.953  1.00  0.00    -0.357 N 
ATOM     14  H7  UNL     1      33.898  38.558  11.094  1.00  0.00     0.162 HD
HETATM   15  C15 UNL     1      33.804  39.023  13.228  1.00  0.00     0.263 C 
HETATM   16  N8  UNL     1      32.827  40.322  13.006  1.00  0.00    -0.101 NA
HETATM   17  O5  UNL     1      32.102  37.298  10.509  1.00  0.00    -0.276 OA
ENDROOT
BRANCH   4  18
HETATM   18  N3  UNL     1      30.287  40.818   7.645  1.00  0.00    -0.215 N 
HETATM   19  C3  UNL     1      28.960  41.257   7.259  1.00  0.00     0.144 C 
HETATM   20  C4  UNL     1      28.996  41.476   5.773  1.00  0.00     0.063 C 
HETATM   21  C5  UNL     1      30.107  40.493   5.355  1.00  0.00     0.164 C 
HETATM   22  C10 UNL     1      31.118  40.871   6.459  1.00  0.00     0.182 C 
BRANCH  21  23
HETATM   23  C6  UNL     1      29.717  39.084   5.607  1.00  0.00     0.204 C 
BRANCH  23  24
HETATM   24  O1  UNL     1      28.628  38.605   4.921  1.00  0.00    -0.398 OA
ATOM     25  H1  UNL     1      27.771  38.852   5.246  1.00  0.00     0.209 HD
ENDBRANCH  23  24
ENDBRANCH  21  23
BRANCH  21  26
HETATM   26  N4  UNL     1      30.615  40.835   4.087  1.00  0.00    -0.060 N 
ATOM     27  H42 UNL     1      31.480  41.367   4.180  1.00  0.00     0.278 HD
ATOM     28  H41 UNL     1      30.972  40.007   3.610  1.00  0.00     0.278 HD
BRANCH  26  29
HETATM   29  C7  UNL     1      29.698  41.523   3.263  1.00  0.00     0.267 C 
BRANCH  29  30
HETATM   30  C8  UNL     1      29.749  40.911   1.855  1.00  0.00     0.167 C 
BRANCH  30  31
HETATM   31  O2  UNL     1      29.938  41.955   0.939  1.00  0.00    -0.392 OA
ATOM     32  H2  UNL     1      30.872  42.053   0.795  1.00  0.00     0.210 HD
ENDBRANCH  30  31
BRANCH  30  33
HETATM   33  C9  UNL     1      28.374  40.337   1.566  1.00  0.00     0.197 C 
BRANCH  33  34
HETATM   34  O3  UNL     1      27.643  40.095   2.718  1.00  0.00    -0.398 OA
ATOM     35  H3  UNL     1      26.709  40.033   2.554  1.00  0.00     0.209 HD
ENDBRANCH  33  34
ENDBRANCH  30  33
ENDBRANCH  29  30
ENDBRANCH  26  29
ENDBRANCH  21  26
ENDBRANCH   4  18
BRANCH   1  36
HETATM   36  N1  UNL     1      31.290  41.555  12.290  1.00  0.00    -0.383 N 
ATOM     37  H12 UNL     1      30.802  42.452  12.292  1.00  0.00     0.157 HD
ATOM     38  H11 UNL     1      31.738  41.347  13.183  1.00  0.00     0.157 HD
ENDBRANCH   1  36
BRANCH  16  39
HETATM   39  N9  UNL     1      33.782  40.614  11.978  1.00  0.00    -0.342 NA
ATOM     40  H92 UNL     1      33.023  40.293  11.378  1.00  0.00     0.172 HD
ATOM     41  H91 UNL     1      33.676  41.514  11.510  1.00  0.00     0.172 HD
ENDBRANCH  16  39
TORSDOF 11
ENDMDL
MODEL 4
REMARK VINA RESULT: -6.531729763      1.206      1.440
REMARK  11 active torsions:
REMARK  status: ('A' for Active; 'I' for Inactive)
REMARK    1  A    between atoms: N1_1  and  C1_4 
REMARK    2  A    between atoms: C2_7  and  N3_8 
REMARK    3  A    between atoms: C5_11  and  C6_12 
REMARK    4  A    between atoms: C5_11  and  N4_15 
REMARK    5  A    between atoms: C6_12  and  O1_13 
REMARK    6  A    between atoms: N4_15  and  C7_18 
REMARK    7  A    between atoms: C7_18  and  C8_19 
REMARK    8  A    between atoms: C8_19  and  O2_20 
REMARK    9  A    between atoms: C8_19  and  C9_22 
REMARK   10  A    between atoms: C9_22  and  O3_23 
REMARK   11  A    between atoms: N8_37  and  N9_38 
ROOT
HETATM    1  C1  UNL     1      28.742  41.703   1.950  1.00  0.00     0.149 A 
HETATM    2  N2  UNL     1      28.993  41.154   3.116  1.00  0.00    -0.174 N 
ATOM      3  H2  UNL     1      29.213  40.158   3.132  1.00  0.00     0.186 HD
HETATM    4  C2  UNL     1      28.981  41.813   4.298  1.00  0.00     0.684 A 
HETATM    5  N5  UNL     1      28.692  43.197   4.372  1.00  0.00    -0.167 N 
ATOM      6  H5  UNL     1      28.682  43.700   5.259  1.00  0.00     0.186 HD
HETATM    7  C11 UNL     1      28.448  43.770   3.273  1.00  0.00     0.198 A 
HETATM    8  C12 UNL     1      28.446  43.090   2.047  1.00  0.00     0.173 A 
HETATM    9  N6  UNL     1      28.095  43.487   0.731  1.00  0.00    -0.154 N 
HETATM   10  O4  UNL     1      26.828  44.019   0.334  1.00  0.00    -0.252 OA
HETATM   11  C13 UNL     1      26.796  45.411   0.954  1.00  0.00     0.287 C 
HETATM   12  C14 UNL     1      27.987  45.323   1.692  1.00  0.00     0.149 C 
HETATM   13  N7  UNL     1      29.188  45.107   1.191  1.00  0.00    -0.357 N 
ATOM     14  H7  UNL     1      30.000  45.137   1.808  1.00  0.00     0.162 HD
HETATM   15  C15 UNL     1      29.384  44.820  -0.266  1.00  0.00     0.263 C 
HETATM   16  N8  UNL     1      29.244  43.195  -0.083  1.00  0.00    -0.101 NA
HETATM   17  O5  UNL     1      28.163  45.291   3.134  1.00  0.00    -0.276 OA
ENDROOT
BRANCH   4  18
HETATM   18  N3  UNL     1      29.261  41.166   5.513  1.00  0.00    -0.215 N 
HETATM   19  C3  UNL     1      28.727  41.480   6.824  1.00  0.00     0.144 C 
HETATM   20  C4  UNL     1      29.420  40.571   7.799  1.00  0.00     0.063 C 
HETATM   21  C5  UNL     1      30.756  40.320   7.073  1.00  0.00     0.164 C 
HETATM   22  C10 UNL     1      30.161  40.041   5.675  1.00  0.00     0.182 C 
BRANCH  21  23
HETATM   23  C6  UNL     1      31.556  41.564   6.948  1.00  0.00     0.204 C 
BRANCH  23  24
HETATM   24  O1  UNL     1      32.853  41.518   7.396  1.00  0.00    -0.398 OA
ATOM     25  H1  UNL     1      33.056  42.013   8.181  1.00  0.00     0.209 HD
ENDBRANCH  23  24
ENDBRANCH  21  23
BRANCH  21  26
HETATM   26  N4  UNL     1      31.382  39.164   7.578  1.00  0.00    -0.060 N 
ATOM     27  H42 UNL     1      31.333  38.405   6.899  1.00  0.00     0.278 HD
ATOM     28  H41 UNL     1      32.392  39.294   7.620  1.00  0.00     0.278 HD
BRANCH  26  29
HETATM   29  C7  UNL     1      30.885  38.739   8.830  1.00  0.00     0.267 C 
BRANCH  29  30
HETATM   30  C8  UNL     1      32.075  38.469   9.763  1.00  0.00     0.167 C 
BRANCH  30  31
HETATM   31  O2  UNL     1      31.801  37.298  10.482  1.00  0.00    -0.392 OA
ATOM     32  H2  UNL     1      31.667  36.595   9.857  1.00  0.00     0.210 HD
ENDBRANCH  30  31
BRANCH  30  33
HETATM   33  C9  UNL     1      32.111  39.594  10.781  1.00  0.00     0.197 C 
BRANCH  33  34
HETATM   34  O3  UNL     1      32.457  40.813  10.219  1.00  0.00    -0.398 OA
ATOM     35  H3  UNL     1      31.715  41.261   9.830  1.00  0.00     0.209 HD
ENDBRANCH  33  34
ENDBRANCH  30  33
ENDBRANCH  29  30
ENDBRANCH  26  29
ENDBRANCH  21  26
ENDBRANCH   4  18
BRANCH   1  36
HETATM   36  N1  UNL     1      28.788  41.318   0.730  1.00  0.00    -0.383 N 
ATOM     37  H12 UNL     1      29.651  40.811   0.530  1.00  0.00     0.157 HD
ATOM     38  H11 UNL     1      28.145  41.330  -0.062  1.00  0.00     0.157 HD
ENDBRANCH   1  36
BRANCH  16  39
HETATM   39  N9  UNL     1      30.520  43.357   0.549  1.00  0.00    -0.342 NA
ATOM     40  H92 UNL     1      29.936  43.619   1.343  1.00  0.00     0.172 HD
ATOM     41  H91 UNL     1      30.835  42.579   1.129  1.00  0.00     0.172 HD
ENDBRANCH  16  39
TORSDOF 11
ENDMDL
MODEL 5
REMARK VINA RESULT: -6.489157524      2.959      9.725
REMARK  11 active torsions:
REMARK  status: ('A' for Active; 'I' for Inactive)
REMARK    1  A    between atoms: N1_1  and  C1_4 
REMARK    2  A    between atoms: C2_7  and  N3_8 
REMARK    3  A    between atoms: C5_11  and  C6_12 
REMARK    4  A    between atoms: C5_11  and  N4_15 
REMARK    5  A    between atoms: C6_12  and  O1_13 
REMARK    6  A    between atoms: N4_15  and  C7_18 
REMARK    7  A    between atoms: C7_18  and  C8_19 
REMARK    8  A    between atoms: C8_19  and  O2_20 
REMARK    9  A    between atoms: C8_19  and  C9_22 
REMARK   10  A    between atoms: C9_22  and  O3_23 
REMARK   11  A    between atoms: N8_37  and  N9_38 
ROOT
HETATM    1  C1  UNL     1      32.333  37.704  10.254  1.00  0.00     0.149 A 
HETATM    2  N2  UNL     1      31.634  37.918   9.164  1.00  0.00    -0.174 N 
ATOM      3  H2  UNL     1      31.775  37.283   8.378  1.00  0.00     0.186 HD
HETATM    4  C2  UNL     1      30.740  38.922   9.006  1.00  0.00     0.684 A 
HETATM    5  N5  UNL     1      30.475  39.849  10.042  1.00  0.00    -0.167 N 
ATOM      6  H5  UNL     1      29.802  40.607   9.931  1.00  0.00     0.186 HD
HETATM    7  C11 UNL     1      31.122  39.679  11.114  1.00  0.00     0.198 A 
HETATM    8  C12 UNL     1      32.059  38.649  11.279  1.00  0.00     0.173 A 
HETATM    9  N6  UNL     1      32.969  38.339  12.323  1.00  0.00    -0.154 N 
HETATM   10  O4  UNL     1      33.978  39.215  12.832  1.00  0.00    -0.252 OA
HETATM   11  C13 UNL     1      33.198  40.284  13.589  1.00  0.00     0.287 C 
HETATM   12  C14 UNL     1      31.905  39.873  13.230  1.00  0.00     0.149 C 
HETATM   13  N7  UNL     1      31.373  38.693  13.489  1.00  0.00    -0.357 N 
ATOM     14  H7  UNL     1      30.396  38.522  13.249  1.00  0.00     0.162 HD
HETATM   15  C15 UNL     1      32.175  37.601  14.127  1.00  0.00     0.263 C 
HETATM   16  N8  UNL     1      32.684  36.980  12.697  1.00  0.00    -0.101 NA
HETATM   17  O5  UNL     1      30.937  40.551  12.386  1.00  0.00    -0.276 OA
ENDROOT
BRANCH   4  18
HETATM   18  N3  UNL     1      30.022  39.097   7.811  1.00  0.00    -0.215 N 
HETATM   19  C3  UNL     1      29.734  38.098   6.800  1.00  0.00     0.144 C 
HETATM   20  C4  UNL     1      29.038  38.813   5.676  1.00  0.00     0.063 C 
HETATM   21  C5  UNL     1      29.605  40.237   5.834  1.00  0.00     0.164 C 
HETATM   22  C10 UNL     1      29.429  40.342   7.365  1.00  0.00     0.182 C 
BRANCH  21  23
HETATM   23  C6  UNL     1      31.066  40.278   5.575  1.00  0.00     0.204 C 
BRANCH  23  24
HETATM   24  O1  UNL     1      31.818  41.101   6.376  1.00  0.00    -0.398 OA
ATOM     25  H1  UNL     1      32.320  41.782   5.945  1.00  0.00     0.209 HD
ENDBRANCH  23  24
ENDBRANCH  21  23
BRANCH  21  26
HETATM   26  N4  UNL     1      28.778  41.172   5.181  1.00  0.00    -0.060 N 
ATOM     27  H42 UNL     1      27.979  40.705   4.753  1.00  0.00     0.278 HD
ATOM     28  H41 UNL     1      28.294  41.757   5.861  1.00  0.00     0.278 HD
BRANCH  26  29
HETATM   29  C7  UNL     1      29.450  41.971   4.230  1.00  0.00     0.267 C 
BRANCH  29  30
HETATM   30  C8  UNL     1      28.603  42.027   2.950  1.00  0.00     0.167 C 
BRANCH  30  31
HETATM   31  O2  UNL     1      27.280  42.302   3.322  1.00  0.00    -0.392 OA
ATOM     32  H2  UNL     1      27.244  43.199   3.633  1.00  0.00     0.210 HD
ENDBRANCH  30  31
BRANCH  30  33
HETATM   33  C9  UNL     1      28.595  40.630   2.357  1.00  0.00     0.197 C 
BRANCH  33  34
HETATM   34  O3  UNL     1      27.396  39.967   2.567  1.00  0.00    -0.398 OA
ATOM     35  H3  UNL     1      27.370  39.511   3.400  1.00  0.00     0.209 HD
ENDBRANCH  33  34
ENDBRANCH  30  33
ENDBRANCH  29  30
ENDBRANCH  26  29
ENDBRANCH  21  26
ENDBRANCH   4  18
BRANCH   1  36
HETATM   36  N1  UNL     1      33.138  36.793  10.658  1.00  0.00    -0.383 N 
ATOM     37  H12 UNL     1      32.635  35.970  10.992  1.00  0.00     0.157 HD
ATOM     38  H11 UNL     1      34.150  36.665  10.659  1.00  0.00     0.157 HD
ENDBRANCH   1  36
BRANCH  16  39
HETATM   39  N9  UNL     1      31.311  36.578  12.610  1.00  0.00    -0.342 NA
ATOM     40  H92 UNL     1      31.698  35.897  11.957  1.00  0.00     0.172 HD
ATOM     41  H91 UNL     1      31.042  35.775  13.178  1.00  0.00     0.172 HD
ENDBRANCH  16  39
TORSDOF 11
ENDMDL
