MODEL 1
REMARK VINA RESULT: -7.701840216      0.000      0.000
REMARK  8 active torsions:
REMARK  status: ('A' for Active; 'I' for Inactive)
REMARK    1  A    between atoms: C1_4  and  C2_6 
REMARK    2  A    between atoms: N3_8  and  N4_9 
REMARK    3  A    between atoms: N5_11  and  C4_13 
REMARK    4  A    between atoms: C7_18  and  C8_19 
REMARK    5  A    between atoms: C8_19  and  O2_20 
REMARK    6  A    between atoms: C8_19  and  C9_22 
REMARK    7  A    between atoms: C10_25  and  O5_26 
REMARK    8  A    between atoms: C14_37  and  N11_38 
ROOT
HETATM    1  C4  UNL     1      30.695  40.593   7.084  1.00  0.00     0.186 C 
HETATM    2  C5  UNL     1      30.165  39.757   6.213  1.00  0.00     0.144 C 
HETATM    3  N6  UNL     1      30.553  38.423   6.526  1.00  0.00    -0.094 NA
HETATM    4  C6  UNL     1      29.307  39.870   5.045  1.00  0.00     0.217 C 
HETATM    5  O1  UNL     1      28.799  38.782   4.700  1.00  0.00    -0.285 OA
HETATM    6  C7  UNL     1      28.844  40.951   4.106  1.00  0.00     0.107 C 
HETATM    7  C10 UNL     1      28.735  42.227   4.406  1.00  0.00     0.172 C 
HETATM    8  N7  UNL     1      28.966  43.065   5.576  1.00  0.00    -0.168 N 
ATOM      9  H7  UNL     1      28.356  43.883   5.578  1.00  0.00     0.186 HD
HETATM   10  C11 UNL     1      29.810  43.047   6.706  1.00  0.00     0.701 C 
HETATM   11  N8  UNL     1      29.954  44.070   7.469  1.00  0.00    -0.209 N 
ATOM     12  H8  UNL     1      29.482  44.963   7.327  1.00  0.00     0.179 HD
HETATM   13  C12 UNL     1      30.872  43.794   8.557  1.00  0.00     0.275 C 
HETATM   14  N9  UNL     1      31.561  42.608   8.117  1.00  0.00    -0.097 NA
HETATM   15  N10 UNL     1      30.643  42.011   7.253  1.00  0.00    -0.070 N 
ENDROOT
BRANCH   1  16
HETATM   16  N5  UNL     1      31.499  40.000   8.094  1.00  0.00    -0.268 N 
HETATM   17  N4  UNL     1      30.997  39.828   9.226  1.00  0.00    -0.243 N 
ATOM     18  H4  UNL     1      30.030  40.130   9.348  1.00  0.00     0.208 HD
ATOM     19  H5  UNL     1      32.462  39.723   7.901  1.00  0.00     0.190 HD
BRANCH  17  20
HETATM   20  N3  UNL     1      31.616  39.272  10.326  1.00  0.00    -0.311 N 
HETATM   21  C3  UNL     1      31.355  39.568  11.706  1.00  0.00     0.158 C 
HETATM   22  C2  UNL     1      31.820  38.354  12.494  1.00  0.00     0.101 C 
HETATM   23  C14 UNL     1      32.193  37.335  11.409  1.00  0.00     0.215 C 
HETATM   24  C13 UNL     1      32.654  38.280  10.307  1.00  0.00     0.177 C 
BRANCH  22  25
HETATM   25  C1  UNL     1      30.708  37.842  13.334  1.00  0.00     0.094 C 
HETATM   26  N1  UNL     1      29.851  38.687  13.777  1.00  0.00    -0.391 N 
ATOM     27  H12 UNL     1      29.087  38.335  14.355  1.00  0.00     0.157 HD
ATOM     28  H11 UNL     1      29.921  39.683  13.568  1.00  0.00     0.157 HD
HETATM   29  N2  UNL     1      30.610  36.459  13.626  1.00  0.00    -0.088 NA
ENDBRANCH  22  25
BRANCH  23  30
HETATM   30  N11 UNL     1      33.243  36.457  11.846  1.00  0.00    -0.073 N 
ATOM     31 3H11 UNL     1      33.161  36.243  12.839  1.00  0.00     0.274 HD
ATOM     32 2H11 UNL     1      33.122  35.516  11.471  1.00  0.00     0.274 HD
ATOM     33 1H11 UNL     1      34.164  36.833  11.620  1.00  0.00     0.274 HD
ENDBRANCH  23  30
ENDBRANCH  17  20
ENDBRANCH   1  16
BRANCH   6  34
HETATM   34  C8  UNL     1      28.529  40.429   2.840  1.00  0.00     0.161 C 
BRANCH  34  35
HETATM   35  O2  UNL     1      27.279  39.950   2.776  1.00  0.00    -0.354 OA
ATOM     36  H2  UNL     1      27.237  39.014   2.933  1.00  0.00     0.218 HD
ENDBRANCH  34  35
BRANCH  34  37
HETATM   37  C9  UNL     1      29.208  40.283   1.615  1.00  0.00     0.234 C 
HETATM   38  O3  UNL     1      29.426  39.284   0.938  1.00  0.00    -0.642 OA
HETATM   39  O4  UNL     1      29.776  41.458   0.970  1.00  0.00    -0.642 OA
ENDBRANCH  34  37
ENDBRANCH   6  34
BRANCH   7  40
HETATM   40  O5  UNL     1      28.291  42.971   3.360  1.00  0.00    -0.345 OA
ATOM     41  H5  UNL     1      28.998  43.399   2.892  1.00  0.00     0.219 HD
ENDBRANCH   7  40
TORSDOF 8
ENDMDL
MODEL 2
REMARK VINA RESULT: -7.553221050      1.388      2.083
REMARK  8 active torsions:
REMARK  status: ('A' for Active; 'I' for Inactive)
REMARK    1  A    between atoms: C1_4  and  C2_6 
REMARK    2  A    between atoms: N3_8  and  N4_9 
REMARK    3  A    between atoms: N5_11  and  C4_13 
REMARK    4  A    between atoms: C7_18  and  C8_19 
REMARK    5  A    between atoms: C8_19  and  O2_20 
REMARK    6  A    between atoms: C8_19  and  C9_22 
REMARK    7  A    between atoms: C10_25  and  O5_26 
REMARK    8  A    between atoms: C14_37  and  N11_38 
ROOT
HETATM    1  C4  UNL     1      30.987  39.998   7.217  1.00  0.00     0.186 C 
HETATM    2  C5  UNL     1      30.275  39.317   6.342  1.00  0.00     0.144 C 
HETATM    3  N6  UNL     1      30.397  37.922   6.601  1.00  0.00    -0.094 NA
HETATM    4  C6  UNL     1      29.423  39.641   5.210  1.00  0.00     0.217 C 
HETATM    5  O1  UNL     1      28.696  38.689   4.852  1.00  0.00    -0.285 OA
HETATM    6  C7  UNL     1      29.157  40.826   4.321  1.00  0.00     0.107 C 
HETATM    7  C10 UNL     1      29.314  42.086   4.662  1.00  0.00     0.172 C 
HETATM    8  N7  UNL     1      29.744  42.819   5.847  1.00  0.00    -0.168 N 
ATOM      9  H7  UNL     1      29.309  43.741   5.895  1.00  0.00     0.186 HD
HETATM   10  C11 UNL     1      30.600  42.592   6.944  1.00  0.00     0.701 C 
HETATM   11  N8  UNL     1      30.969  43.537   7.731  1.00  0.00    -0.209 N 
ATOM     12  H8  UNL     1      30.682  44.511   7.634  1.00  0.00     0.179 HD
HETATM   13  C12 UNL     1      31.845  43.045   8.776  1.00  0.00     0.275 C 
HETATM   14  N9  UNL     1      32.270  41.762   8.277  1.00  0.00    -0.097 NA
HETATM   15  N10 UNL     1      31.226  41.392   7.430  1.00  0.00    -0.070 N 
ENDROOT
BRANCH   1  16
HETATM   16  N5  UNL     1      31.686  39.222   8.179  1.00  0.00    -0.268 N 
HETATM   17  N4  UNL     1      31.298  39.260   9.367  1.00  0.00    -0.243 N 
ATOM     18  H4  UNL     1      30.494  39.855   9.566  1.00  0.00     0.208 HD
ATOM     19  H5  UNL     1      32.485  38.648   7.908  1.00  0.00     0.190 HD
BRANCH  17  20
HETATM   20  N3  UNL     1      31.845  38.580  10.435  1.00  0.00    -0.311 N 
HETATM   21  C3  UNL     1      32.184  37.186  10.489  1.00  0.00     0.158 C 
HETATM   22  C2  UNL     1      33.240  37.049  11.575  1.00  0.00     0.101 C 
HETATM   23  C14 UNL     1      33.546  38.500  11.970  1.00  0.00     0.215 C 
HETATM   24  C13 UNL     1      32.187  39.136  11.713  1.00  0.00     0.177 C 
BRANCH  22  25
HETATM   25  C1  UNL     1      34.449  36.390  11.021  1.00  0.00     0.094 C 
HETATM   26  N1  UNL     1      35.495  36.332  11.761  1.00  0.00    -0.391 N 
ATOM     27  H12 UNL     1      36.326  35.879  11.380  1.00  0.00     0.157 HD
ATOM     28  H11 UNL     1      35.508  36.724  12.703  1.00  0.00     0.157 HD
HETATM   29  N2  UNL     1      34.431  35.846   9.713  1.00  0.00    -0.088 NA
ENDBRANCH  22  25
BRANCH  23  30
HETATM   30  N11 UNL     1      33.941  38.600  13.348  1.00  0.00    -0.073 N 
ATOM     31 3H11 UNL     1      34.327  39.520  13.560  1.00  0.00     0.274 HD
ATOM     32 2H11 UNL     1      33.131  38.621  13.968  1.00  0.00     0.274 HD
ATOM     33 1H11 UNL     1      34.589  37.856  13.608  1.00  0.00     0.274 HD
ENDBRANCH  23  30
ENDBRANCH  17  20
ENDBRANCH   1  16
BRANCH   6  34
HETATM   34  C8  UNL     1      28.706  40.423   3.052  1.00  0.00     0.161 C 
BRANCH  34  35
HETATM   35  O2  UNL     1      27.400  40.121   3.041  1.00  0.00    -0.354 OA
ATOM     36  H2  UNL     1      27.000  40.259   2.191  1.00  0.00     0.218 HD
ENDBRANCH  34  35
BRANCH  34  37
HETATM   37  C9  UNL     1      29.291  40.257   1.783  1.00  0.00     0.234 C 
HETATM   38  O3  UNL     1      29.407  39.258   1.082  1.00  0.00    -0.642 OA
HETATM   39  O4  UNL     1      29.881  41.408   1.113  1.00  0.00    -0.642 OA
ENDBRANCH  34  37
ENDBRANCH   6  34
BRANCH   7  40
HETATM   40  O5  UNL     1      28.997  42.941   3.655  1.00  0.00    -0.345 OA
ATOM     41  H5  UNL     1      28.064  42.962   3.477  1.00  0.00     0.219 HD
ENDBRANCH   7  40
TORSDOF 8
ENDMDL
MODEL 3
REMARK VINA RESULT: -7.188488327      1.125      1.552
REMARK  8 active torsions:
REMARK  status: ('A' for Active; 'I' for Inactive)
REMARK    1  A    between atoms: C1_4  and  C2_6 
REMARK    2  A    between atoms: N3_8  and  N4_9 
REMARK    3  A    between atoms: N5_11  and  C4_13 
REMARK    4  A    between atoms: C7_18  and  C8_19 
REMARK    5  A    between atoms: C8_19  and  O2_20 
REMARK    6  A    between atoms: C8_19  and  C9_22 
REMARK    7  A    between atoms: C10_25  and  O5_26 
REMARK    8  A    between atoms: C14_37  and  N11_38 
ROOT
HETATM    1  C4  UNL     1      30.241  41.233   6.993  1.00  0.00     0.186 C 
HETATM    2  C5  UNL     1      29.843  40.275   6.181  1.00  0.00     0.144 C 
HETATM    3  N6  UNL     1      30.313  39.016   6.650  1.00  0.00    -0.094 NA
HETATM    4  C6  UNL     1      29.063  40.201   4.955  1.00  0.00     0.217 C 
HETATM    5  O1  UNL     1      28.669  39.045   4.692  1.00  0.00    -0.285 OA
HETATM    6  C7  UNL     1      28.582  41.144   3.885  1.00  0.00     0.107 C 
HETATM    7  C10 UNL     1      28.350  42.428   4.047  1.00  0.00     0.172 C 
HETATM    8  N7  UNL     1      28.430  43.391   5.138  1.00  0.00    -0.168 N 
ATOM      9  H7  UNL     1      27.758  44.149   5.019  1.00  0.00     0.186 HD
HETATM   10  C11 UNL     1      29.191  43.554   6.314  1.00  0.00     0.701 C 
HETATM   11  N8  UNL     1      29.199  44.653   6.977  1.00  0.00    -0.209 N 
ATOM     12  H8  UNL     1      28.668  45.485   6.717  1.00  0.00     0.179 HD
HETATM   13  C12 UNL     1      30.057  44.564   8.142  1.00  0.00     0.275 C 
HETATM   14  N9  UNL     1      30.868  43.405   7.869  1.00  0.00    -0.097 NA
HETATM   15  N10 UNL     1      30.064  42.651   7.015  1.00  0.00    -0.070 N 
ENDROOT
BRANCH   1  16
HETATM   16  N5  UNL     1      31.017  40.812   8.106  1.00  0.00    -0.268 N 
HETATM   17  N4  UNL     1      30.460  40.742   9.224  1.00  0.00    -0.243 N 
ATOM     18  H4  UNL     1      29.473  40.997   9.260  1.00  0.00     0.208 HD
ATOM     19  H5  UNL     1      32.003  40.573   7.997  1.00  0.00     0.190 HD
BRANCH  17  20
HETATM   20  N3  UNL     1      31.045  40.357  10.412  1.00  0.00    -0.311 N 
HETATM   21  C3  UNL     1      30.679  39.236  11.232  1.00  0.00     0.158 C 
HETATM   22  C2  UNL     1      31.911  38.894  12.054  1.00  0.00     0.101 C 
HETATM   23  C14 UNL     1      32.998  39.815  11.484  1.00  0.00     0.215 C 
HETATM   24  C13 UNL     1      32.144  41.006  11.069  1.00  0.00     0.177 C 
BRANCH  22  25
HETATM   25  C1  UNL     1      32.272  37.468  11.851  1.00  0.00     0.094 C 
HETATM   26  N1  UNL     1      32.423  36.732  12.890  1.00  0.00    -0.391 N 
ATOM     27  H12 UNL     1      32.671  35.752  12.751  1.00  0.00     0.157 HD
ATOM     28  H11 UNL     1      32.302  37.103  13.833  1.00  0.00     0.157 HD
HETATM   29  N2  UNL     1      32.440  36.953  10.542  1.00  0.00    -0.088 NA
ENDBRANCH  22  25
BRANCH  23  30
HETATM   30  N11 UNL     1      33.971  40.166  12.482  1.00  0.00    -0.073 N 
ATOM     31 3H11 UNL     1      33.669  39.880  13.414  1.00  0.00     0.274 HD
ATOM     32 2H11 UNL     1      34.809  39.590  12.404  1.00  0.00     0.274 HD
ATOM     33 1H11 UNL     1      34.197  41.159  12.453  1.00  0.00     0.274 HD
ENDBRANCH  23  30
ENDBRANCH  17  20
ENDBRANCH   1  16
BRANCH   6  34
HETATM   34  C8  UNL     1      28.400  40.477   2.661  1.00  0.00     0.161 C 
BRANCH  34  35
HETATM   35  O2  UNL     1      27.207  39.869   2.577  1.00  0.00    -0.354 OA
ATOM     36  H2  UNL     1      27.157  39.088   3.116  1.00  0.00     0.218 HD
ENDBRANCH  34  35
BRANCH  34  37
HETATM   37  C9  UNL     1      29.165  40.288   1.495  1.00  0.00     0.234 C 
HETATM   38  O3  UNL     1      29.442  39.265   0.879  1.00  0.00    -0.642 OA
HETATM   39  O4  UNL     1      29.766  41.443   0.842  1.00  0.00    -0.642 OA
ENDBRANCH  34  37
ENDBRANCH   6  34
BRANCH   7  40
HETATM   40  O5  UNL     1      27.922  43.027   2.905  1.00  0.00    -0.345 OA
ATOM     41  H5  UNL     1      28.615  43.505   2.465  1.00  0.00     0.219 HD
ENDBRANCH   7  40
TORSDOF 8
ENDMDL
MODEL 4
REMARK VINA RESULT: -7.134533214      1.452      1.672
REMARK  8 active torsions:
REMARK  status: ('A' for Active; 'I' for Inactive)
REMARK    1  A    between atoms: C1_4  and  C2_6 
REMARK    2  A    between atoms: N3_8  and  N4_9 
REMARK    3  A    between atoms: N5_11  and  C4_13 
REMARK    4  A    between atoms: C7_18  and  C8_19 
REMARK    5  A    between atoms: C8_19  and  O2_20 
REMARK    6  A    between atoms: C8_19  and  C9_22 
REMARK    7  A    between atoms: C10_25  and  O5_26 
REMARK    8  A    between atoms: C14_37  and  N11_38 
ROOT
HETATM    1  C4  UNL     1      29.440  40.420   8.341  1.00  0.00     0.186 C 
HETATM    2  C5  UNL     1      29.579  39.716   7.235  1.00  0.00     0.144 C 
HETATM    3  N6  UNL     1      30.003  38.395   7.553  1.00  0.00    -0.094 NA
HETATM    4  C6  UNL     1      29.410  39.962   5.812  1.00  0.00     0.217 C 
HETATM    5  O1  UNL     1      29.354  38.913   5.135  1.00  0.00    -0.285 OA
HETATM    6  C7  UNL     1      29.280  41.149   4.897  1.00  0.00     0.107 C 
HETATM    7  C10 UNL     1      28.799  42.325   5.235  1.00  0.00     0.172 C 
HETATM    8  N7  UNL     1      28.258  42.943   6.440  1.00  0.00    -0.168 N 
ATOM      9  H7  UNL     1      27.586  43.677   6.215  1.00  0.00     0.186 HD
HETATM   10  C11 UNL     1      28.417  42.796   7.834  1.00  0.00     0.701 C 
HETATM   11  N8  UNL     1      27.969  43.662   8.668  1.00  0.00    -0.209 N 
ATOM     12  H8  UNL     1      27.471  44.512   8.403  1.00  0.00     0.179 HD
HETATM   13  C12 UNL     1      28.259  43.280  10.036  1.00  0.00     0.275 C 
HETATM   14  N9  UNL     1      29.284  42.278   9.890  1.00  0.00    -0.097 NA
HETATM   15  N10 UNL     1      29.046  41.766   8.615  1.00  0.00    -0.070 N 
ENDROOT
BRANCH   1  16
HETATM   16  N5  UNL     1      29.732  39.731   9.548  1.00  0.00    -0.268 N 
HETATM   17  N4  UNL     1      30.877  39.852  10.037  1.00  0.00    -0.243 N 
ATOM     18  H4  UNL     1      31.532  40.445   9.527  1.00  0.00     0.208 HD
ATOM     19  H5  UNL     1      29.027  39.153  10.005  1.00  0.00     0.190 HD
BRANCH  17  20
HETATM   20  N3  UNL     1      31.345  39.265  11.194  1.00  0.00    -0.311 N 
HETATM   21  C3  UNL     1      30.802  39.407  12.515  1.00  0.00     0.158 C 
HETATM   22  C2  UNL     1      31.253  38.180  13.292  1.00  0.00     0.101 C 
HETATM   23  C14 UNL     1      31.935  37.307  12.230  1.00  0.00     0.215 C 
HETATM   24  C13 UNL     1      32.477  38.389  11.306  1.00  0.00     0.177 C 
BRANCH  22  25
HETATM   25  C1  UNL     1      30.073  37.484  13.864  1.00  0.00     0.094 C 
HETATM   26  N1  UNL     1      29.118  38.203  14.328  1.00  0.00    -0.391 N 
ATOM     27  H12 UNL     1      28.307  37.725  14.722  1.00  0.00     0.157 HD
ATOM     28  H11 UNL     1      29.156  39.222  14.311  1.00  0.00     0.157 HD
HETATM   29  N2  UNL     1      30.020  36.069  13.889  1.00  0.00    -0.088 NA
ENDBRANCH  22  25
BRANCH  23  30
HETATM   30  N11 UNL     1      32.983  36.504  12.800  1.00  0.00    -0.073 N 
ATOM     31 3H11 UNL     1      33.574  37.052  13.425  1.00  0.00     0.274 HD
ATOM     32 2H11 UNL     1      32.614  35.835  13.475  1.00  0.00     0.274 HD
ATOM     33 1H11 UNL     1      33.534  36.040  12.078  1.00  0.00     0.274 HD
ENDBRANCH  23  30
ENDBRANCH  17  20
ENDBRANCH   1  16
BRANCH   6  34
HETATM   34  C8  UNL     1      29.738  40.850   3.602  1.00  0.00     0.161 C 
BRANCH  34  35
HETATM   35  O2  UNL     1      31.068  40.972   3.484  1.00  0.00    -0.354 OA
ATOM     36  H2  UNL     1      31.365  40.884   2.586  1.00  0.00     0.218 HD
ENDBRANCH  34  35
BRANCH  34  37
HETATM   37  C9  UNL     1      29.141  40.452   2.391  1.00  0.00     0.234 C 
HETATM   38  O3  UNL     1      29.622  40.316   1.271  1.00  0.00    -0.642 OA
HETATM   39  O4  UNL     1      27.722  40.125   2.369  1.00  0.00    -0.642 OA
ENDBRANCH  34  37
ENDBRANCH   6  34
BRANCH   7  40
HETATM   40  O5  UNL     1      28.802  43.206   4.201  1.00  0.00    -0.345 OA
ATOM     41  H5  UNL     1      28.140  43.881   4.297  1.00  0.00     0.219 HD
ENDBRANCH   7  40
TORSDOF 8
ENDMDL
MODEL 5
REMARK VINA RESULT: -6.944259517      4.448      8.591
REMARK  8 active torsions:
REMARK  status: ('A' for Active; 'I' for Inactive)
REMARK    1  A    between atoms: C1_4  and  C2_6 
REMARK    2  A    between atoms: N3_8  and  N4_9 
REMARK    3  A    between atoms: N5_11  and  C4_13 
REMARK    4  A    between atoms: C7_18  and  C8_19 
REMARK    5  A    between atoms: C8_19  and  O2_20 
REMARK    6  A    between atoms: C8_19  and  C9_22 
REMARK    7  A    between atoms: C10_25  and  O5_26 
REMARK    8  A    between atoms: C14_37  and  N11_38 
ROOT
HETATM    1  C4  UNL     1      31.590  40.326   9.681  1.00  0.00     0.186 C 
HETATM    2  C5  UNL     1      31.600  39.026   9.897  1.00  0.00     0.144 C 
HETATM    3  N6  UNL     1      30.825  38.365   8.902  1.00  0.00    -0.094 NA
HETATM    4  C6  UNL     1      32.194  38.135  10.881  1.00  0.00     0.217 C 
HETATM    5  O1  UNL     1      32.195  36.938  10.522  1.00  0.00    -0.285 OA
HETATM    6  C7  UNL     1      32.823  38.244  12.243  1.00  0.00     0.107 C 
HETATM    7  C10 UNL     1      33.444  39.303  12.715  1.00  0.00     0.172 C 
HETATM    8  N7  UNL     1      33.765  40.643  12.239  1.00  0.00    -0.168 N 
ATOM      9  H7  UNL     1      34.618  40.999  12.671  1.00  0.00     0.186 HD
HETATM   10  C11 UNL     1      33.211  41.579  11.340  1.00  0.00     0.701 C 
HETATM   11  N8  UNL     1      33.600  42.801  11.300  1.00  0.00    -0.209 N 
ATOM     12  H8  UNL     1      34.325  43.194  11.900  1.00  0.00     0.179 HD
HETATM   13  C12 UNL     1      32.877  43.554  10.293  1.00  0.00     0.275 C 
HETATM   14  N9  UNL     1      31.733  42.723  10.016  1.00  0.00    -0.097 NA
HETATM   15  N10 UNL     1      32.184  41.445  10.343  1.00  0.00    -0.070 N 
ENDROOT
BRANCH   1  16
HETATM   16  N5  UNL     1      30.841  40.756   8.553  1.00  0.00    -0.268 N 
HETATM   17  N4  UNL     1      31.452  40.970   7.483  1.00  0.00    -0.243 N 
ATOM     18  H4  UNL     1      32.460  40.820   7.494  1.00  0.00     0.208 HD
ATOM     19  H5  UNL     1      29.831  40.888   8.615  1.00  0.00     0.190 HD
BRANCH  17  20
HETATM   20  N3  UNL     1      30.900  41.390   6.290  1.00  0.00    -0.311 N 
HETATM   21  C3  UNL     1      30.881  40.672   5.047  1.00  0.00     0.158 C 
HETATM   22  C2  UNL     1      29.716  41.236   4.250  1.00  0.00     0.101 C 
HETATM   23  C14 UNL     1      29.027  42.189   5.236  1.00  0.00     0.215 C 
HETATM   24  C13 UNL     1      30.231  42.638   6.055  1.00  0.00     0.177 C 
BRANCH  22  25
HETATM   25  C1  UNL     1      28.799  40.139   3.853  1.00  0.00     0.094 C 
HETATM   26  N1  UNL     1      28.800  39.069   4.561  1.00  0.00    -0.391 N 
ATOM     27  H12 UNL     1      28.170  38.314   4.288  1.00  0.00     0.157 HD
ATOM     28  H11 UNL     1      29.408  38.963   5.372  1.00  0.00     0.157 HD
HETATM   29  N2  UNL     1      27.954  40.285   2.725  1.00  0.00    -0.088 NA
ENDBRANCH  22  25
BRANCH  23  30
HETATM   30  N11 UNL     1      28.393  43.285   4.557  1.00  0.00    -0.073 N 
ATOM     31 3H11 UNL     1      29.014  43.704   3.865  1.00  0.00     0.274 HD
ATOM     32 2H11 UNL     1      27.656  42.959   3.932  1.00  0.00     0.274 HD
ATOM     33 1H11 UNL     1      28.044  43.982   5.214  1.00  0.00     0.274 HD
ENDBRANCH  23  30
ENDBRANCH  17  20
ENDBRANCH   1  16
BRANCH   6  34
HETATM   34  C8  UNL     1      32.673  37.052  12.973  1.00  0.00     0.161 C 
BRANCH  34  35
HETATM   35  O2  UNL     1      33.708  36.216  12.813  1.00  0.00    -0.354 OA
ATOM     36  H2  UNL     1      33.668  35.736  11.994  1.00  0.00     0.218 HD
ENDBRANCH  34  35
BRANCH  34  37
HETATM   37  C9  UNL     1      31.696  36.517  13.835  1.00  0.00     0.234 C 
HETATM   38  O3  UNL     1      30.533  36.198  13.621  1.00  0.00    -0.642 OA
HETATM   39  O4  UNL     1      32.036  36.265  15.228  1.00  0.00    -0.642 OA
ENDBRANCH  34  37
ENDBRANCH   6  34
BRANCH   7  40
HETATM   40  O5  UNL     1      33.912  39.113  13.975  1.00  0.00    -0.345 OA
ATOM     41  H5  UNL     1      34.852  38.973  13.997  1.00  0.00     0.219 HD
ENDBRANCH   7  40
TORSDOF 8
ENDMDL
