MODEL 1
REMARK VINA RESULT: -6.968933546      0.000      0.000
REMARK  6 active torsions:
REMARK  status: ('A' for Active; 'I' for Inactive)
REMARK    1  A    between atoms: C2_6  and  N4_7 
REMARK       I    between atoms: N4_7  and  C3_9 
REMARK    2  A    between atoms: C4_14  and  C5_15 
REMARK    3  A    between atoms: C5_15  and  N7_16 
REMARK    4  A    between atoms: C6_20  and  N10_21 
REMARK       I    between atoms: N10_21  and  C7_23 
REMARK       I    between atoms: C7_23  and  N12_27 
REMARK    5  A    between atoms: N12_27  and  N13_29 
REMARK    6  A    between atoms: N13_29  and  O1_33 
ROOT
HETATM    1  N7  UNL     1      30.725  38.765   8.354  1.00  0.00    -0.201 N 
HETATM    2  N8  UNL     1      30.209  37.658   7.848  1.00  0.00     0.011 NA
HETATM    3  N9  UNL     1      29.570  37.906   6.703  1.00  0.00    -0.113 N 
ATOM      4  H9  UNL     1      29.087  37.228   6.113  1.00  0.00     0.203 HD
HETATM    5  C6  UNL     1      29.690  39.219   6.485  1.00  0.00     0.725 A 
HETATM    6  N15 UNL     1      30.397  39.715   7.504  1.00  0.00    -0.115 N 
ATOM      7  H15 UNL     1      30.649  40.697   7.609  1.00  0.00     0.207 HD
ENDROOT
BRANCH   1   8
HETATM    8  C5  UNL     1      31.452  38.865   9.565  1.00  0.00     0.196 C 
BRANCH   8   9
HETATM    9  C4  UNL     1      30.785  39.334  10.776  1.00  0.00     0.167 C 
HETATM   10  N1  UNL     1      30.369  40.696  10.876  1.00  0.00    -0.205 NA
HETATM   11  C1  UNL     1      31.437  41.658  11.026  1.00  0.00     0.134 C 
HETATM   12  N2  UNL     1      29.822  40.601  12.201  1.00  0.00    -0.046 NA
HETATM   13  N3  UNL     1      30.899  39.975  12.886  1.00  0.00    -0.276 N 
HETATM   14  C2  UNL     1      31.536  39.181  12.054  1.00  0.00     0.117 C 
ATOM     15  H3  UNL     1      31.140  40.120  13.867  1.00  0.00     0.185 HD
BRANCH  14  16
HETATM   16  N4  UNL     1      32.668  38.375  12.343  1.00  0.00    -0.318 N 
HETATM   17  C3  UNL     1      32.487  36.996  12.654  1.00  0.00     0.187 C 
HETATM   18  N5  UNL     1      33.472  36.157  12.642  1.00  0.00    -0.373 N 
HETATM   19  N6  UNL     1      31.201  36.480  12.996  1.00  0.00    -0.064 NA
ATOM     20  H52 UNL     1      34.391  36.525  12.397  1.00  0.00     0.158 HD
ATOM     21  H51 UNL     1      33.343  35.170  12.864  1.00  0.00     0.158 HD
ATOM     22  H4  UNL     1      33.604  38.780  12.329  1.00  0.00     0.169 HD
ENDBRANCH  14  16
ENDBRANCH   8   9
ENDBRANCH   1   8
BRANCH   5  23
HETATM   23  N10 UNL     1      29.215  39.868   5.484  1.00  0.00    -0.019 N 
HETATM   24  C7  UNL     1      29.990  40.206   4.341  1.00  0.00     0.708 C 
HETATM   25  N11 UNL     1      30.889  41.141   4.463  1.00  0.00    -0.233 N 
HETATM   26  N12 UNL     1      29.767  39.534   3.129  1.00  0.00    -0.090 N 
ATOM     27 2H11 UNL     1      31.051  41.630   5.345  1.00  0.00     0.174 HD
ATOM     28 1H11 UNL     1      31.445  41.384   3.644  1.00  0.00     0.174 HD
ATOM     29  H12 UNL     1      29.992  38.541   3.062  1.00  0.00     0.210 HD
ATOM     30  H10 UNL     1      28.236  40.154   5.511  1.00  0.00     0.203 HD
BRANCH  26  31
HETATM   31  N13 UNL     1      29.249  40.188   2.016  1.00  0.00    -0.087 N 
HETATM   32  N14 UNL     1      28.316  39.680   1.364  1.00  0.00    -0.303 N 
ATOM     33 2H14 UNL     1      27.918  38.780   1.632  1.00  0.00     0.181 HD
ATOM     34 1H14 UNL     1      27.936  40.159   0.548  1.00  0.00     0.181 HD
BRANCH  31  35
HETATM   35  O1  UNL     1      29.783  41.393   1.656  1.00  0.00    -0.253 OA
ATOM     36  H1  UNL     1      29.429  42.184   2.046  1.00  0.00     0.248 HD
ENDBRANCH  31  35
ENDBRANCH  26  31
ENDBRANCH   5  23
TORSDOF 6
ENDMDL
MODEL 2
REMARK VINA RESULT: -6.925049900      2.290      3.836
REMARK  6 active torsions:
REMARK  status: ('A' for Active; 'I' for Inactive)
REMARK    1  A    between atoms: C2_6  and  N4_7 
REMARK       I    between atoms: N4_7  and  C3_9 
REMARK    2  A    between atoms: C4_14  and  C5_15 
REMARK    3  A    between atoms: C5_15  and  N7_16 
REMARK    4  A    between atoms: C6_20  and  N10_21 
REMARK       I    between atoms: N10_21  and  C7_23 
REMARK       I    between atoms: C7_23  and  N12_27 
REMARK    5  A    between atoms: N12_27  and  N13_29 
REMARK    6  A    between atoms: N13_29  and  O1_33 
ROOT
HETATM    1  N7  UNL     1      29.472  39.941   6.530  1.00  0.00    -0.201 N 
HETATM    2  N8  UNL     1      29.353  38.723   6.027  1.00  0.00     0.011 NA
HETATM    3  N9  UNL     1      29.597  38.721   4.715  1.00  0.00    -0.113 N 
ATOM      4  H9  UNL     1      29.573  37.915   4.090  1.00  0.00     0.203 HD
HETATM    5  C6  UNL     1      29.880  39.985   4.384  1.00  0.00     0.725 A 
HETATM    6  N15 UNL     1      29.797  40.703   5.507  1.00  0.00    -0.115 N 
ATOM      7  H15 UNL     1      29.963  41.707   5.564  1.00  0.00     0.207 HD
ENDROOT
BRANCH   1   8
HETATM    8  C5  UNL     1      29.268  40.303   7.883  1.00  0.00     0.196 C 
BRANCH   8   9
HETATM    9  C4  UNL     1      30.155  39.781   8.917  1.00  0.00     0.167 C 
HETATM   10  N1  UNL     1      29.812  39.940  10.294  1.00  0.00    -0.205 NA
HETATM   11  C1  UNL     1      29.921  41.287  10.806  1.00  0.00     0.134 C 
HETATM   12  N2  UNL     1      30.977  39.289  10.828  1.00  0.00    -0.046 NA
HETATM   13  N3  UNL     1      32.005  39.961  10.110  1.00  0.00    -0.276 N 
HETATM   14  C2  UNL     1      31.554  40.294   8.921  1.00  0.00     0.117 C 
ATOM     15  H3  UNL     1      32.942  40.154  10.463  1.00  0.00     0.185 HD
BRANCH  14  16
HETATM   16  N4  UNL     1      32.265  40.977   7.900  1.00  0.00    -0.318 N 
HETATM   17  C3  UNL     1      32.922  42.204   8.203  1.00  0.00     0.187 C 
HETATM   18  N5  UNL     1      33.809  42.719   7.415  1.00  0.00    -0.373 N 
HETATM   19  N6  UNL     1      32.622  42.924   9.399  1.00  0.00    -0.064 NA
ATOM     20  H52 UNL     1      34.024  42.204   6.561  1.00  0.00     0.158 HD
ATOM     21  H51 UNL     1      34.280  43.597   7.632  1.00  0.00     0.158 HD
ATOM     22  H4  UNL     1      32.306  40.592   6.957  1.00  0.00     0.169 HD
ENDBRANCH  14  16
ENDBRANCH   8   9
ENDBRANCH   1   8
BRANCH   5  23
HETATM   23  N10 UNL     1      30.174  40.414   3.211  1.00  0.00    -0.019 N 
HETATM   24  C7  UNL     1      29.192  40.809   2.261  1.00  0.00     0.708 C 
HETATM   25  N11 UNL     1      28.477  39.879   1.694  1.00  0.00    -0.233 N 
HETATM   26  N12 UNL     1      29.023  42.171   1.964  1.00  0.00    -0.090 N 
ATOM     27 2H11 UNL     1      28.600  38.889   1.909  1.00  0.00     0.174 HD
ATOM     28 1H11 UNL     1      27.773  40.163   1.013  1.00  0.00     0.174 HD
ATOM     29  H12 UNL     1      28.665  42.796   2.686  1.00  0.00     0.210 HD
ATOM     30  H10 UNL     1      31.158  40.474   2.948  1.00  0.00     0.203 HD
BRANCH  26  31
HETATM   31  N13 UNL     1      29.332  42.689   0.711  1.00  0.00    -0.087 N 
HETATM   32  N14 UNL     1      30.291  43.473   0.571  1.00  0.00    -0.303 N 
ATOM     33 2H14 UNL     1      30.864  43.747   1.369  1.00  0.00     0.181 HD
ATOM     34 1H14 UNL     1      30.517  43.852  -0.348  1.00  0.00     0.181 HD
BRANCH  31  35
HETATM   35  O1  UNL     1      28.564  42.321  -0.358  1.00  0.00    -0.253 OA
ATOM     36  H1  UNL     1      28.997  42.060  -1.162  1.00  0.00     0.248 HD
ENDBRANCH  31  35
ENDBRANCH  26  31
ENDBRANCH   5  23
TORSDOF 6
ENDMDL
MODEL 3
REMARK VINA RESULT: -6.910510838      1.657      2.187
REMARK  6 active torsions:
REMARK  status: ('A' for Active; 'I' for Inactive)
REMARK    1  A    between atoms: C2_6  and  N4_7 
REMARK       I    between atoms: N4_7  and  C3_9 
REMARK    2  A    between atoms: C4_14  and  C5_15 
REMARK    3  A    between atoms: C5_15  and  N7_16 
REMARK    4  A    between atoms: C6_20  and  N10_21 
REMARK       I    between atoms: N10_21  and  C7_23 
REMARK       I    between atoms: C7_23  and  N12_27 
REMARK    5  A    between atoms: N12_27  and  N13_29 
REMARK    6  A    between atoms: N13_29  and  O1_33 
ROOT
HETATM    1  N7  UNL     1      30.477  38.723   6.650  1.00  0.00    -0.201 N 
HETATM    2  N8  UNL     1      29.517  38.145   5.947  1.00  0.00     0.011 NA
HETATM    3  N9  UNL     1      29.408  38.699   4.739  1.00  0.00    -0.113 N 
ATOM      4  H9  UNL     1      28.750  38.440   4.004  1.00  0.00     0.203 HD
HETATM    5  C6  UNL     1      30.335  39.661   4.683  1.00  0.00     0.725 A 
HETATM    6  N15 UNL     1      30.968  39.651   5.858  1.00  0.00    -0.115 N 
ATOM      7  H15 UNL     1      31.731  40.280   6.109  1.00  0.00     0.207 HD
ENDROOT
BRANCH   1   8
HETATM    8  C5  UNL     1      30.848  38.392   7.976  1.00  0.00     0.196 C 
BRANCH   8   9
HETATM    9  C4  UNL     1      30.528  39.304   9.069  1.00  0.00     0.167 C 
HETATM   10  N1  UNL     1      30.603  40.715   8.862  1.00  0.00    -0.205 NA
HETATM   11  C1  UNL     1      31.938  41.251   8.736  1.00  0.00     0.134 C 
HETATM   12  N2  UNL     1      30.221  41.095  10.195  1.00  0.00    -0.046 NA
HETATM   13  N3  UNL     1      31.104  40.286  10.962  1.00  0.00    -0.276 N 
HETATM   14  C2  UNL     1      31.335  39.165  10.314  1.00  0.00     0.117 C 
ATOM     15  H3  UNL     1      31.497  40.537  11.869  1.00  0.00     0.185 HD
BRANCH  14  16
HETATM   16  N4  UNL     1      32.162  38.092  10.737  1.00  0.00    -0.318 N 
HETATM   17  C3  UNL     1      32.016  37.570  12.054  1.00  0.00     0.187 C 
HETATM   18  N5  UNL     1      32.522  36.431  12.399  1.00  0.00    -0.373 N 
HETATM   19  N6  UNL     1      31.301  38.292  13.057  1.00  0.00    -0.064 NA
ATOM     20  H52 UNL     1      33.033  35.915  11.682  1.00  0.00     0.158 HD
ATOM     21  H51 UNL     1      32.417  36.057  13.342  1.00  0.00     0.158 HD
ATOM     22  H4  UNL     1      32.856  37.697  10.102  1.00  0.00     0.169 HD
ENDBRANCH  14  16
ENDBRANCH   8   9
ENDBRANCH   1   8
BRANCH   5  23
HETATM   23  N10 UNL     1      30.564  40.437   3.686  1.00  0.00    -0.019 N 
HETATM   24  C7  UNL     1      29.590  40.729   2.692  1.00  0.00     0.708 C 
HETATM   25  N11 UNL     1      29.286  39.793   1.837  1.00  0.00    -0.233 N 
HETATM   26  N12 UNL     1      28.992  41.998   2.658  1.00  0.00    -0.090 N 
ATOM     27 2H11 UNL     1      29.721  38.870   1.862  1.00  0.00     0.174 HD
ATOM     28 1H11 UNL     1      28.588  40.002   1.124  1.00  0.00     0.174 HD
ATOM     29  H12 UNL     1      28.382  42.281   3.425  1.00  0.00     0.210 HD
ATOM     30  H10 UNL     1      31.486  40.864   3.605  1.00  0.00     0.203 HD
BRANCH  26  31
HETATM   31  N13 UNL     1      29.210  42.880   1.604  1.00  0.00    -0.087 N 
HETATM   32  N14 UNL     1      28.781  44.049   1.661  1.00  0.00    -0.303 N 
ATOM     33 2H14 UNL     1      28.264  44.379   2.476  1.00  0.00     0.181 HD
ATOM     34 1H14 UNL     1      28.941  44.695   0.889  1.00  0.00     0.181 HD
BRANCH  31  35
HETATM   35  O1  UNL     1      29.903  42.438   0.512  1.00  0.00    -0.253 OA
ATOM     36  H1  UNL     1      30.459  43.052   0.047  1.00  0.00     0.248 HD
ENDBRANCH  31  35
ENDBRANCH  26  31
ENDBRANCH   5  23
TORSDOF 6
ENDMDL
MODEL 4
REMARK VINA RESULT: -6.834213310      2.530      4.652
REMARK  6 active torsions:
REMARK  status: ('A' for Active; 'I' for Inactive)
REMARK    1  A    between atoms: C2_6  and  N4_7 
REMARK       I    between atoms: N4_7  and  C3_9 
REMARK    2  A    between atoms: C4_14  and  C5_15 
REMARK    3  A    between atoms: C5_15  and  N7_16 
REMARK    4  A    between atoms: C6_20  and  N10_21 
REMARK       I    between atoms: N10_21  and  C7_23 
REMARK       I    between atoms: C7_23  and  N12_27 
REMARK    5  A    between atoms: N12_27  and  N13_29 
REMARK    6  A    between atoms: N13_29  and  O1_33 
ROOT
HETATM    1  N7  UNL     1      30.167  39.436   6.477  1.00  0.00    -0.201 N 
HETATM    2  N8  UNL     1      29.328  38.602   5.885  1.00  0.00     0.011 NA
HETATM    3  N9  UNL     1      29.284  38.820   4.570  1.00  0.00    -0.113 N 
ATOM      4  H9  UNL     1      28.720  38.317   3.885  1.00  0.00     0.203 HD
HETATM    5  C6  UNL     1      30.127  39.830   4.329  1.00  0.00     0.725 A 
HETATM    6  N15 UNL     1      30.649  40.183   5.507  1.00  0.00    -0.115 N 
ATOM      7  H15 UNL     1      31.330  40.930   5.636  1.00  0.00     0.207 HD
ENDROOT
BRANCH   1   8
HETATM    8  C5  UNL     1      30.442  39.490   7.865  1.00  0.00     0.196 C 
BRANCH   8   9
HETATM    9  C4  UNL     1      31.326  40.526   8.390  1.00  0.00     0.167 C 
HETATM   10  N1  UNL     1      32.012  40.316   9.625  1.00  0.00    -0.205 NA
HETATM   11  C1  UNL     1      31.182  40.350  10.806  1.00  0.00     0.134 C 
HETATM   12  N2  UNL     1      32.682  41.587   9.656  1.00  0.00    -0.046 NA
HETATM   13  N3  UNL     1      31.590  42.465   9.414  1.00  0.00    -0.276 N 
HETATM   14  C2  UNL     1      30.715  41.863   8.639  1.00  0.00     0.117 C 
ATOM     15  H3  UNL     1      31.500  43.412   9.784  1.00  0.00     0.185 HD
BRANCH  14  16
HETATM   16  N4  UNL     1      29.488  42.395   8.164  1.00  0.00    -0.318 N 
HETATM   17  C3  UNL     1      29.437  42.999   6.875  1.00  0.00     0.187 C 
HETATM   18  N5  UNL     1      28.316  43.238   6.275  1.00  0.00    -0.373 N 
HETATM   19  N6  UNL     1      30.632  43.371   6.188  1.00  0.00    -0.064 NA
ATOM     20  H52 UNL     1      27.462  42.971   6.766  1.00  0.00     0.158 HD
ATOM     21  H51 UNL     1      28.279  43.670   5.352  1.00  0.00     0.158 HD
ATOM     22  H4  UNL     1      28.649  42.346   8.742  1.00  0.00     0.169 HD
ENDBRANCH  14  16
ENDBRANCH   8   9
ENDBRANCH   1   8
BRANCH   5  23
HETATM   23  N10 UNL     1      30.379  40.350   3.183  1.00  0.00    -0.019 N 
HETATM   24  C7  UNL     1      29.364  40.721   2.260  1.00  0.00     0.708 C 
HETATM   25  N11 UNL     1      28.723  39.771   1.638  1.00  0.00    -0.233 N 
HETATM   26  N12 UNL     1      29.084  42.080   2.045  1.00  0.00    -0.090 N 
ATOM     27 2H11 UNL     1      28.926  38.784   1.794  1.00  0.00     0.174 HD
ATOM     28 1H11 UNL     1      27.994  40.037   0.976  1.00  0.00     0.174 HD
ATOM     29  H12 UNL     1      28.680  42.630   2.804  1.00  0.00     0.210 HD
ATOM     30  H10 UNL     1      31.353  40.505   2.924  1.00  0.00     0.203 HD
BRANCH  26  31
HETATM   31  N13 UNL     1      29.343  42.695   0.824  1.00  0.00    -0.087 N 
HETATM   32  N14 UNL     1      30.254  43.539   0.725  1.00  0.00    -0.303 N 
ATOM     33 2H14 UNL     1      30.823  43.794   1.531  1.00  0.00     0.181 HD
ATOM     34 1H14 UNL     1      30.443  43.990  -0.170  1.00  0.00     0.181 HD
BRANCH  31  35
HETATM   35  O1  UNL     1      28.579  42.353  -0.256  1.00  0.00    -0.253 OA
ATOM     36  H1  UNL     1      28.670  42.859  -1.056  1.00  0.00     0.248 HD
ENDBRANCH  31  35
ENDBRANCH  26  31
ENDBRANCH   5  23
TORSDOF 6
ENDMDL
MODEL 5
REMARK VINA RESULT: -6.817697649      1.348      1.763
REMARK  6 active torsions:
REMARK  status: ('A' for Active; 'I' for Inactive)
REMARK    1  A    between atoms: C2_6  and  N4_7 
REMARK       I    between atoms: N4_7  and  C3_9 
REMARK    2  A    between atoms: C4_14  and  C5_15 
REMARK    3  A    between atoms: C5_15  and  N7_16 
REMARK    4  A    between atoms: C6_20  and  N10_21 
REMARK       I    between atoms: N10_21  and  C7_23 
REMARK       I    between atoms: C7_23  and  N12_27 
REMARK    5  A    between atoms: N12_27  and  N13_29 
REMARK    6  A    between atoms: N13_29  and  O1_33 
ROOT
HETATM    1  N7  UNL     1      31.258  40.580   8.508  1.00  0.00    -0.201 N 
HETATM    2  N8  UNL     1      30.516  41.642   8.243  1.00  0.00     0.011 NA
HETATM    3  N9  UNL     1      30.322  41.776   6.930  1.00  0.00    -0.113 N 
ATOM      4  H9  UNL     1      29.788  42.508   6.461  1.00  0.00     0.203 HD
HETATM    5  C6  UNL     1      30.969  40.758   6.350  1.00  0.00     0.725 A 
HETATM    6  N15 UNL     1      31.527  40.049   7.334  1.00  0.00    -0.115 N 
ATOM      7  H15 UNL     1      32.086  39.208   7.195  1.00  0.00     0.207 HD
ENDROOT
BRANCH   1   8
HETATM    8  C5  UNL     1      31.667  40.154   9.795  1.00  0.00     0.196 C 
BRANCH   8   9
HETATM    9  C4  UNL     1      30.666  39.790  10.792  1.00  0.00     0.167 C 
HETATM   10  N1  UNL     1      29.896  40.808  11.432  1.00  0.00    -0.205 NA
HETATM   11  C1  UNL     1      30.619  41.625  12.379  1.00  0.00     0.134 C 
HETATM   12  N2  UNL     1      29.131  39.929  12.272  1.00  0.00    -0.046 NA
HETATM   13  N3  UNL     1      30.169  39.143  12.845  1.00  0.00    -0.276 N 
HETATM   14  C2  UNL     1      31.149  39.025  11.976  1.00  0.00     0.117 C 
ATOM     15  H3  UNL     1      30.155  38.736  13.780  1.00  0.00     0.185 HD
BRANCH  14  16
HETATM   16  N4  UNL     1      32.367  38.320  12.158  1.00  0.00    -0.318 N 
HETATM   17  C3  UNL     1      32.334  36.957  12.570  1.00  0.00     0.187 C 
HETATM   18  N5  UNL     1      33.370  36.187  12.476  1.00  0.00    -0.373 N 
HETATM   19  N6  UNL     1      31.147  36.379  13.113  1.00  0.00    -0.064 NA
ATOM     20  H52 UNL     1      34.219  36.600  12.088  1.00  0.00     0.158 HD
ATOM     21  H51 UNL     1      33.347  35.211  12.771  1.00  0.00     0.158 HD
ATOM     22  H4  UNL     1      33.260  38.786  11.994  1.00  0.00     0.169 HD
ENDBRANCH  14  16
ENDBRANCH   8   9
ENDBRANCH   1   8
BRANCH   5  23
HETATM   23  N10 UNL     1      31.032  40.519   5.091  1.00  0.00    -0.019 N 
HETATM   24  C7  UNL     1      29.896  40.169   4.310  1.00  0.00     0.708 C 
HETATM   25  N11 UNL     1      29.386  38.980   4.466  1.00  0.00    -0.233 N 
HETATM   26  N12 UNL     1      29.363  41.101   3.405  1.00  0.00    -0.090 N 
ATOM     27 2H11 UNL     1      29.774  38.303   5.124  1.00  0.00     0.174 HD
ATOM     28 1H11 UNL     1      28.572  38.729   3.906  1.00  0.00     0.174 HD
ATOM     29  H12 UNL     1      28.930  41.951   3.765  1.00  0.00     0.210 HD
ATOM     30  H10 UNL     1      31.939  40.582   4.630  1.00  0.00     0.203 HD
BRANCH  26  31
HETATM   31  N13 UNL     1      29.411  40.893   2.031  1.00  0.00    -0.087 N 
HETATM   32  N14 UNL     1      29.349  41.859   1.245  1.00  0.00    -0.303 N 
ATOM     33 2H14 UNL     1      29.264  42.813   1.592  1.00  0.00     0.181 HD
ATOM     34 1H14 UNL     1      29.384  41.706   0.237  1.00  0.00     0.181 HD
BRANCH  31  35
HETATM   35  O1  UNL     1      29.525  39.614   1.565  1.00  0.00    -0.253 OA
ATOM     36  H1  UNL     1      30.357  39.334   1.201  1.00  0.00     0.248 HD
ENDBRANCH  31  35
ENDBRANCH  26  31
ENDBRANCH   5  23
TORSDOF 6
ENDMDL
