MODEL 1
REMARK VINA RESULT: -6.684674354      0.000      0.000
REMARK  6 active torsions:
REMARK  status: ('A' for Active; 'I' for Inactive)
REMARK    1  A    between atoms: C4_10  and  C5_11 
REMARK    2  A    between atoms: C7_16  and  C8_17 
REMARK       I    between atoms: C8_17  and  N7_19 
REMARK    3  A    between atoms: N7_19  and  N8_21 
REMARK    4  A    between atoms: N9_24  and  C9_25 
REMARK    5  A    between atoms: C9_25  and  C10_26 
REMARK    6  A    between atoms: C10_26  and  O2_27 
ROOT
HETATM    1  N1  UNL     1      27.897  43.755   3.921  1.00  0.00    -0.191 NA
HETATM    2  C1  UNL     1      28.465  42.792   3.607  1.00  0.00     0.105 C 
HETATM    3  C2  UNL     1      29.130  41.591   3.197  1.00  0.00     0.116 A 
HETATM    4  C3  UNL     1      29.155  41.212   1.839  1.00  0.00     0.154 A 
HETATM    5  N2  UNL     1      28.628  41.927   0.740  1.00  0.00    -0.080 NA
HETATM    6  N3  UNL     1      29.783  40.038   1.836  1.00  0.00    -0.286 N 
ATOM      7  H3  UNL     1      29.970  39.483   1.002  1.00  0.00     0.188 HD
HETATM    8  N4  UNL     1      30.132  39.690   3.067  1.00  0.00    -0.297 N 
ATOM      9  H4  UNL     1      30.624  38.831   3.310  1.00  0.00     0.187 HD
HETATM   10  C4  UNL     1      29.739  40.646   3.965  1.00  0.00     0.091 A 
ENDROOT
BRANCH  10  11
HETATM   11  C5  UNL     1      29.874  40.544   5.410  1.00  0.00     0.103 A 
HETATM   12  C6  UNL     1      29.466  39.374   6.077  1.00  0.00     0.136 A 
HETATM   13  N5  UNL     1      28.784  38.400   5.260  1.00  0.00    -0.082 NA
HETATM   14  N6  UNL     1      29.640  39.163   7.349  1.00  0.00    -0.325 N 
HETATM   15  C7  UNL     1      30.247  40.087   8.162  1.00  0.00     0.182 A 
ATOM     16  H6  UNL     1      29.314  38.285   7.755  1.00  0.00     0.169 HD
HETATM   17  N9  UNL     1      30.641  41.195   7.575  1.00  0.00    -0.293 N 
HETATM   18  C11 UNL     1      30.478  41.455   6.227  1.00  0.00     0.265 A 
HETATM   19  O3  UNL     1      30.908  42.551   5.781  1.00  0.00    -0.267 OA
BRANCH  15  20
HETATM   20  C8  UNL     1      30.386  39.705   9.554  1.00  0.00     0.303 C 
HETATM   21  O1  UNL     1      29.606  40.041  10.435  1.00  0.00    -0.263 OA
HETATM   22  N7  UNL     1      31.487  38.894   9.928  1.00  0.00    -0.270 N 
ATOM     23  H7  UNL     1      32.165  38.587   9.232  1.00  0.00     0.189 HD
BRANCH  22  24
HETATM   24  N8  UNL     1      31.625  38.522  11.265  1.00  0.00    -0.342 N 
ATOM     25  H82 UNL     1      31.350  39.174  12.000  1.00  0.00     0.176 HD
ATOM     26  H81 UNL     1      32.000  37.599  11.482  1.00  0.00     0.176 HD
ENDBRANCH  22  24
ENDBRANCH  15  20
BRANCH  17  27
HETATM   27  C9  UNL     1      31.232  42.276   8.335  1.00  0.00     0.160 C 
BRANCH  27  28
HETATM   28  C10 UNL     1      32.706  42.139   8.549  1.00  0.00     0.184 C 
BRANCH  28  29
HETATM   29  O2  UNL     1      33.462  42.438   7.465  1.00  0.00    -0.399 OA
ATOM     30  H2  UNL     1      34.361  42.671   7.664  1.00  0.00     0.209 HD
ENDBRANCH  28  29
ENDBRANCH  27  28
ENDBRANCH  17  27
ENDBRANCH  10  11
TORSDOF 6
ENDMDL
MODEL 2
REMARK VINA RESULT: -6.452125178      2.896      7.789
REMARK  6 active torsions:
REMARK  status: ('A' for Active; 'I' for Inactive)
REMARK    1  A    between atoms: C4_10  and  C5_11 
REMARK    2  A    between atoms: C7_16  and  C8_17 
REMARK       I    between atoms: C8_17  and  N7_19 
REMARK    3  A    between atoms: N7_19  and  N8_21 
REMARK    4  A    between atoms: N9_24  and  C9_25 
REMARK    5  A    between atoms: C9_25  and  C10_26 
REMARK    6  A    between atoms: C10_26  and  O2_27 
ROOT
HETATM    1  N1  UNL     1      33.821  40.792  12.943  1.00  0.00    -0.191 NA
HETATM    2  C1  UNL     1      33.403  39.713  12.846  1.00  0.00     0.105 C 
HETATM    3  C2  UNL     1      32.930  38.366  12.734  1.00  0.00     0.116 A 
HETATM    4  C3  UNL     1      33.224  37.415  13.733  1.00  0.00     0.154 A 
HETATM    5  N2  UNL     1      33.924  37.632  14.941  1.00  0.00    -0.080 NA
HETATM    6  N3  UNL     1      32.696  36.282  13.276  1.00  0.00    -0.286 N 
ATOM      7  H3  UNL     1      32.733  35.388  13.763  1.00  0.00     0.188 HD
HETATM    8  N4  UNL     1      32.116  36.477  12.100  1.00  0.00    -0.297 N 
ATOM      9  H4  UNL     1      31.644  35.753  11.558  1.00  0.00     0.187 HD
HETATM   10  C4  UNL     1      32.237  37.785  11.715  1.00  0.00     0.091 A 
ENDROOT
BRANCH  10  11
HETATM   11  C5  UNL     1      31.801  38.327  10.438  1.00  0.00     0.103 A 
HETATM   12  C6  UNL     1      32.274  37.768   9.235  1.00  0.00     0.136 A 
HETATM   13  N5  UNL     1      33.305  36.770   9.379  1.00  0.00    -0.082 NA
HETATM   14  N6  UNL     1      31.862  38.129   8.054  1.00  0.00    -0.325 N 
HETATM   15  C7  UNL     1      30.914  39.105   7.882  1.00  0.00     0.182 A 
ATOM     16  H6  UNL     1      32.257  37.672   7.232  1.00  0.00     0.169 HD
HETATM   17  N9  UNL     1      30.448  39.652   8.984  1.00  0.00    -0.293 N 
HETATM   18  C11 UNL     1      30.857  39.296  10.255  1.00  0.00     0.265 A 
HETATM   19  O3  UNL     1      30.328  39.886  11.233  1.00  0.00    -0.267 OA
BRANCH  15  20
HETATM   20  C8  UNL     1      30.542  39.386   6.509  1.00  0.00     0.303 C 
HETATM   21  O1  UNL     1      29.577  38.886   5.947  1.00  0.00    -0.263 OA
HETATM   22  N7  UNL     1      31.336  40.294   5.764  1.00  0.00    -0.270 N 
ATOM     23  H7  UNL     1      32.151  40.738   6.187  1.00  0.00     0.189 HD
BRANCH  22  24
HETATM   24  N8  UNL     1      30.983  40.570   4.444  1.00  0.00    -0.342 N 
ATOM     25  H82 UNL     1      31.679  40.952   3.806  1.00  0.00     0.176 HD
ATOM     26  H81 UNL     1      30.027  40.381   4.141  1.00  0.00     0.176 HD
ENDBRANCH  22  24
ENDBRANCH  15  20
BRANCH  17  27
HETATM   27  C9  UNL     1      29.495  40.740   8.935  1.00  0.00     0.160 C 
BRANCH  27  28
HETATM   28  C10 UNL     1      30.117  42.090   8.762  1.00  0.00     0.184 C 
BRANCH  28  29
HETATM   29  O2  UNL     1      30.019  42.596   7.508  1.00  0.00    -0.399 OA
ATOM     30  H2  UNL     1      30.651  42.244   6.892  1.00  0.00     0.209 HD
ENDBRANCH  28  29
ENDBRANCH  27  28
ENDBRANCH  17  27
ENDBRANCH  10  11
TORSDOF 6
ENDMDL
MODEL 3
REMARK VINA RESULT: -6.306945512      2.002      6.335
REMARK  6 active torsions:
REMARK  status: ('A' for Active; 'I' for Inactive)
REMARK    1  A    between atoms: C4_10  and  C5_11 
REMARK    2  A    between atoms: C7_16  and  C8_17 
REMARK       I    between atoms: C8_17  and  N7_19 
REMARK    3  A    between atoms: N7_19  and  N8_21 
REMARK    4  A    between atoms: N9_24  and  C9_25 
REMARK    5  A    between atoms: C9_25  and  C10_26 
REMARK    6  A    between atoms: C10_26  and  O2_27 
ROOT
HETATM    1  N1  UNL     1      27.139  41.298   9.808  1.00  0.00    -0.191 NA
HETATM    2  C1  UNL     1      28.177  40.779   9.814  1.00  0.00     0.105 C 
HETATM    3  C2  UNL     1      29.473  40.169   9.849  1.00  0.00     0.116 A 
HETATM    4  C3  UNL     1      30.074  39.830  11.078  1.00  0.00     0.154 A 
HETATM    5  N2  UNL     1      29.517  39.965  12.370  1.00  0.00    -0.080 NA
HETATM    6  N3  UNL     1      31.272  39.358  10.741  1.00  0.00    -0.286 N 
ATOM      7  H3  UNL     1      31.970  39.021  11.403  1.00  0.00     0.188 HD
HETATM    8  N4  UNL     1      31.433  39.387   9.426  1.00  0.00    -0.297 N 
ATOM      9  H4  UNL     1      32.272  39.075   8.936  1.00  0.00     0.187 HD
HETATM   10  C4  UNL     1      30.316  39.892   8.816  1.00  0.00     0.091 A 
ENDROOT
BRANCH  10  11
HETATM   11  C5  UNL     1      30.185  40.155   7.391  1.00  0.00     0.103 A 
HETATM   12  C6  UNL     1      30.101  39.085   6.480  1.00  0.00     0.136 A 
HETATM   13  N5  UNL     1      30.313  37.774   7.043  1.00  0.00    -0.082 NA
HETATM   14  N6  UNL     1      29.887  39.230   5.205  1.00  0.00    -0.325 N 
HETATM   15  C7  UNL     1      29.724  40.466   4.632  1.00  0.00     0.182 A 
ATOM     16  H6  UNL     1      29.839  38.401   4.613  1.00  0.00     0.169 HD
HETATM   17  N9  UNL     1      29.797  41.492   5.452  1.00  0.00    -0.293 N 
HETATM   18  C11 UNL     1      30.020  41.379   6.811  1.00  0.00     0.265 A 
HETATM   19  O3  UNL     1      30.059  42.437   7.493  1.00  0.00    -0.267 OA
BRANCH  15  20
HETATM   20  C8  UNL     1      29.474  40.470   3.203  1.00  0.00     0.303 C 
HETATM   21  O1  UNL     1      30.089  41.165   2.406  1.00  0.00    -0.263 OA
HETATM   22  N7  UNL     1      28.462  39.621   2.689  1.00  0.00    -0.270 N 
ATOM     23  H7  UNL     1      27.921  39.022   3.313  1.00  0.00     0.189 HD
BRANCH  22  24
HETATM   24  N8  UNL     1      28.219  39.619   1.317  1.00  0.00    -0.342 N 
ATOM     25  H82 UNL     1      28.996  39.741   0.667  1.00  0.00     0.176 HD
ATOM     26  H81 UNL     1      27.262  39.495   0.987  1.00  0.00     0.176 HD
ENDBRANCH  22  24
ENDBRANCH  15  20
BRANCH  17  27
HETATM   27  C9  UNL     1      29.711  42.851   4.961  1.00  0.00     0.160 C 
BRANCH  27  28
HETATM   28  C10 UNL     1      28.312  43.354   4.795  1.00  0.00     0.184 C 
BRANCH  28  29
HETATM   29  O2  UNL     1      27.847  43.312   3.522  1.00  0.00    -0.399 OA
ATOM     30  H2  UNL     1      27.137  42.697   3.383  1.00  0.00     0.209 HD
ENDBRANCH  28  29
ENDBRANCH  27  28
ENDBRANCH  17  27
ENDBRANCH  10  11
TORSDOF 6
ENDMDL
MODEL 4
REMARK VINA RESULT: -6.265832054      2.079      3.273
REMARK  6 active torsions:
REMARK  status: ('A' for Active; 'I' for Inactive)
REMARK    1  A    between atoms: C4_10  and  C5_11 
REMARK    2  A    between atoms: C7_16  and  C8_17 
REMARK       I    between atoms: C8_17  and  N7_19 
REMARK    3  A    between atoms: N7_19  and  N8_21 
REMARK    4  A    between atoms: N9_24  and  C9_25 
REMARK    5  A    between atoms: C9_25  and  C10_26 
REMARK    6  A    between atoms: C10_26  and  O2_27 
ROOT
HETATM    1  N1  UNL     1      27.071  44.988   3.827  1.00  0.00    -0.191 NA
HETATM    2  C1  UNL     1      27.728  44.468   3.022  1.00  0.00     0.105 C 
HETATM    3  C2  UNL     1      28.503  43.827   2.003  1.00  0.00     0.116 A 
HETATM    4  C3  UNL     1      28.544  44.350   0.694  1.00  0.00     0.154 A 
HETATM    5  N2  UNL     1      27.928  45.532   0.226  1.00  0.00    -0.080 NA
HETATM    6  N3  UNL     1      29.287  43.480   0.014  1.00  0.00    -0.286 N 
ATOM      7  H3  UNL     1      29.515  43.563  -0.976  1.00  0.00     0.188 HD
HETATM    8  N4  UNL     1      29.691  42.493   0.801  1.00  0.00    -0.297 N 
ATOM      9  H4  UNL     1      30.272  41.711   0.499  1.00  0.00     0.187 HD
HETATM   10  C4  UNL     1      29.219  42.669   2.074  1.00  0.00     0.091 A 
ENDROOT
BRANCH  10  11
HETATM   11  C5  UNL     1      29.389  41.727   3.169  1.00  0.00     0.103 A 
HETATM   12  C6  UNL     1      29.290  40.343   2.932  1.00  0.00     0.136 A 
HETATM   13  N5  UNL     1      28.863  39.970   1.606  1.00  0.00    -0.082 NA
HETATM   14  N6  UNL     1      29.522  39.433   3.832  1.00  0.00    -0.325 N 
HETATM   15  C7  UNL     1      29.889  39.755   5.114  1.00  0.00     0.182 A 
ATOM     16  H6  UNL     1      29.429  38.449   3.577  1.00  0.00     0.169 HD
HETATM   17  N9  UNL     1      29.990  41.041   5.375  1.00  0.00    -0.293 N 
HETATM   18  C11 UNL     1      29.755  42.037   4.446  1.00  0.00     0.265 A 
HETATM   19  O3  UNL     1      29.895  43.232   4.815  1.00  0.00    -0.267 OA
BRANCH  15  20
HETATM   20  C8  UNL     1      30.132  38.634   6.001  1.00  0.00     0.303 C 
HETATM   21  O1  UNL     1      29.493  37.590   5.971  1.00  0.00    -0.263 OA
HETATM   22  N7  UNL     1      31.168  38.741   6.963  1.00  0.00    -0.270 N 
ATOM     23  H7  UNL     1      31.728  39.591   7.028  1.00  0.00     0.189 HD
BRANCH  22  24
HETATM   24  N8  UNL     1      31.406  37.666   7.817  1.00  0.00    -0.342 N 
ATOM     25  H82 UNL     1      31.426  37.818   8.825  1.00  0.00     0.176 HD
ATOM     26  H81 UNL     1      31.558  36.741   7.413  1.00  0.00     0.176 HD
ENDBRANCH  22  24
ENDBRANCH  15  20
BRANCH  17  27
HETATM   27  C9  UNL     1      30.301  41.513   6.707  1.00  0.00     0.160 C 
BRANCH  27  28
HETATM   28  C10 UNL     1      29.111  41.640   7.604  1.00  0.00     0.184 C 
BRANCH  28  29
HETATM   29  O2  UNL     1      28.888  40.563   8.396  1.00  0.00    -0.399 OA
ATOM     30  H2  UNL     1      28.191  40.679   9.031  1.00  0.00     0.209 HD
ENDBRANCH  28  29
ENDBRANCH  27  28
ENDBRANCH  17  27
ENDBRANCH  10  11
TORSDOF 6
ENDMDL
MODEL 5
REMARK VINA RESULT: -6.240965026      1.391      1.662
REMARK  6 active torsions:
REMARK  status: ('A' for Active; 'I' for Inactive)
REMARK    1  A    between atoms: C4_10  and  C5_11 
REMARK    2  A    between atoms: C7_16  and  C8_17 
REMARK       I    between atoms: C8_17  and  N7_19 
REMARK    3  A    between atoms: N7_19  and  N8_21 
REMARK    4  A    between atoms: N9_24  and  C9_25 
REMARK    5  A    between atoms: C9_25  and  C10_26 
REMARK    6  A    between atoms: C10_26  and  O2_27 
ROOT
HETATM    1  N1  UNL     1      27.750  43.944   5.604  1.00  0.00    -0.191 NA
HETATM    2  C1  UNL     1      28.380  43.267   4.902  1.00  0.00     0.105 C 
HETATM    3  C2  UNL     1      29.119  42.420   4.014  1.00  0.00     0.116 A 
HETATM    4  C3  UNL     1      29.004  42.569   2.616  1.00  0.00     0.154 A 
HETATM    5  N2  UNL     1      28.251  43.540   1.919  1.00  0.00    -0.080 NA
HETATM    6  N3  UNL     1      29.760  41.595   2.117  1.00  0.00    -0.286 N 
ATOM      7  H3  UNL     1      29.896  41.419   1.122  1.00  0.00     0.188 HD
HETATM    8  N4  UNL     1      30.313  40.885   3.090  1.00  0.00    -0.297 N 
ATOM      9  H4  UNL     1      30.932  40.087   2.948  1.00  0.00     0.187 HD
HETATM   10  C4  UNL     1      29.936  41.372   4.313  1.00  0.00     0.091 A 
ENDROOT
BRANCH  10  11
HETATM   11  C5  UNL     1      30.278  40.775   5.595  1.00  0.00     0.103 A 
HETATM   12  C6  UNL     1      30.024  39.411   5.830  1.00  0.00     0.136 A 
HETATM   13  N5  UNL     1      29.279  38.733   4.798  1.00  0.00    -0.082 NA
HETATM   14  N6  UNL     1      30.385  38.779   6.908  1.00  0.00    -0.325 N 
HETATM   15  C7  UNL     1      31.057  39.405   7.927  1.00  0.00     0.182 A 
ATOM     16  H6  UNL     1      30.161  37.787   6.999  1.00  0.00     0.169 HD
HETATM   17  N9  UNL     1      31.313  40.682   7.745  1.00  0.00    -0.293 N 
HETATM   18  C11 UNL     1      30.948  41.389   6.613  1.00  0.00     0.265 A 
HETATM   19  O3  UNL     1      31.260  42.607   6.553  1.00  0.00    -0.267 OA
BRANCH  15  20
HETATM   20  C8  UNL     1      31.409  38.567   9.057  1.00  0.00     0.303 C 
HETATM   21  O1  UNL     1      30.885  38.654  10.160  1.00  0.00    -0.263 OA
HETATM   22  N7  UNL     1      32.418  37.587   8.886  1.00  0.00    -0.270 N 
ATOM     23  H7  UNL     1      32.886  37.475   7.987  1.00  0.00     0.189 HD
BRANCH  22  24
HETATM   24  N8  UNL     1      32.760  36.778   9.969  1.00  0.00    -0.342 N 
ATOM     25  H82 UNL     1      32.410  35.821  10.013  1.00  0.00     0.176 HD
ATOM     26  H81 UNL     1      33.358  37.162  10.700  1.00  0.00     0.176 HD
ENDBRANCH  22  24
ENDBRANCH  15  20
BRANCH  17  27
HETATM   27  C9  UNL     1      31.954  41.473   8.774  1.00  0.00     0.160 C 
BRANCH  27  28
HETATM   28  C10 UNL     1      31.002  42.133   9.720  1.00  0.00     0.184 C 
BRANCH  28  29
HETATM   29  O2  UNL     1      30.868  41.503  10.912  1.00  0.00    -0.399 OA
ATOM     30  H2  UNL     1      30.790  40.558  10.851  1.00  0.00     0.209 HD
ENDBRANCH  28  29
ENDBRANCH  27  28
ENDBRANCH  17  27
ENDBRANCH  10  11
TORSDOF 6
ENDMDL
