MODEL 1
REMARK VINA RESULT: -6.245714129      0.000      0.000
REMARK  8 active torsions:
REMARK  status: ('A' for Active; 'I' for Inactive)
REMARK    1  A    between atoms: C2_2  and  C3_3 
REMARK    2  A    between atoms: C3_3  and  S1_4 
REMARK    3  A    between atoms: S1_4  and  C4_5 
REMARK    4  A    between atoms: C5_8  and  N2_9 
REMARK    5  A    between atoms: C6_14  and  N4_15 
REMARK    6  A    between atoms: N4_15  and  C7_17 
REMARK    7  A    between atoms: N10_28  and  N11_30 
REMARK       I    between atoms: C8_32  and  N13_34 
REMARK    8  A    between atoms: N13_34  and  N14_36 
ROOT
HETATM    1  C4  UNL     1      29.900  39.582   9.143  1.00  0.00     0.174 A 
HETATM    2  N1  UNL     1      31.035  38.874   9.430  1.00  0.00    -0.170 N 
ATOM      3  H1  UNL     1      31.408  38.902  10.380  1.00  0.00     0.186 HD
HETATM    4  C5  UNL     1      31.674  38.145   8.503  1.00  0.00     0.692 A 
HETATM    5  N3  UNL     1      31.206  38.089   7.245  1.00  0.00    -0.022 N 
ATOM      6  H3  UNL     1      31.694  37.535   6.542  1.00  0.00     0.203 HD
HETATM    7  C6  UNL     1      30.080  38.774   6.911  1.00  0.00     0.713 A 
HETATM    8  N9  UNL     1      29.472  39.492   7.868  1.00  0.00    -0.169 N 
ATOM      9  H9  UNL     1      28.628  40.005   7.612  1.00  0.00     0.186 HD
ENDROOT
BRANCH   1  10
HETATM   10  S1  UNL     1      29.062  40.541  10.369  1.00  0.00    -0.087 SA
BRANCH  10  11
HETATM   11  C3  UNL     1      30.034  40.830  11.833  1.00  0.00     0.136 C 
BRANCH  11  12
HETATM   12  C2  UNL     1      29.995  39.726  12.789  1.00  0.00     0.009 C 
HETATM   13  C1  UNL     1      28.771  39.431  13.559  1.00  0.00     0.066 C 
HETATM   14  N10 UNL     1      31.041  38.967  12.996  1.00  0.00    -0.306 N 
ATOM     15  H10 UNL     1      31.904  39.140  12.482  1.00  0.00     0.186 HD
BRANCH  14  16
HETATM   16  N11 UNL     1      30.977  37.936  13.905  1.00  0.00    -0.273 N 
HETATM   17  C8  UNL     1      31.475  36.772  13.673  1.00  0.00     0.221 C 
HETATM   18  N12 UNL     1      31.378  35.755  14.642  1.00  0.00    -0.061 NA
HETATM   19  N13 UNL     1      32.120  36.534  12.430  1.00  0.00    -0.279 N 
ATOM     20  H13 UNL     1      31.576  36.467  11.570  1.00  0.00     0.189 HD
ATOM     21  H11 UNL     1      30.516  38.101  14.800  1.00  0.00     0.189 HD
BRANCH  19  22
HETATM   22  N14 UNL     1      33.529  36.391  12.401  1.00  0.00    -0.343 N 
ATOM     23 2H14 UNL     1      33.975  35.692  12.997  1.00  0.00     0.176 HD
ATOM     24 1H14 UNL     1      34.077  36.991  11.784  1.00  0.00     0.176 HD
ENDBRANCH  19  22
ENDBRANCH  14  16
ENDBRANCH  11  12
ENDBRANCH  10  11
ENDBRANCH   1  10
BRANCH   4  25
HETATM   25  N2  UNL     1      32.735  37.508   8.848  1.00  0.00    -0.234 N 
ATOM     26  H22 UNL     1      33.647  37.967   8.863  1.00  0.00     0.174 HD
ATOM     27  H21 UNL     1      32.650  36.526   9.110  1.00  0.00     0.174 HD
ENDBRANCH   4  25
BRANCH   7  28
HETATM   28  N4  UNL     1      29.547  38.739   5.578  1.00  0.00    -0.019 N 
ATOM     29  H4  UNL     1      28.891  37.997   5.338  1.00  0.00     0.203 HD
BRANCH  28  30
HETATM   30  C7  UNL     1      29.853  39.585   4.685  1.00  0.00     0.728 A 
HETATM   31  N5  UNL     1      30.790  40.536   4.756  1.00  0.00    -0.115 N 
HETATM   32  N6  UNL     1      30.759  41.176   3.602  1.00  0.00    -0.213 N 
ATOM     33  H5  UNL     1      31.408  40.728   5.544  1.00  0.00     0.207 HD
HETATM   34  N7  UNL     1      29.837  40.659   2.815  1.00  0.00    -0.213 N 
ATOM     35  H6  UNL     1      31.363  41.960   3.354  1.00  0.00     0.210 HD
HETATM   36  N8  UNL     1      29.272  39.671   3.483  1.00  0.00    -0.115 N 
ATOM     37  H7  UNL     1      29.605  40.964   1.869  1.00  0.00     0.210 HD
ATOM     38  H8  UNL     1      28.519  39.074   3.141  1.00  0.00     0.207 HD
ENDBRANCH  28  30
ENDBRANCH   7  28
TORSDOF 8
ENDMDL
MODEL 2
REMARK VINA RESULT: -6.241806190      3.523      5.848
REMARK  8 active torsions:
REMARK  status: ('A' for Active; 'I' for Inactive)
REMARK    1  A    between atoms: C2_2  and  C3_3 
REMARK    2  A    between atoms: C3_3  and  S1_4 
REMARK    3  A    between atoms: S1_4  and  C4_5 
REMARK    4  A    between atoms: C5_8  and  N2_9 
REMARK    5  A    between atoms: C6_14  and  N4_15 
REMARK    6  A    between atoms: N4_15  and  C7_17 
REMARK    7  A    between atoms: N10_28  and  N11_30 
REMARK       I    between atoms: C8_32  and  N13_34 
REMARK    8  A    between atoms: N13_34  and  N14_36 
ROOT
HETATM    1  C4  UNL     1      29.239  41.766   4.664  1.00  0.00     0.174 A 
HETATM    2  N1  UNL     1      29.239  41.391   3.349  1.00  0.00    -0.170 N 
ATOM      3  H1  UNL     1      29.184  42.113   2.630  1.00  0.00     0.186 HD
HETATM    4  C5  UNL     1      29.310  40.104   2.975  1.00  0.00     0.692 A 
HETATM    5  N3  UNL     1      29.383  39.133   3.900  1.00  0.00    -0.022 N 
ATOM      6  H3  UNL     1      29.435  38.156   3.612  1.00  0.00     0.203 HD
HETATM    7  C6  UNL     1      29.387  39.455   5.221  1.00  0.00     0.713 A 
HETATM    8  N9  UNL     1      29.315  40.754   5.552  1.00  0.00    -0.169 N 
ATOM      9  H9  UNL     1      29.317  40.991   6.545  1.00  0.00     0.186 HD
ENDROOT
BRANCH   1  10
HETATM   10  S1  UNL     1      29.147  43.463   5.152  1.00  0.00    -0.087 SA
BRANCH  10  11
HETATM   11  C3  UNL     1      28.357  43.707   6.729  1.00  0.00     0.136 C 
BRANCH  11  12
HETATM   12  C2  UNL     1      29.071  43.091   7.844  1.00  0.00     0.009 C 
HETATM   13  C1  UNL     1      28.346  42.354   8.898  1.00  0.00     0.066 C 
HETATM   14  N10 UNL     1      30.373  43.172   7.947  1.00  0.00    -0.306 N 
ATOM     15  H10 UNL     1      30.909  43.672   7.238  1.00  0.00     0.186 HD
BRANCH  14  16
HETATM   16  N11 UNL     1      31.021  42.584   9.010  1.00  0.00    -0.273 N 
HETATM   17  C8  UNL     1      32.163  42.003   8.893  1.00  0.00     0.221 C 
HETATM   18  N12 UNL     1      32.777  41.418  10.017  1.00  0.00    -0.061 NA
HETATM   19  N13 UNL     1      32.789  41.964   7.619  1.00  0.00    -0.279 N 
ATOM     20  H13 UNL     1      32.417  41.370   6.879  1.00  0.00     0.189 HD
ATOM     21  H11 UNL     1      30.577  42.610   9.928  1.00  0.00     0.189 HD
BRANCH  19  22
HETATM   22  N14 UNL     1      33.938  42.762   7.390  1.00  0.00    -0.343 N 
ATOM     23 2H14 UNL     1      33.919  43.469   6.656  1.00  0.00     0.176 HD
ATOM     24 1H14 UNL     1      34.767  42.614   7.966  1.00  0.00     0.176 HD
ENDBRANCH  19  22
ENDBRANCH  14  16
ENDBRANCH  11  12
ENDBRANCH  10  11
ENDBRANCH   1  10
BRANCH   4  25
HETATM   25  N2  UNL     1      29.304  39.830   1.719  1.00  0.00    -0.234 N 
ATOM     26  H22 UNL     1      29.535  40.538   1.021  1.00  0.00     0.174 HD
ATOM     27  H21 UNL     1      29.061  38.883   1.429  1.00  0.00     0.174 HD
ENDBRANCH   4  25
BRANCH   7  28
HETATM   28  N4  UNL     1      29.465  38.447   6.239  1.00  0.00    -0.019 N 
ATOM     29  H4  UNL     1      28.909  37.600   6.127  1.00  0.00     0.203 HD
BRANCH  28  30
HETATM   30  C7  UNL     1      30.192  38.558   7.272  1.00  0.00     0.728 A 
HETATM   31  N5  UNL     1      29.824  38.999   8.479  1.00  0.00    -0.115 N 
HETATM   32  N6  UNL     1      30.901  38.942   9.240  1.00  0.00    -0.213 N 
ATOM     33  H5  UNL     1      28.896  39.317   8.757  1.00  0.00     0.207 HD
HETATM   34  N7  UNL     1      31.926  38.480   8.553  1.00  0.00    -0.213 N 
ATOM     35  H6  UNL     1      30.935  39.215  10.222  1.00  0.00     0.210 HD
HETATM   36  N8  UNL     1      31.491  38.241   7.330  1.00  0.00    -0.115 N 
ATOM     37  H7  UNL     1      32.874  38.336   8.899  1.00  0.00     0.210 HD
ATOM     38  H8  UNL     1      32.050  37.876   6.559  1.00  0.00     0.207 HD
ENDBRANCH  28  30
ENDBRANCH   7  28
TORSDOF 8
ENDMDL
MODEL 3
REMARK VINA RESULT: -6.127847255      3.707      7.944
REMARK  8 active torsions:
REMARK  status: ('A' for Active; 'I' for Inactive)
REMARK    1  A    between atoms: C2_2  and  C3_3 
REMARK    2  A    between atoms: C3_3  and  S1_4 
REMARK    3  A    between atoms: S1_4  and  C4_5 
REMARK    4  A    between atoms: C5_8  and  N2_9 
REMARK    5  A    between atoms: C6_14  and  N4_15 
REMARK    6  A    between atoms: N4_15  and  C7_17 
REMARK    7  A    between atoms: N10_28  and  N11_30 
REMARK       I    between atoms: C8_32  and  N13_34 
REMARK    8  A    between atoms: N13_34  and  N14_36 
ROOT
HETATM    1  C4  UNL     1      30.325  39.661   8.356  1.00  0.00     0.174 A 
HETATM    2  N1  UNL     1      29.063  40.073   8.685  1.00  0.00    -0.170 N 
ATOM      3  H1  UNL     1      28.268  39.490   8.422  1.00  0.00     0.186 HD
HETATM    4  C5  UNL     1      28.837  41.220   9.344  1.00  0.00     0.692 A 
HETATM    5  N3  UNL     1      29.865  42.008   9.703  1.00  0.00    -0.022 N 
ATOM      6  H3  UNL     1      29.690  42.880  10.203  1.00  0.00     0.203 HD
HETATM    7  C6  UNL     1      31.138  41.640   9.400  1.00  0.00     0.713 A 
HETATM    8  N9  UNL     1      31.320  40.486   8.740  1.00  0.00    -0.169 N 
ATOM      9  H9  UNL     1      32.277  40.214   8.514  1.00  0.00     0.186 HD
ENDROOT
BRANCH   1  10
HETATM   10  S1  UNL     1      30.617  38.148   7.489  1.00  0.00    -0.087 SA
BRANCH  10  11
HETATM   11  C3  UNL     1      29.753  38.041   5.935  1.00  0.00     0.136 C 
BRANCH  11  12
HETATM   12  C2  UNL     1      29.890  39.236   5.106  1.00  0.00     0.009 C 
HETATM   13  C1  UNL     1      31.005  40.182   5.314  1.00  0.00     0.066 C 
HETATM   14  N10 UNL     1      29.032  39.509   4.157  1.00  0.00    -0.306 N 
ATOM     15  H10 UNL     1      28.249  38.879   3.983  1.00  0.00     0.186 HD
BRANCH  14  16
HETATM   16  N11 UNL     1      29.184  40.644   3.393  1.00  0.00    -0.273 N 
HETATM   17  C8  UNL     1      29.254  40.613   2.108  1.00  0.00     0.221 C 
HETATM   18  N12 UNL     1      29.410  41.808   1.380  1.00  0.00    -0.061 NA
HETATM   19  N13 UNL     1      29.171  39.361   1.443  1.00  0.00    -0.279 N 
ATOM     20  H13 UNL     1      29.942  38.696   1.496  1.00  0.00     0.189 HD
ATOM     21  H11 UNL     1      29.243  41.546   3.865  1.00  0.00     0.189 HD
BRANCH  19  22
HETATM   22  N14 UNL     1      28.002  39.048   0.705  1.00  0.00    -0.343 N 
ATOM     23 2H14 UNL     1      27.628  39.731   0.046  1.00  0.00     0.176 HD
ATOM     24 1H14 UNL     1      27.553  38.143   0.847  1.00  0.00     0.176 HD
ENDBRANCH  19  22
ENDBRANCH  14  16
ENDBRANCH  11  12
ENDBRANCH  10  11
ENDBRANCH   1  10
BRANCH   4  25
HETATM   25  N2  UNL     1      27.623  41.542   9.617  1.00  0.00    -0.234 N 
ATOM     26  H22 UNL     1      27.371  42.499   9.864  1.00  0.00     0.174 HD
ATOM     27  H21 UNL     1      26.908  40.815   9.581  1.00  0.00     0.174 HD
ENDBRANCH   4  25
BRANCH   7  28
HETATM   28  N4  UNL     1      32.262  42.453   9.768  1.00  0.00    -0.019 N 
ATOM     29  H4  UNL     1      32.350  42.747  10.740  1.00  0.00     0.203 HD
BRANCH  28  30
HETATM   30  C7  UNL     1      33.151  42.823   8.944  1.00  0.00     0.728 A 
HETATM   31  N5  UNL     1      33.105  42.743   7.610  1.00  0.00    -0.115 N 
HETATM   32  N6  UNL     1      34.243  43.245   7.168  1.00  0.00    -0.213 N 
ATOM     33  H5  UNL     1      32.342  42.369   7.046  1.00  0.00     0.207 HD
HETATM   34  N7  UNL     1      34.996  43.634   8.176  1.00  0.00    -0.213 N 
ATOM     35  H6  UNL     1      34.502  43.320   6.184  1.00  0.00     0.210 HD
HETATM   36  N8  UNL     1      34.323  43.374   9.281  1.00  0.00    -0.115 N 
ATOM     37  H7  UNL     1      35.922  44.057   8.114  1.00  0.00     0.210 HD
ATOM     38  H8  UNL     1      34.642  43.562  10.231  1.00  0.00     0.207 HD
ENDBRANCH  28  30
ENDBRANCH   7  28
TORSDOF 8
ENDMDL
MODEL 4
REMARK VINA RESULT: -6.108958065      3.204      7.622
REMARK  8 active torsions:
REMARK  status: ('A' for Active; 'I' for Inactive)
REMARK    1  A    between atoms: C2_2  and  C3_3 
REMARK    2  A    between atoms: C3_3  and  S1_4 
REMARK    3  A    between atoms: S1_4  and  C4_5 
REMARK    4  A    between atoms: C5_8  and  N2_9 
REMARK    5  A    between atoms: C6_14  and  N4_15 
REMARK    6  A    between atoms: N4_15  and  C7_17 
REMARK    7  A    between atoms: N10_28  and  N11_30 
REMARK       I    between atoms: C8_32  and  N13_34 
REMARK    8  A    between atoms: N13_34  and  N14_36 
ROOT
HETATM    1  C4  UNL     1      31.422  39.174   8.835  1.00  0.00     0.174 A 
HETATM    2  N1  UNL     1      31.396  38.666  10.105  1.00  0.00    -0.170 N 
ATOM      3  H1  UNL     1      31.152  37.684  10.239  1.00  0.00     0.186 HD
HETATM    4  C5  UNL     1      31.681  39.417  11.179  1.00  0.00     0.692 A 
HETATM    5  N3  UNL     1      32.005  40.713  11.032  1.00  0.00    -0.022 N 
ATOM      6  H3  UNL     1      32.220  41.282  11.851  1.00  0.00     0.203 HD
HETATM    7  C6  UNL     1      32.046  41.264   9.790  1.00  0.00     0.713 A 
HETATM    8  N9  UNL     1      31.754  40.478   8.743  1.00  0.00    -0.169 N 
ATOM      9  H9  UNL     1      31.786  40.895   7.812  1.00  0.00     0.186 HD
ENDROOT
BRANCH   1  10
HETATM   10  S1  UNL     1      31.047  38.179   7.423  1.00  0.00    -0.087 SA
BRANCH  10  11
HETATM   11  C3  UNL     1      29.526  38.635   6.616  1.00  0.00     0.136 C 
BRANCH  11  12
HETATM   12  C2  UNL     1      29.633  39.845   5.805  1.00  0.00     0.009 C 
HETATM   13  C1  UNL     1      29.472  41.182   6.409  1.00  0.00     0.066 C 
HETATM   14  N10 UNL     1      29.874  39.785   4.520  1.00  0.00    -0.306 N 
ATOM     15  H10 UNL     1      29.992  38.879   4.067  1.00  0.00     0.186 HD
BRANCH  14  16
HETATM   16  N11 UNL     1      29.967  40.942   3.780  1.00  0.00    -0.273 N 
HETATM   17  C8  UNL     1      29.810  40.964   2.503  1.00  0.00     0.221 C 
HETATM   18  N12 UNL     1      29.918  42.178   1.798  1.00  0.00    -0.061 NA
HETATM   19  N13 UNL     1      29.529  39.750   1.822  1.00  0.00    -0.279 N 
ATOM     20  H13 UNL     1      30.251  39.038   1.715  1.00  0.00     0.189 HD
ATOM     21  H11 UNL     1      30.167  41.817   4.263  1.00  0.00     0.189 HD
BRANCH  19  22
HETATM   22  N14 UNL     1      28.231  39.542   1.291  1.00  0.00    -0.343 N 
ATOM     23 2H14 UNL     1      27.599  38.888   1.753  1.00  0.00     0.176 HD
ATOM     24 1H14 UNL     1      27.951  40.051   0.453  1.00  0.00     0.176 HD
ENDBRANCH  19  22
ENDBRANCH  14  16
ENDBRANCH  11  12
ENDBRANCH  10  11
ENDBRANCH   1  10
BRANCH   4  25
HETATM   25  N2  UNL     1      31.633  38.869  12.341  1.00  0.00    -0.234 N 
ATOM     26  H22 UNL     1      30.858  39.047  12.979  1.00  0.00     0.174 HD
ATOM     27  H21 UNL     1      32.393  38.246  12.615  1.00  0.00     0.174 HD
ENDBRANCH   4  25
BRANCH   7  28
HETATM   28  N4  UNL     1      32.390  42.643   9.592  1.00  0.00    -0.019 N 
ATOM     29  H4  UNL     1      31.848  43.354  10.083  1.00  0.00     0.203 HD
BRANCH  28  30
HETATM   30  C7  UNL     1      33.335  43.022   8.836  1.00  0.00     0.728 A 
HETATM   31  N5  UNL     1      33.339  43.060   7.500  1.00  0.00    -0.115 N 
HETATM   32  N6  UNL     1      34.524  43.520   7.144  1.00  0.00    -0.213 N 
ATOM     33  H5  UNL     1      32.577  42.788   6.878  1.00  0.00     0.207 HD
HETATM   34  N7  UNL     1      35.258  43.770   8.208  1.00  0.00    -0.213 N 
ATOM     35  H6  UNL     1      34.828  43.662   6.181  1.00  0.00     0.210 HD
HETATM   36  N8  UNL     1      34.524  43.462   9.262  1.00  0.00    -0.115 N 
ATOM     37  H7  UNL     1      36.211  44.133   8.217  1.00  0.00     0.210 HD
ATOM     38  H8  UNL     1      34.815  43.546  10.236  1.00  0.00     0.207 HD
ENDBRANCH  28  30
ENDBRANCH   7  28
TORSDOF 8
ENDMDL
MODEL 5
REMARK VINA RESULT: -6.104161190      2.780      4.628
REMARK  8 active torsions:
REMARK  status: ('A' for Active; 'I' for Inactive)
REMARK    1  A    between atoms: C2_2  and  C3_3 
REMARK    2  A    between atoms: C3_3  and  S1_4 
REMARK    3  A    between atoms: S1_4  and  C4_5 
REMARK    4  A    between atoms: C5_8  and  N2_9 
REMARK    5  A    between atoms: C6_14  and  N4_15 
REMARK    6  A    between atoms: N4_15  and  C7_17 
REMARK    7  A    between atoms: N10_28  and  N11_30 
REMARK       I    between atoms: C8_32  and  N13_34 
REMARK    8  A    between atoms: N13_34  and  N14_36 
ROOT
HETATM    1  C4  UNL     1      29.758  39.630   8.965  1.00  0.00     0.174 A 
HETATM    2  N1  UNL     1      30.880  38.941   9.336  1.00  0.00    -0.170 N 
ATOM      3  H1  UNL     1      31.199  39.000  10.303  1.00  0.00     0.186 HD
HETATM    4  C5  UNL     1      31.575  38.190   8.468  1.00  0.00     0.692 A 
HETATM    5  N3  UNL     1      31.178  38.093   7.188  1.00  0.00    -0.022 N 
ATOM      6  H3  UNL     1      31.709  37.522   6.530  1.00  0.00     0.203 HD
HETATM    7  C6  UNL     1      30.069  38.759   6.771  1.00  0.00     0.713 A 
HETATM    8  N9  UNL     1      29.403  39.499   7.670  1.00  0.00    -0.169 N 
ATOM      9  H9  UNL     1      28.571  39.997   7.353  1.00  0.00     0.186 HD
ENDROOT
BRANCH   1  10
HETATM   10  S1  UNL     1      28.846  40.618  10.113  1.00  0.00    -0.087 SA
BRANCH  10  11
HETATM   11  C3  UNL     1      28.148  42.087   9.388  1.00  0.00     0.136 C 
BRANCH  11  12
HETATM   12  C2  UNL     1      29.138  42.960   8.763  1.00  0.00     0.009 C 
HETATM   13  C1  UNL     1      28.868  43.611   7.466  1.00  0.00     0.066 C 
HETATM   14  N10 UNL     1      30.295  43.191   9.329  1.00  0.00    -0.306 N 
ATOM     15  H10 UNL     1      30.518  42.760  10.225  1.00  0.00     0.186 HD
BRANCH  14  16
HETATM   16  N11 UNL     1      31.211  44.016   8.716  1.00  0.00    -0.273 N 
HETATM   17  C8  UNL     1      32.360  43.599   8.311  1.00  0.00     0.221 C 
HETATM   18  N12 UNL     1      33.256  44.491   7.691  1.00  0.00    -0.061 NA
HETATM   19  N13 UNL     1      32.704  42.235   8.500  1.00  0.00    -0.279 N 
ATOM     20  H13 UNL     1      32.909  41.878   9.434  1.00  0.00     0.189 HD
ATOM     21  H11 UNL     1      30.969  44.997   8.576  1.00  0.00     0.189 HD
BRANCH  19  22
HETATM   22  N14 UNL     1      32.759  41.375   7.375  1.00  0.00    -0.343 N 
ATOM     23 2H14 UNL     1      33.614  41.330   6.820  1.00  0.00     0.176 HD
ATOM     24 1H14 UNL     1      31.940  40.815   7.139  1.00  0.00     0.176 HD
ENDBRANCH  19  22
ENDBRANCH  14  16
ENDBRANCH  11  12
ENDBRANCH  10  11
ENDBRANCH   1  10
BRANCH   4  25
HETATM   25  N2  UNL     1      32.619  37.572   8.891  1.00  0.00    -0.234 N 
ATOM     26  H22 UNL     1      33.227  37.984   9.600  1.00  0.00     0.174 HD
ATOM     27  H21 UNL     1      32.833  36.654   8.501  1.00  0.00     0.174 HD
ENDBRANCH   4  25
BRANCH   7  28
HETATM   28  N4  UNL     1      29.612  38.680   5.412  1.00  0.00    -0.019 N 
ATOM     29  H4  UNL     1      29.061  37.869   5.132  1.00  0.00     0.203 HD
BRANCH  28  30
HETATM   30  C7  UNL     1      29.860  39.569   4.543  1.00  0.00     0.728 A 
HETATM   31  N5  UNL     1      30.814  40.504   4.589  1.00  0.00    -0.115 N 
HETATM   32  N6  UNL     1      30.701  41.205   3.476  1.00  0.00    -0.213 N 
ATOM     33  H5  UNL     1      31.494  40.647   5.335  1.00  0.00     0.207 HD
HETATM   34  N7  UNL     1      29.714  40.741   2.738  1.00  0.00    -0.213 N 
ATOM     35  H6  UNL     1      31.296  41.994   3.223  1.00  0.00     0.210 HD
HETATM   36  N8  UNL     1      29.187  39.725   3.397  1.00  0.00    -0.115 N 
ATOM     37  H7  UNL     1      29.413  41.098   1.832  1.00  0.00     0.210 HD
ATOM     38  H8  UNL     1      28.401  39.155   3.085  1.00  0.00     0.207 HD
ENDBRANCH  28  30
ENDBRANCH   7  28
TORSDOF 8
ENDMDL
