MODEL 1
REMARK VINA RESULT: -6.706404993      0.000      0.000
REMARK  7 active torsions:
REMARK  status: ('A' for Active; 'I' for Inactive)
REMARK    1  A    between atoms: N1_1  and  C1_4 
REMARK    2  A    between atoms: C2_9  and  C3_10 
REMARK    3  A    between atoms: C3_10  and  N4_11 
REMARK    4  A    between atoms: C5_14  and  C6_15 
REMARK    5  A    between atoms: C6_15  and  N6_16 
REMARK    6  A    between atoms: C6_15  and  O1_20 
REMARK    7  A    between atoms: N7_24  and  N8_25 
ROOT
HETATM    1  N4  UNL     1      29.713  39.991   6.419  1.00  0.00    -0.278 N 
HETATM    2  C4  UNL     1      29.574  39.662   5.121  1.00  0.00     0.139 A 
HETATM    3  N5  UNL     1      29.213  38.310   4.845  1.00  0.00    -0.081 NA
HETATM    4  C5  UNL     1      29.764  40.562   4.094  1.00  0.00     0.108 A 
HETATM    5  C7  UNL     1      30.113  41.850   4.471  1.00  0.00     0.284 A 
HETATM    6  O2  UNL     1      30.297  42.707   3.583  1.00  0.00    -0.265 OA
HETATM    7  N7  UNL     1      30.255  42.193   5.761  1.00  0.00    -0.170 N 
HETATM    8  C11 UNL     1      30.053  41.255   6.733  1.00  0.00     0.352 A 
HETATM    9  O3  UNL     1      30.183  41.562   7.959  1.00  0.00    -0.244 OA
ENDROOT
BRANCH   1  10
HETATM   10  C3  UNL     1      29.501  39.005   7.463  1.00  0.00     0.213 C 
BRANCH  10  11
HETATM   11  C2  UNL     1      30.719  38.695   8.222  1.00  0.00     0.131 A 
HETATM   12  N3  UNL     1      31.728  37.916   7.795  1.00  0.00    -0.273 N 
HETATM   13  N2  UNL     1      32.647  37.867   8.744  1.00  0.00    -0.131 N 
ATOM     14  H3  UNL     1      31.776  37.443   6.892  1.00  0.00     0.189 HD
HETATM   15  C1  UNL     1      32.260  38.606   9.800  1.00  0.00     0.691 A 
ATOM     16  H2  UNL     1      33.522  37.345   8.685  1.00  0.00     0.205 HD
HETATM   17  N9  UNL     1      31.060  39.109   9.451  1.00  0.00    -0.177 N 
ATOM     18  H9  UNL     1      30.492  39.720  10.038  1.00  0.00     0.185 HD
BRANCH  15  19
HETATM   19  N1  UNL     1      32.893  38.802  10.918  1.00  0.00    -0.233 N 
ATOM     20  H12 UNL     1      33.903  38.826  11.053  1.00  0.00     0.174 HD
ATOM     21  H11 UNL     1      32.499  38.965  11.845  1.00  0.00     0.174 HD
ENDBRANCH  15  19
ENDBRANCH  10  11
ENDBRANCH   1  10
BRANCH   4  22
HETATM   22  C6  UNL     1      29.599  40.142   2.704  1.00  0.00     0.359 C 
BRANCH  22  23
HETATM   23  N6  UNL     1      28.309  39.592   2.399  1.00  0.00    -0.049 N 
ATOM     24  H63 UNL     1      28.382  38.590   2.228  1.00  0.00     0.277 HD
ATOM     25  H62 UNL     1      27.719  39.586   3.231  1.00  0.00     0.277 HD
ATOM     26  H61 UNL     1      27.826  40.050   1.625  1.00  0.00     0.277 HD
ENDBRANCH  22  23
BRANCH  22  27
HETATM   27  O1  UNL     1      29.834  41.180   1.791  1.00  0.00    -0.366 OA
ATOM     28  H1  UNL     1      30.407  40.922   1.079  1.00  0.00     0.212 HD
ENDBRANCH  22  27
ENDBRANCH   4  22
BRANCH   7  29
HETATM   29  N8  UNL     1      30.606  43.485   6.162  1.00  0.00    -0.314 N 
HETATM   30  C8  UNL     1      29.796  44.666   6.420  1.00  0.00     0.145 A 
HETATM   31  C9  UNL     1      31.034  45.466   6.700  1.00  0.00     0.043 A 
HETATM   32  C10 UNL     1      31.819  44.189   6.480  1.00  0.00     0.145 A 
ENDBRANCH   7  29
TORSDOF 7
ENDMDL
MODEL 2
REMARK VINA RESULT: -6.228209303      3.604      6.508
REMARK  7 active torsions:
REMARK  status: ('A' for Active; 'I' for Inactive)
REMARK    1  A    between atoms: N1_1  and  C1_4 
REMARK    2  A    between atoms: C2_9  and  C3_10 
REMARK    3  A    between atoms: C3_10  and  N4_11 
REMARK    4  A    between atoms: C5_14  and  C6_15 
REMARK    5  A    between atoms: C6_15  and  N6_16 
REMARK    6  A    between atoms: C6_15  and  O1_20 
REMARK    7  A    between atoms: N7_24  and  N8_25 
ROOT
HETATM    1  N4  UNL     1      31.942  40.709   9.638  1.00  0.00    -0.278 N 
HETATM    2  C4  UNL     1      31.449  39.906   8.677  1.00  0.00     0.139 A 
HETATM    3  N5  UNL     1      30.846  40.554   7.557  1.00  0.00    -0.081 NA
HETATM    4  C5  UNL     1      31.508  38.530   8.744  1.00  0.00     0.108 A 
HETATM    5  C7  UNL     1      32.113  38.002   9.874  1.00  0.00     0.284 A 
HETATM    6  O2  UNL     1      32.196  36.763   9.989  1.00  0.00    -0.265 OA
HETATM    7  N7  UNL     1      32.611  38.791  10.840  1.00  0.00    -0.170 N 
HETATM    8  C11 UNL     1      32.520  40.148  10.715  1.00  0.00     0.352 A 
HETATM    9  O3  UNL     1      32.986  40.909  11.620  1.00  0.00    -0.244 OA
ENDROOT
BRANCH   1  10
HETATM   10  C3  UNL     1      31.854  42.153   9.518  1.00  0.00     0.213 C 
BRANCH  10  11
HETATM   11  C2  UNL     1      33.012  42.750   8.842  1.00  0.00     0.131 A 
HETATM   12  N3  UNL     1      33.141  42.914   7.514  1.00  0.00    -0.273 N 
HETATM   13  N2  UNL     1      34.312  43.482   7.276  1.00  0.00    -0.131 N 
ATOM     14  H3  UNL     1      32.454  42.647   6.809  1.00  0.00     0.189 HD
HETATM   15  C1  UNL     1      34.963  43.697   8.434  1.00  0.00     0.691 A 
ATOM     16  H2  UNL     1      34.668  43.721   6.351  1.00  0.00     0.205 HD
HETATM   17  N9  UNL     1      34.136  43.233   9.391  1.00  0.00    -0.177 N 
ATOM     18  H9  UNL     1      34.336  43.249  10.391  1.00  0.00     0.185 HD
BRANCH  15  19
HETATM   19  N1  UNL     1      36.135  44.233   8.608  1.00  0.00    -0.233 N 
ATOM     20  H12 UNL     1      37.039  43.797   8.431  1.00  0.00     0.174 HD
ATOM     21  H11 UNL     1      36.355  45.169   8.949  1.00  0.00     0.174 HD
ENDBRANCH  15  19
ENDBRANCH  10  11
ENDBRANCH   1  10
BRANCH   4  22
HETATM   22  C6  UNL     1      30.953  37.713   7.667  1.00  0.00     0.359 C 
BRANCH  22  23
HETATM   23  N6  UNL     1      29.518  37.672   7.631  1.00  0.00    -0.049 N 
ATOM     24  H63 UNL     1      29.134  38.614   7.707  1.00  0.00     0.277 HD
ATOM     25  H62 UNL     1      29.193  37.425   6.696  1.00  0.00     0.277 HD
ATOM     26  H61 UNL     1      29.095  37.059   8.328  1.00  0.00     0.277 HD
ENDBRANCH  22  23
BRANCH  22  27
HETATM   27  O1  UNL     1      31.387  38.119   6.397  1.00  0.00    -0.366 OA
ATOM     28  H1  UNL     1      30.787  37.869   5.705  1.00  0.00     0.212 HD
ENDBRANCH  22  27
ENDBRANCH   4  22
BRANCH   7  29
HETATM   29  N8  UNL     1      33.224  38.279  11.987  1.00  0.00    -0.314 N 
HETATM   30  C8  UNL     1      32.675  37.856  13.266  1.00  0.00     0.145 A 
HETATM   31  C9  UNL     1      34.055  37.566  13.776  1.00  0.00     0.043 A 
HETATM   32  C10 UNL     1      34.564  37.959  12.404  1.00  0.00     0.145 A 
ENDBRANCH   7  29
TORSDOF 7
ENDMDL
MODEL 3
REMARK VINA RESULT: -6.226743000      2.812      4.194
REMARK  7 active torsions:
REMARK  status: ('A' for Active; 'I' for Inactive)
REMARK    1  A    between atoms: N1_1  and  C1_4 
REMARK    2  A    between atoms: C2_9  and  C3_10 
REMARK    3  A    between atoms: C3_10  and  N4_11 
REMARK    4  A    between atoms: C5_14  and  C6_15 
REMARK    5  A    between atoms: C6_15  and  N6_16 
REMARK    6  A    between atoms: C6_15  and  O1_20 
REMARK    7  A    between atoms: N7_24  and  N8_25 
ROOT
HETATM    1  N4  UNL     1      30.917  41.455   7.583  1.00  0.00    -0.278 N 
HETATM    2  C4  UNL     1      30.851  40.114   7.501  1.00  0.00     0.139 A 
HETATM    3  N5  UNL     1      31.370  39.384   8.612  1.00  0.00    -0.081 NA
HETATM    4  C5  UNL     1      30.317  39.453   6.415  1.00  0.00     0.108 A 
HETATM    5  C7  UNL     1      29.841  40.256   5.389  1.00  0.00     0.284 A 
HETATM    6  O2  UNL     1      29.346  39.713   4.381  1.00  0.00    -0.265 OA
HETATM    7  N7  UNL     1      29.900  41.596   5.458  1.00  0.00    -0.170 N 
HETATM    8  C11 UNL     1      30.442  42.191   6.562  1.00  0.00     0.352 A 
HETATM    9  O3  UNL     1      30.505  43.457   6.643  1.00  0.00    -0.244 OA
ENDROOT
BRANCH   1  10
HETATM   10  C3  UNL     1      31.490  42.101   8.751  1.00  0.00     0.213 C 
BRANCH  10  11
HETATM   11  C2  UNL     1      32.773  42.760   8.477  1.00  0.00     0.131 A 
HETATM   12  N3  UNL     1      33.614  42.446   7.477  1.00  0.00    -0.273 N 
HETATM   13  N2  UNL     1      34.663  43.249   7.546  1.00  0.00    -0.131 N 
ATOM     14  H3  UNL     1      33.469  41.712   6.782  1.00  0.00     0.189 HD
HETATM   15  C1  UNL     1      34.528  44.095   8.583  1.00  0.00     0.691 A 
ATOM     16  H2  UNL     1      35.457  43.229   6.906  1.00  0.00     0.205 HD
HETATM   17  N9  UNL     1      33.347  43.771   9.145  1.00  0.00    -0.177 N 
ATOM     18  H9  UNL     1      32.945  44.231   9.963  1.00  0.00     0.185 HD
BRANCH  15  19
HETATM   19  N1  UNL     1      35.346  45.027   8.971  1.00  0.00    -0.233 N 
ATOM     20  H12 UNL     1      36.349  45.074   8.790  1.00  0.00     0.174 HD
ATOM     21  H11 UNL     1      35.137  45.863   9.517  1.00  0.00     0.174 HD
ENDBRANCH  15  19
ENDBRANCH  10  11
ENDBRANCH   1  10
BRANCH   4  22
HETATM   22  C6  UNL     1      30.275  37.993   6.385  1.00  0.00     0.359 C 
BRANCH  22  23
HETATM   23  N6  UNL     1      29.554  37.397   7.473  1.00  0.00    -0.049 N 
ATOM     24  H63 UNL     1      30.144  36.726   7.964  1.00  0.00     0.277 HD
ATOM     25  H62 UNL     1      29.406  38.078   8.218  1.00  0.00     0.277 HD
ATOM     26  H61 UNL     1      28.669  36.964   7.207  1.00  0.00     0.277 HD
ENDBRANCH  22  23
BRANCH  22  27
HETATM   27  O1  UNL     1      29.725  37.489   5.198  1.00  0.00    -0.366 OA
ATOM     28  H1  UNL     1      29.766  36.541   5.146  1.00  0.00     0.212 HD
ENDBRANCH  22  27
ENDBRANCH   4  22
BRANCH   7  29
HETATM   29  N8  UNL     1      29.426  42.423   4.436  1.00  0.00    -0.314 N 
HETATM   30  C8  UNL     1      30.030  42.845   3.181  1.00  0.00     0.145 A 
HETATM   31  C9  UNL     1      28.834  43.699   2.880  1.00  0.00     0.043 A 
HETATM   32  C10 UNL     1      28.230  43.176   4.167  1.00  0.00     0.145 A 
ENDBRANCH   7  29
TORSDOF 7
ENDMDL
MODEL 4
REMARK VINA RESULT: -6.213764640      2.406      2.773
REMARK  7 active torsions:
REMARK  status: ('A' for Active; 'I' for Inactive)
REMARK    1  A    between atoms: N1_1  and  C1_4 
REMARK    2  A    between atoms: C2_9  and  C3_10 
REMARK    3  A    between atoms: C3_10  and  N4_11 
REMARK    4  A    between atoms: C5_14  and  C6_15 
REMARK    5  A    between atoms: C6_15  and  N6_16 
REMARK    6  A    between atoms: C6_15  and  O1_20 
REMARK    7  A    between atoms: N7_24  and  N8_25 
ROOT
HETATM    1  N4  UNL     1      29.369  41.518   5.817  1.00  0.00    -0.278 N 
HETATM    2  C4  UNL     1      29.531  40.903   4.631  1.00  0.00     0.139 A 
HETATM    3  N5  UNL     1      30.080  39.587   4.669  1.00  0.00    -0.081 NA
HETATM    4  C5  UNL     1      29.194  41.488   3.429  1.00  0.00     0.108 A 
HETATM    5  C7  UNL     1      28.668  42.770   3.503  1.00  0.00     0.284 A 
HETATM    6  O2  UNL     1      28.344  43.348   2.447  1.00  0.00    -0.265 OA
HETATM    7  N7  UNL     1      28.500  43.395   4.679  1.00  0.00    -0.170 N 
HETATM    8  C11 UNL     1      28.854  42.761   5.836  1.00  0.00     0.352 A 
HETATM    9  O3  UNL     1      28.702  43.339   6.958  1.00  0.00    -0.244 OA
ENDROOT
BRANCH   1  10
HETATM   10  C3  UNL     1      29.741  40.857   7.055  1.00  0.00     0.213 C 
BRANCH  10  11
HETATM   11  C2  UNL     1      31.066  41.251   7.547  1.00  0.00     0.131 A 
HETATM   12  N3  UNL     1      32.239  40.913   6.985  1.00  0.00    -0.273 N 
HETATM   13  N2  UNL     1      33.214  41.447   7.702  1.00  0.00    -0.131 N 
ATOM     14  H3  UNL     1      32.359  40.341   6.149  1.00  0.00     0.189 HD
HETATM   15  C1  UNL     1      32.700  42.138   8.736  1.00  0.00     0.691 A 
ATOM     16  H2  UNL     1      34.209  41.349   7.501  1.00  0.00     0.205 HD
HETATM   17  N9  UNL     1      31.365  42.001   8.617  1.00  0.00    -0.177 N 
ATOM     18  H9  UNL     1      30.679  42.411   9.252  1.00  0.00     0.185 HD
BRANCH  15  19
HETATM   19  N1  UNL     1      33.338  42.799   9.656  1.00  0.00    -0.233 N 
ATOM     20  H12 UNL     1      33.594  43.786   9.633  1.00  0.00     0.174 HD
ATOM     21  H11 UNL     1      33.689  42.456  10.550  1.00  0.00     0.174 HD
ENDBRANCH  15  19
ENDBRANCH  10  11
ENDBRANCH   1  10
BRANCH   4  22
HETATM   22  C6  UNL     1      29.395  40.768   2.174  1.00  0.00     0.359 C 
BRANCH  22  23
HETATM   23  N6  UNL     1      28.354  39.834   1.851  1.00  0.00    -0.049 N 
ATOM     24  H63 UNL     1      27.450  40.305   1.824  1.00  0.00     0.277 HD
ATOM     25  H62 UNL     1      28.429  39.542   0.876  1.00  0.00     0.277 HD
ATOM     26  H61 UNL     1      28.312  39.019   2.463  1.00  0.00     0.277 HD
ENDBRANCH  22  23
BRANCH  22  27
HETATM   27  O1  UNL     1      29.541  41.623   1.073  1.00  0.00    -0.366 OA
ATOM     28  H1  UNL     1      29.478  42.541   1.308  1.00  0.00     0.212 HD
ENDBRANCH  22  27
ENDBRANCH   4  22
BRANCH   7  29
HETATM   29  N8  UNL     1      27.972  44.685   4.776  1.00  0.00    -0.314 N 
HETATM   30  C8  UNL     1      28.603  45.993   4.683  1.00  0.00     0.145 A 
HETATM   31  C9  UNL     1      27.290  46.659   4.969  1.00  0.00     0.043 A 
HETATM   32  C10 UNL     1      26.677  45.274   4.992  1.00  0.00     0.145 A 
ENDBRANCH   7  29
TORSDOF 7
ENDMDL
MODEL 5
REMARK VINA RESULT: -6.084847693      2.634      6.043
REMARK  7 active torsions:
REMARK  status: ('A' for Active; 'I' for Inactive)
REMARK    1  A    between atoms: N1_1  and  C1_4 
REMARK    2  A    between atoms: C2_9  and  C3_10 
REMARK    3  A    between atoms: C3_10  and  N4_11 
REMARK    4  A    between atoms: C5_14  and  C6_15 
REMARK    5  A    between atoms: C6_15  and  N6_16 
REMARK    6  A    between atoms: C6_15  and  O1_20 
REMARK    7  A    between atoms: N7_24  and  N8_25 
ROOT
HETATM    1  N4  UNL     1      30.592  38.872   8.352  1.00  0.00    -0.278 N 
HETATM    2  C4  UNL     1      31.380  38.553   9.396  1.00  0.00     0.139 A 
HETATM    3  N5  UNL     1      32.271  37.455   9.205  1.00  0.00    -0.081 NA
HETATM    4  C5  UNL     1      31.349  39.232  10.595  1.00  0.00     0.108 A 
HETATM    5  C7  UNL     1      30.446  40.283  10.676  1.00  0.00     0.284 A 
HETATM    6  O2  UNL     1      30.375  40.934  11.737  1.00  0.00    -0.265 OA
HETATM    7  N7  UNL     1      29.655  40.612   9.642  1.00  0.00    -0.170 N 
HETATM    8  C11 UNL     1      29.733  39.900   8.480  1.00  0.00     0.352 A 
HETATM    9  O3  UNL     1      28.992  40.198   7.492  1.00  0.00    -0.244 OA
ENDROOT
BRANCH   1  10
HETATM   10  C3  UNL     1      30.665  38.124   7.109  1.00  0.00     0.213 C 
BRANCH  10  11
HETATM   11  C2  UNL     1      30.534  38.969   5.917  1.00  0.00     0.131 A 
HETATM   12  N3  UNL     1      31.324  40.011   5.608  1.00  0.00    -0.273 N 
HETATM   13  N2  UNL     1      30.905  40.528   4.465  1.00  0.00    -0.131 N 
ATOM     14  H3  UNL     1      32.113  40.347   6.161  1.00  0.00     0.189 HD
HETATM   15  C1  UNL     1      29.843  39.839   4.009  1.00  0.00     0.691 A 
ATOM     16  H2  UNL     1      31.326  41.331   3.997  1.00  0.00     0.205 HD
HETATM   17  N9  UNL     1      29.632  38.876   4.928  1.00  0.00    -0.177 N 
ATOM     18  H9  UNL     1      28.892  38.176   4.879  1.00  0.00     0.185 HD
BRANCH  15  19
HETATM   19  N1  UNL     1      29.159  40.043   2.923  1.00  0.00    -0.233 N 
ATOM     20  H12 UNL     1      28.731  39.335   2.327  1.00  0.00     0.174 HD
ATOM     21  H11 UNL     1      28.931  40.934   2.480  1.00  0.00     0.174 HD
ENDBRANCH  15  19
ENDBRANCH  10  11
ENDBRANCH   1  10
BRANCH   4  22
HETATM   22  C6  UNL     1      32.229  38.836  11.691  1.00  0.00     0.359 C 
BRANCH  22  23
HETATM   23  N6  UNL     1      31.919  37.561  12.273  1.00  0.00    -0.049 N 
ATOM     24  H63 UNL     1      30.988  37.578  12.689  1.00  0.00     0.277 HD
ATOM     25  H62 UNL     1      31.772  36.864  11.543  1.00  0.00     0.277 HD
ATOM     26  H61 UNL     1      32.605  37.227  12.950  1.00  0.00     0.277 HD
ENDBRANCH  22  23
BRANCH  22  27
HETATM   27  O1  UNL     1      33.581  38.803  11.319  1.00  0.00    -0.366 OA
ATOM     28  H1  UNL     1      34.152  38.526  12.026  1.00  0.00     0.212 HD
ENDBRANCH  22  27
ENDBRANCH   4  22
BRANCH   7  29
HETATM   29  N8  UNL     1      28.740  41.666   9.702  1.00  0.00    -0.314 N 
HETATM   30  C8  UNL     1      27.328  41.697  10.054  1.00  0.00     0.145 A 
HETATM   31  C9  UNL     1      27.276  43.167   9.762  1.00  0.00     0.043 A 
HETATM   32  C10 UNL     1      28.760  43.086   9.468  1.00  0.00     0.145 A 
ENDBRANCH   7  29
TORSDOF 7
ENDMDL
