MODEL 1
REMARK VINA RESULT: -8.038732753      0.000      0.000
REMARK  7 active torsions:
REMARK  status: ('A' for Active; 'I' for Inactive)
REMARK    1  A    between atoms: N1_1  and  C1_4 
REMARK    2  A    between atoms: C2_7  and  N3_8 
REMARK    3  A    between atoms: N3_8  and  C3_10 
REMARK    4  A    between atoms: C3_10  and  O1_11 
REMARK    5  A    between atoms: C3_10  and  C4_13 
REMARK    6  A    between atoms: C4_13  and  N4_14 
REMARK    7  A    between atoms: C5_19  and  C6_20 
ROOT
HETATM    1  C1  UNL     1      31.097  39.204  11.283  1.00  0.00     0.145 A 
HETATM    2  N2  UNL     1      30.888  39.845  10.108  1.00  0.00    -0.175 N 
ATOM      3  H2  UNL     1      30.217  40.612  10.077  1.00  0.00     0.186 HD
HETATM    4  C2  UNL     1      31.527  39.506   8.996  1.00  0.00     0.682 A 
HETATM    5  N9  UNL     1      32.421  38.475   9.069  1.00  0.00    -0.184 N 
ATOM      6  H9  UNL     1      32.924  38.199   8.225  1.00  0.00     0.184 HD
HETATM    7  C7  UNL     1      32.660  37.816  10.207  1.00  0.00     0.150 A 
HETATM    8  C8  UNL     1      33.554  36.777  10.309  1.00  0.00     0.290 A 
HETATM    9  O3  UNL     1      34.178  36.429   9.277  1.00  0.00    -0.264 OA
HETATM   10  N10 UNL     1      33.729  36.174  11.488  1.00  0.00    -0.250 N 
ATOM     11  H10 UNL     1      34.396  35.404  11.540  1.00  0.00     0.192 HD
HETATM   12  N11 UNL     1      33.090  36.516  12.588  1.00  0.00    -0.239 N 
ATOM     13  H11 UNL     1      33.259  36.025  13.467  1.00  0.00     0.208 HD
HETATM   14  N12 UNL     1      32.226  37.509  12.523  1.00  0.00    -0.280 N 
ATOM     15  H12 UNL     1      31.723  37.786  13.366  1.00  0.00     0.188 HD
HETATM   16  C9  UNL     1      31.991  38.169  11.374  1.00  0.00     0.126 A 
ENDROOT
BRANCH   4  17
HETATM   17  N3  UNL     1      31.386  40.055   7.861  1.00  0.00    -0.198 N 
ATOM     18  H3  UNL     1      31.544  41.062   7.830  1.00  0.00     0.180 HD
BRANCH  17  19
HETATM   19  C3  UNL     1      31.036  39.443   6.627  1.00  0.00     0.256 C 
BRANCH  19  20
HETATM   20  O1  UNL     1      31.838  40.029   5.624  1.00  0.00    -0.374 OA
ATOM     21  H1  UNL     1      32.727  40.065   5.957  1.00  0.00     0.212 HD
ENDBRANCH  19  20
BRANCH  19  22
HETATM   22  C4  UNL     1      29.607  39.819   6.283  1.00  0.00     0.225 C 
BRANCH  22  23
HETATM   23  N4  UNL     1      29.482  40.104   4.858  1.00  0.00    -0.214 N 
HETATM   24  N5  UNL     1      29.192  39.242   3.899  1.00  0.00    -0.224 N 
HETATM   25  N6  UNL     1      29.174  39.887   2.753  1.00  0.00    -0.264 N 
ATOM     26  H5  UNL     1      29.012  38.246   4.027  1.00  0.00     0.210 HD
HETATM   27  C5  UNL     1      29.456  41.163   3.007  1.00  0.00     0.203 A 
ATOM     28  H6  UNL     1      28.978  39.483   1.837  1.00  0.00     0.190 HD
HETATM   29  N8  UNL     1      29.646  41.286   4.323  1.00  0.00    -0.262 N 
ATOM     30  H8  UNL     1      29.877  42.146   4.820  1.00  0.00     0.190 HD
BRANCH  27  31
HETATM   31  C6  UNL     1      29.542  42.247   2.007  1.00  0.00     0.301 C 
HETATM   32  N7  UNL     1      29.029  42.024   0.702  1.00  0.00    -0.054 NA
HETATM   33  O2  UNL     1      30.066  43.344   2.329  1.00  0.00    -0.268 OA
ENDBRANCH  27  31
ENDBRANCH  22  23
ENDBRANCH  19  22
ENDBRANCH  17  19
ENDBRANCH   4  17
BRANCH   1  34
HETATM   34  N1  UNL     1      30.470  39.538  12.370  1.00  0.00    -0.383 N 
ATOM     35  H12 UNL     1      29.474  39.325  12.412  1.00  0.00     0.157 HD
ATOM     36  H11 UNL     1      30.945  39.991  13.150  1.00  0.00     0.157 HD
ENDBRANCH   1  34
TORSDOF 7
ENDMDL
MODEL 2
REMARK VINA RESULT: -7.937394571      0.818      1.270
REMARK  7 active torsions:
REMARK  status: ('A' for Active; 'I' for Inactive)
REMARK    1  A    between atoms: N1_1  and  C1_4 
REMARK    2  A    between atoms: C2_7  and  N3_8 
REMARK    3  A    between atoms: N3_8  and  C3_10 
REMARK    4  A    between atoms: C3_10  and  O1_11 
REMARK    5  A    between atoms: C3_10  and  C4_13 
REMARK    6  A    between atoms: C4_13  and  N4_14 
REMARK    7  A    between atoms: C5_19  and  C6_20 
ROOT
HETATM    1  C1  UNL     1      31.084  39.293  11.279  1.00  0.00     0.145 A 
HETATM    2  N2  UNL     1      30.939  39.959  10.108  1.00  0.00    -0.175 N 
ATOM      3  H2  UNL     1      30.292  40.745  10.064  1.00  0.00     0.186 HD
HETATM    4  C2  UNL     1      31.613  39.621   9.016  1.00  0.00     0.682 A 
HETATM    5  N9  UNL     1      32.475  38.565   9.106  1.00  0.00    -0.184 N 
ATOM      6  H9  UNL     1      33.003  38.289   8.278  1.00  0.00     0.184 HD
HETATM    7  C7  UNL     1      32.650  37.879  10.241  1.00  0.00     0.150 A 
HETATM    8  C8  UNL     1      33.510  36.814  10.359  1.00  0.00     0.290 A 
HETATM    9  O3  UNL     1      34.165  36.466   9.347  1.00  0.00    -0.264 OA
HETATM   10  N10 UNL     1      33.621  36.187  11.533  1.00  0.00    -0.250 N 
ATOM     11  H10 UNL     1      34.263  35.398  11.598  1.00  0.00     0.192 HD
HETATM   12  N11 UNL     1      32.947  36.528  12.613  1.00  0.00    -0.239 N 
ATOM     13  H11 UNL     1      33.067  36.018  13.489  1.00  0.00     0.208 HD
HETATM   14  N12 UNL     1      32.115  37.546  12.531  1.00  0.00    -0.280 N 
ATOM     15  H12 UNL     1      31.585  37.822  13.358  1.00  0.00     0.188 HD
HETATM   16  C9  UNL     1      31.944  38.231  11.386  1.00  0.00     0.126 A 
ENDROOT
BRANCH   4  17
HETATM   17  N3  UNL     1      31.533  40.193   7.886  1.00  0.00    -0.198 N 
ATOM     18  H3  UNL     1      32.034  41.077   7.797  1.00  0.00     0.180 HD
BRANCH  17  19
HETATM   19  C3  UNL     1      30.834  39.756   6.729  1.00  0.00     0.256 C 
BRANCH  19  20
HETATM   20  O1  UNL     1      31.708  39.898   5.630  1.00  0.00    -0.374 OA
ATOM     21  H1  UNL     1      31.241  40.377   4.955  1.00  0.00     0.212 HD
ENDBRANCH  19  20
BRANCH  19  22
HETATM   22  C4  UNL     1      29.684  40.709   6.464  1.00  0.00     0.225 C 
BRANCH  22  23
HETATM   23  N4  UNL     1      29.987  41.574   5.329  1.00  0.00    -0.214 N 
HETATM   24  N5  UNL     1      30.743  42.657   5.337  1.00  0.00    -0.224 N 
HETATM   25  N6  UNL     1      30.767  43.155   4.121  1.00  0.00    -0.264 N 
ATOM     26  H5  UNL     1      31.227  43.041   6.149  1.00  0.00     0.210 HD
HETATM   27  C5  UNL     1      30.016  42.371   3.351  1.00  0.00     0.203 A 
ATOM     28  H6  UNL     1      31.270  43.991   3.821  1.00  0.00     0.190 HD
HETATM   29  N8  UNL     1      29.535  41.388   4.116  1.00  0.00    -0.262 N 
ATOM     30  H8  UNL     1      28.925  40.630   3.809  1.00  0.00     0.190 HD
BRANCH  27  31
HETATM   31  C6  UNL     1      29.763  42.558   1.907  1.00  0.00     0.301 C 
HETATM   32  N7  UNL     1      28.996  41.588   1.211  1.00  0.00    -0.054 NA
HETATM   33  O2  UNL     1      30.231  43.570   1.324  1.00  0.00    -0.268 OA
ENDBRANCH  27  31
ENDBRANCH  22  23
ENDBRANCH  19  22
ENDBRANCH  17  19
ENDBRANCH   4  17
BRANCH   1  34
HETATM   34  N1  UNL     1      30.422  39.625  12.344  1.00  0.00    -0.383 N 
ATOM     35  H12 UNL     1      29.561  40.154  12.209  1.00  0.00     0.157 HD
ATOM     36  H11 UNL     1      30.742  39.372  13.279  1.00  0.00     0.157 HD
ENDBRANCH   1  34
TORSDOF 7
ENDMDL
MODEL 3
REMARK VINA RESULT: -7.896961639      1.774      8.099
REMARK  7 active torsions:
REMARK  status: ('A' for Active; 'I' for Inactive)
REMARK    1  A    between atoms: N1_1  and  C1_4 
REMARK    2  A    between atoms: C2_7  and  N3_8 
REMARK    3  A    between atoms: N3_8  and  C3_10 
REMARK    4  A    between atoms: C3_10  and  O1_11 
REMARK    5  A    between atoms: C3_10  and  C4_13 
REMARK    6  A    between atoms: C4_13  and  N4_14 
REMARK    7  A    between atoms: C5_19  and  C6_20 
ROOT
HETATM    1  C1  UNL     1      29.632  39.750   4.917  1.00  0.00     0.145 A 
HETATM    2  N2  UNL     1      30.104  40.400   6.008  1.00  0.00    -0.175 N 
ATOM      3  H2  UNL     1      30.177  39.895   6.890  1.00  0.00     0.186 HD
HETATM    4  C2  UNL     1      30.475  41.673   5.965  1.00  0.00     0.682 A 
HETATM    5  N9  UNL     1      30.367  42.324   4.768  1.00  0.00    -0.184 N 
ATOM      6  H9  UNL     1      30.647  43.304   4.714  1.00  0.00     0.184 HD
HETATM    7  C7  UNL     1      29.908  41.722   3.666  1.00  0.00     0.150 A 
HETATM    8  C8  UNL     1      29.790  42.352   2.451  1.00  0.00     0.290 A 
HETATM    9  O3  UNL     1      30.132  43.557   2.372  1.00  0.00    -0.264 OA
HETATM   10  N10 UNL     1      29.320  41.672   1.401  1.00  0.00    -0.250 N 
ATOM     11  H10 UNL     1      29.240  42.160   0.509  1.00  0.00     0.192 HD
HETATM   12  N11 UNL     1      28.953  40.407   1.452  1.00  0.00    -0.239 N 
ATOM     13  H11 UNL     1      28.601  39.930   0.621  1.00  0.00     0.208 HD
HETATM   14  N12 UNL     1      29.055  39.776   2.604  1.00  0.00    -0.280 N 
ATOM     15  H12 UNL     1      28.775  38.797   2.660  1.00  0.00     0.188 HD
HETATM   16  C9  UNL     1      29.518  40.388   3.709  1.00  0.00     0.126 A 
ENDROOT
BRANCH   4  17
HETATM   17  N3  UNL     1      30.925  42.350   6.940  1.00  0.00    -0.198 N 
ATOM     18  H3  UNL     1      30.520  43.278   7.062  1.00  0.00     0.180 HD
BRANCH  17  19
HETATM   19  C3  UNL     1      31.921  41.977   7.882  1.00  0.00     0.256 C 
BRANCH  19  20
HETATM   20  O1  UNL     1      32.750  41.017   7.261  1.00  0.00    -0.374 OA
ATOM     21  H1  UNL     1      33.630  41.374   7.241  1.00  0.00     0.212 HD
ENDBRANCH  19  20
BRANCH  19  22
HETATM   22  C4  UNL     1      31.254  41.256   9.039  1.00  0.00     0.225 C 
BRANCH  22  23
HETATM   23  N4  UNL     1      31.656  39.855   9.069  1.00  0.00    -0.214 N 
HETATM   24  N5  UNL     1      31.296  38.908   8.221  1.00  0.00    -0.224 N 
HETATM   25  N6  UNL     1      31.867  37.782   8.590  1.00  0.00    -0.264 N 
ATOM     26  H5  UNL     1      30.680  39.030   7.417  1.00  0.00     0.210 HD
HETATM   27  C5  UNL     1      32.589  38.036   9.679  1.00  0.00     0.203 A 
ATOM     28  H6  UNL     1      31.774  36.879   8.125  1.00  0.00     0.190 HD
HETATM   29  N8  UNL     1      32.450  39.332   9.968  1.00  0.00    -0.262 N 
ATOM     30  H8  UNL     1      32.883  39.825  10.748  1.00  0.00     0.190 HD
BRANCH  27  31
HETATM   31  C6  UNL     1      33.399  37.055  10.430  1.00  0.00     0.301 C 
HETATM   32  N7  UNL     1      34.322  36.239   9.724  1.00  0.00    -0.054 NA
HETATM   33  O2  UNL     1      33.257  36.962  11.676  1.00  0.00    -0.268 OA
ENDBRANCH  27  31
ENDBRANCH  22  23
ENDBRANCH  19  22
ENDBRANCH  17  19
ENDBRANCH   4  17
BRANCH   1  34
HETATM   34  N1  UNL     1      29.270  38.505   4.962  1.00  0.00    -0.383 N 
ATOM     35  H12 UNL     1      28.805  38.188   5.813  1.00  0.00     0.157 HD
ATOM     36  H11 UNL     1      29.437  37.865   4.186  1.00  0.00     0.157 HD
ENDBRANCH   1  34
TORSDOF 7
ENDMDL
MODEL 4
REMARK VINA RESULT: -7.839645066      1.035      1.295
REMARK  7 active torsions:
REMARK  status: ('A' for Active; 'I' for Inactive)
REMARK    1  A    between atoms: N1_1  and  C1_4 
REMARK    2  A    between atoms: C2_7  and  N3_8 
REMARK    3  A    between atoms: N3_8  and  C3_10 
REMARK    4  A    between atoms: C3_10  and  O1_11 
REMARK    5  A    between atoms: C3_10  and  C4_13 
REMARK    6  A    between atoms: C4_13  and  N4_14 
REMARK    7  A    between atoms: C5_19  and  C6_20 
ROOT
HETATM    1  C1  UNL     1      31.300  38.963  11.660  1.00  0.00     0.145 A 
HETATM    2  N2  UNL     1      31.059  39.682  10.538  1.00  0.00    -0.175 N 
ATOM      3  H2  UNL     1      30.387  40.448  10.577  1.00  0.00     0.186 HD
HETATM    4  C2  UNL     1      31.667  39.421   9.388  1.00  0.00     0.682 A 
HETATM    5  N9  UNL     1      32.563  38.389   9.366  1.00  0.00    -0.184 N 
ATOM      6  H9  UNL     1      33.042  38.172   8.492  1.00  0.00     0.184 HD
HETATM    7  C7  UNL     1      32.833  37.654  10.450  1.00  0.00     0.150 A 
HETATM    8  C8  UNL     1      33.729  36.612  10.456  1.00  0.00     0.290 A 
HETATM    9  O3  UNL     1      34.324  36.336   9.387  1.00  0.00    -0.264 OA
HETATM   10  N10 UNL     1      33.936  35.931  11.586  1.00  0.00    -0.250 N 
ATOM     11  H10 UNL     1      34.604  35.161  11.568  1.00  0.00     0.192 HD
HETATM   12  N11 UNL     1      33.327  36.196  12.725  1.00  0.00    -0.239 N 
ATOM     13  H11 UNL     1      33.520  35.647  13.563  1.00  0.00     0.208 HD
HETATM   14  N12 UNL     1      32.462  37.190  12.751  1.00  0.00    -0.280 N 
ATOM     15  H12 UNL     1      31.982  37.407  13.623  1.00  0.00     0.188 HD
HETATM   16  C9  UNL     1      32.196  37.926  11.656  1.00  0.00     0.126 A 
ENDROOT
BRANCH   4  17
HETATM   17  N3  UNL     1      31.495  40.045   8.297  1.00  0.00    -0.198 N 
ATOM     18  H3  UNL     1      31.764  41.029   8.299  1.00  0.00     0.180 HD
BRANCH  17  19
HETATM   19  C3  UNL     1      30.975  39.546   7.072  1.00  0.00     0.256 C 
BRANCH  19  20
HETATM   20  O1  UNL     1      31.796  40.038   6.034  1.00  0.00    -0.374 OA
ATOM     21  H1  UNL     1      31.276  40.651   5.528  1.00  0.00     0.212 HD
ENDBRANCH  19  20
BRANCH  19  22
HETATM   22  C4  UNL     1      29.606  40.157   6.837  1.00  0.00     0.225 C 
BRANCH  22  23
HETATM   23  N4  UNL     1      29.552  40.804   5.531  1.00  0.00    -0.214 N 
HETATM   24  N5  UNL     1      29.594  42.102   5.287  1.00  0.00    -0.224 N 
HETATM   25  N6  UNL     1      29.518  42.282   3.986  1.00  0.00    -0.264 N 
ATOM     26  H5  UNL     1      29.674  42.839   5.988  1.00  0.00     0.210 HD
HETATM   27  C5  UNL     1      29.426  41.080   3.420  1.00  0.00     0.203 A 
ATOM     28  H6  UNL     1      29.527  43.178   3.500  1.00  0.00     0.190 HD
HETATM   29  N8  UNL     1      29.449  40.167   4.394  1.00  0.00    -0.262 N 
ATOM     30  H8  UNL     1      29.396  39.156   4.272  1.00  0.00     0.190 HD
BRANCH  27  31
HETATM   31  C6  UNL     1      29.320  40.810   1.971  1.00  0.00     0.301 C 
HETATM   32  N7  UNL     1      29.132  41.899   1.080  1.00  0.00    -0.054 NA
HETATM   33  O2  UNL     1      29.398  39.626   1.556  1.00  0.00    -0.268 OA
ENDBRANCH  27  31
ENDBRANCH  22  23
ENDBRANCH  19  22
ENDBRANCH  17  19
ENDBRANCH   4  17
BRANCH   1  34
HETATM   34  N1  UNL     1      30.702  39.221  12.783  1.00  0.00    -0.383 N 
ATOM     35  H12 UNL     1      31.074  38.771  13.619  1.00  0.00     0.157 HD
ATOM     36  H11 UNL     1      29.898  39.845  12.836  1.00  0.00     0.157 HD
ENDBRANCH   1  34
TORSDOF 7
ENDMDL
MODEL 5
REMARK VINA RESULT: -7.761409571      1.436      1.503
REMARK  7 active torsions:
REMARK  status: ('A' for Active; 'I' for Inactive)
REMARK    1  A    between atoms: N1_1  and  C1_4 
REMARK    2  A    between atoms: C2_7  and  N3_8 
REMARK    3  A    between atoms: N3_8  and  C3_10 
REMARK    4  A    between atoms: C3_10  and  O1_11 
REMARK    5  A    between atoms: C3_10  and  C4_13 
REMARK    6  A    between atoms: C4_13  and  N4_14 
REMARK    7  A    between atoms: C5_19  and  C6_20 
ROOT
HETATM    1  C1  UNL     1      30.980  39.372  11.961  1.00  0.00     0.145 A 
HETATM    2  N2  UNL     1      30.794  40.280  10.973  1.00  0.00    -0.175 N 
ATOM      3  H2  UNL     1      30.175  41.073  11.143  1.00  0.00     0.186 HD
HETATM    4  C2  UNL     1      31.389  40.172   9.793  1.00  0.00     0.682 A 
HETATM    5  N9  UNL     1      32.214  39.101   9.596  1.00  0.00    -0.184 N 
ATOM      6  H9  UNL     1      32.682  38.999   8.695  1.00  0.00     0.184 HD
HETATM    7  C7  UNL     1      32.428  38.180  10.542  1.00  0.00     0.150 A 
HETATM    8  C8  UNL     1      33.252  37.094  10.371  1.00  0.00     0.290 A 
HETATM    9  O3  UNL     1      33.833  36.959   9.267  1.00  0.00    -0.264 OA
HETATM   10  N10 UNL     1      33.407  36.223  11.372  1.00  0.00    -0.250 N 
ATOM     11  H10 UNL     1      34.022  35.423  11.222  1.00  0.00     0.192 HD
HETATM   12  N11 UNL     1      32.811  36.337  12.542  1.00  0.00    -0.239 N 
ATOM     13  H11 UNL     1      32.962  35.645  13.277  1.00  0.00     0.208 HD
HETATM   14  N12 UNL     1      32.015  37.369  12.736  1.00  0.00    -0.280 N 
ATOM     15  H12 UNL     1      31.546  37.471  13.636  1.00  0.00     0.188 HD
HETATM   16  C9  UNL     1      31.804  38.291  11.780  1.00  0.00     0.126 A 
ENDROOT
BRANCH   4  17
HETATM   17  N3  UNL     1      31.265  40.978   8.821  1.00  0.00    -0.198 N 
ATOM     18  H3  UNL     1      31.827  41.828   8.872  1.00  0.00     0.180 HD
BRANCH  17  19
HETATM   19  C3  UNL     1      30.443  40.845   7.669  1.00  0.00     0.256 C 
BRANCH  19  20
HETATM   20  O1  UNL     1      29.497  39.833   7.942  1.00  0.00    -0.374 OA
ATOM     21  H1  UNL     1      28.681  40.089   7.528  1.00  0.00     0.212 HD
ENDBRANCH  19  20
BRANCH  19  22
HETATM   22  C4  UNL     1      31.288  40.321   6.523  1.00  0.00     0.225 C 
BRANCH  22  23
HETATM   23  N4  UNL     1      30.446  39.975   5.383  1.00  0.00    -0.214 N 
HETATM   24  N5  UNL     1      29.624  38.945   5.288  1.00  0.00    -0.224 N 
HETATM   25  N6  UNL     1      29.050  38.981   4.106  1.00  0.00    -0.264 N 
ATOM     26  H5  UNL     1      29.463  38.241   6.009  1.00  0.00     0.210 HD
HETATM   27  C5  UNL     1      29.522  40.047   3.462  1.00  0.00     0.203 A 
ATOM     28  H6  UNL     1      28.366  38.315   3.747  1.00  0.00     0.190 HD
HETATM   29  N8  UNL     1      30.392  40.659   4.270  1.00  0.00    -0.262 N 
ATOM     30  H8  UNL     1      30.918  41.506   4.057  1.00  0.00     0.190 HD
BRANCH  27  31
HETATM   31  C6  UNL     1      29.147  40.473   2.099  1.00  0.00     0.301 C 
HETATM   32  N7  UNL     1      29.676  41.686   1.586  1.00  0.00    -0.054 NA
HETATM   33  O2  UNL     1      28.368  39.756   1.419  1.00  0.00    -0.268 OA
ENDBRANCH  27  31
ENDBRANCH  22  23
ENDBRANCH  19  22
ENDBRANCH  17  19
ENDBRANCH   4  17
BRANCH   1  34
HETATM   34  N1  UNL     1      30.395  39.480  13.114  1.00  0.00    -0.383 N 
ATOM     35  H12 UNL     1      29.461  39.082  13.198  1.00  0.00     0.157 HD
ATOM     36  H11 UNL     1      30.844  39.940  13.906  1.00  0.00     0.157 HD
ENDBRANCH   1  34
TORSDOF 7
ENDMDL
