MODEL 1
REMARK VINA RESULT: -6.928489066      0.000      0.000
REMARK  7 active torsions:
REMARK  status: ('A' for Active; 'I' for Inactive)
REMARK    1  A    between atoms: C3_4  and  C4_5 
REMARK    2  A    between atoms: N5_12  and  C5_13 
REMARK    3  A    between atoms: C6_14  and  C7_15 
REMARK       I    between atoms: C7_15  and  N6_17 
REMARK    4  A    between atoms: N6_17  and  N7_19 
REMARK    5  A    between atoms: C8_22  and  C9_23 
REMARK    6  A    between atoms: C9_23  and  N8_24 
REMARK    7  A    between atoms: C9_23  and  O3_28 
ROOT
HETATM    1  N1  UNL     1      28.006  42.670   7.698  1.00  0.00    -0.190 NA
HETATM    2  C1  UNL     1      28.676  42.370   6.798  1.00  0.00     0.122 C 
HETATM    3  C2  UNL     1      29.511  42.007   5.677  1.00  0.00     0.171 A 
HETATM    4  C3  UNL     1      29.644  42.815   4.555  1.00  0.00     0.154 A 
HETATM    5  N3  UNL     1      30.489  42.145   3.750  1.00  0.00    -0.278 N 
ATOM      6  H3  UNL     1      30.805  42.460   2.833  1.00  0.00     0.189 HD
HETATM    7  N4  UNL     1      30.839  41.029   4.328  1.00  0.00    -0.234 N 
ATOM      8  H4  UNL     1      31.474  40.343   3.919  1.00  0.00     0.209 HD
HETATM    9  N5  UNL     1      30.259  40.898   5.523  1.00  0.00    -0.223 N 
ENDROOT
BRANCH   4  10
HETATM   10  C4  UNL     1      29.003  44.104   4.319  1.00  0.00     0.285 C 
HETATM   11  N2  UNL     1      27.701  44.122   3.755  1.00  0.00    -0.056 NA
HETATM   12  O1  UNL     1      29.538  45.203   4.588  1.00  0.00    -0.269 OA
ENDBRANCH   4  10
BRANCH   9  13
HETATM   13  C5  UNL     1      30.372  39.822   6.458  1.00  0.00     0.143 A 
HETATM   14  C6  UNL     1      31.152  39.963   7.616  1.00  0.00     0.080 A 
HETATM   15  C8  UNL     1      31.204  38.896   8.472  1.00  0.00     0.031 A 
HETATM   16  C10 UNL     1      30.470  37.753   8.118  1.00  0.00     0.104 A 
HETATM   17  N9  UNL     1      29.738  37.658   7.006  1.00  0.00    -0.331 N 
HETATM   18  C11 UNL     1      29.667  38.683   6.147  1.00  0.00     0.275 A 
ATOM     19  H9  UNL     1      29.228  36.797   6.809  1.00  0.00     0.168 HD
HETATM   20  O4  UNL     1      28.973  38.608   5.079  1.00  0.00    -0.266 OA
BRANCH  14  21
HETATM   21  C7  UNL     1      31.883  41.203   7.823  1.00  0.00     0.272 C 
HETATM   22  O2  UNL     1      31.330  42.129   8.544  1.00  0.00    -0.266 OA
HETATM   23  N6  UNL     1      33.151  41.547   7.340  1.00  0.00    -0.272 N 
ATOM     24  H6  UNL     1      33.664  40.872   6.773  1.00  0.00     0.189 HD
BRANCH  23  25
HETATM   25  N7  UNL     1      33.747  42.809   7.615  1.00  0.00    -0.342 N 
ATOM     26  H72 UNL     1      33.427  43.319   8.439  1.00  0.00     0.176 HD
ATOM     27  H71 UNL     1      34.472  43.207   7.019  1.00  0.00     0.176 HD
ENDBRANCH  23  25
ENDBRANCH  14  21
BRANCH  15  28
HETATM   28  C9  UNL     1      32.033  38.829   9.708  1.00  0.00     0.353 C 
BRANCH  28  29
HETATM   29  N8  UNL     1      32.991  37.711   9.430  1.00  0.00    -0.049 N 
ATOM     30  H83 UNL     1      32.994  37.390   8.462  1.00  0.00     0.277 HD
ATOM     31  H82 UNL     1      33.974  37.982   9.456  1.00  0.00     0.277 HD
ATOM     32  H81 UNL     1      32.731  36.997  10.111  1.00  0.00     0.277 HD
ENDBRANCH  28  29
BRANCH  28  33
HETATM   33  O3  UNL     1      31.328  38.429  10.829  1.00  0.00    -0.366 OA
ATOM     34  H3  UNL     1      31.188  39.125  11.461  1.00  0.00     0.212 HD
ENDBRANCH  28  33
ENDBRANCH  15  28
ENDBRANCH   9  13
TORSDOF 7
ENDMDL
MODEL 2
REMARK VINA RESULT: -6.613501917      1.912      5.462
REMARK  7 active torsions:
REMARK  status: ('A' for Active; 'I' for Inactive)
REMARK    1  A    between atoms: C3_4  and  C4_5 
REMARK    2  A    between atoms: N5_12  and  C5_13 
REMARK    3  A    between atoms: C6_14  and  C7_15 
REMARK       I    between atoms: C7_15  and  N6_17 
REMARK    4  A    between atoms: N6_17  and  N7_19 
REMARK    5  A    between atoms: C8_22  and  C9_23 
REMARK    6  A    between atoms: C9_23  and  N8_24 
REMARK    7  A    between atoms: C9_23  and  O3_28 
ROOT
HETATM    1  N1  UNL     1      28.554  40.928   9.755  1.00  0.00    -0.190 NA
HETATM    2  C1  UNL     1      29.472  40.247   9.550  1.00  0.00     0.122 C 
HETATM    3  C2  UNL     1      30.613  39.397   9.304  1.00  0.00     0.171 A 
HETATM    4  C3  UNL     1      31.413  38.907  10.329  1.00  0.00     0.154 A 
HETATM    5  N3  UNL     1      32.351  38.170   9.708  1.00  0.00    -0.278 N 
ATOM      6  H3  UNL     1      33.106  37.663  10.171  1.00  0.00     0.189 HD
HETATM    7  N4  UNL     1      32.144  38.207   8.420  1.00  0.00    -0.234 N 
ATOM      8  H4  UNL     1      32.722  37.726   7.730  1.00  0.00     0.209 HD
HETATM    9  N5  UNL     1      31.079  38.953   8.121  1.00  0.00    -0.223 N 
ENDROOT
BRANCH   4  10
HETATM   10  C4  UNL     1      31.254  39.149  11.759  1.00  0.00     0.285 C 
HETATM   11  N2  UNL     1      31.002  38.043  12.611  1.00  0.00    -0.056 NA
HETATM   12  O1  UNL     1      31.329  40.284  12.281  1.00  0.00    -0.269 OA
ENDBRANCH   4  10
BRANCH   9  13
HETATM   13  C5  UNL     1      30.532  39.254   6.834  1.00  0.00     0.143 A 
HETATM   14  C6  UNL     1      30.760  40.504   6.238  1.00  0.00     0.080 A 
HETATM   15  C8  UNL     1      30.216  40.718   5.000  1.00  0.00     0.031 A 
HETATM   16  C10 UNL     1      29.477  39.667   4.433  1.00  0.00     0.104 A 
HETATM   17  N9  UNL     1      29.283  38.491   5.034  1.00  0.00    -0.331 N 
HETATM   18  C11 UNL     1      29.801  38.251   6.245  1.00  0.00     0.275 A 
ATOM     19  H9  UNL     1      28.735  37.769   4.565  1.00  0.00     0.168 HD
HETATM   20  O4  UNL     1      29.623  37.132   6.833  1.00  0.00    -0.266 OA
BRANCH  14  21
HETATM   21  C7  UNL     1      31.520  41.504   6.971  1.00  0.00     0.272 C 
HETATM   22  O2  UNL     1      30.887  42.539   7.431  1.00  0.00    -0.266 OA
HETATM   23  N6  UNL     1      32.888  41.503   7.267  1.00  0.00    -0.272 N 
ATOM     24  H6  UNL     1      33.461  40.719   6.952  1.00  0.00     0.189 HD
BRANCH  23  25
HETATM   25  N7  UNL     1      33.505  42.560   7.991  1.00  0.00    -0.342 N 
ATOM     26  H72 UNL     1      33.074  42.854   8.867  1.00  0.00     0.176 HD
ATOM     27  H71 UNL     1      34.353  43.021   7.660  1.00  0.00     0.176 HD
ENDBRANCH  23  25
ENDBRANCH  14  21
BRANCH  15  28
HETATM   28  C9  UNL     1      30.286  42.000   4.243  1.00  0.00     0.353 C 
BRANCH  28  29
HETATM   29  N8  UNL     1      29.140  42.795   4.790  1.00  0.00    -0.049 N 
ATOM     30  H83 UNL     1      29.041  42.750   5.803  1.00  0.00     0.277 HD
ATOM     31  H82 UNL     1      29.267  43.806   4.741  1.00  0.00     0.277 HD
ATOM     32  H81 UNL     1      28.335  42.445   4.271  1.00  0.00     0.277 HD
ENDBRANCH  28  29
BRANCH  28  33
HETATM   33  O3  UNL     1      30.018  41.863   2.893  1.00  0.00    -0.366 OA
ATOM     34  H3  UNL     1      29.410  41.161   2.693  1.00  0.00     0.212 HD
ENDBRANCH  28  33
ENDBRANCH  15  28
ENDBRANCH   9  13
TORSDOF 7
ENDMDL
MODEL 3
REMARK VINA RESULT: -6.238400057      0.971      1.018
REMARK  7 active torsions:
REMARK  status: ('A' for Active; 'I' for Inactive)
REMARK    1  A    between atoms: C3_4  and  C4_5 
REMARK    2  A    between atoms: N5_12  and  C5_13 
REMARK    3  A    between atoms: C6_14  and  C7_15 
REMARK       I    between atoms: C7_15  and  N6_17 
REMARK    4  A    between atoms: N6_17  and  N7_19 
REMARK    5  A    between atoms: C8_22  and  C9_23 
REMARK    6  A    between atoms: C9_23  and  N8_24 
REMARK    7  A    between atoms: C9_23  and  O3_28 
ROOT
HETATM    1  N1  UNL     1      27.876  43.274   7.627  1.00  0.00    -0.190 NA
HETATM    2  C1  UNL     1      28.607  42.889   6.812  1.00  0.00     0.122 C 
HETATM    3  C2  UNL     1      29.517  42.418   5.794  1.00  0.00     0.171 A 
HETATM    4  C3  UNL     1      29.622  43.025   4.549  1.00  0.00     0.154 A 
HETATM    5  N3  UNL     1      30.557  42.311   3.898  1.00  0.00    -0.278 N 
ATOM      6  H3  UNL     1      30.881  42.490   2.947  1.00  0.00     0.189 HD
HETATM    7  N4  UNL     1      30.985  41.354   4.674  1.00  0.00    -0.234 N 
ATOM      8  H4  UNL     1      31.697  40.673   4.409  1.00  0.00     0.209 HD
HETATM    9  N5  UNL     1      30.371  41.379   5.859  1.00  0.00    -0.223 N 
ENDROOT
BRANCH   4  10
HETATM   10  C4  UNL     1      28.874  44.183   4.071  1.00  0.00     0.285 C 
HETATM   11  N2  UNL     1      27.648  43.967   3.390  1.00  0.00    -0.056 NA
HETATM   12  O1  UNL     1      29.254  45.366   4.230  1.00  0.00    -0.269 OA
ENDBRANCH   4  10
BRANCH   9  13
HETATM   13  C5  UNL     1      30.544  40.499   6.974  1.00  0.00     0.143 A 
HETATM   14  C6  UNL     1      31.371  40.864   8.047  1.00  0.00     0.080 A 
HETATM   15  C8  UNL     1      31.481  39.979   9.085  1.00  0.00     0.031 A 
HETATM   16  C10 UNL     1      30.752  38.783   8.988  1.00  0.00     0.104 A 
HETATM   17  N9  UNL     1      29.975  38.473   7.949  1.00  0.00    -0.331 N 
HETATM   18  C11 UNL     1      29.848  39.316   6.916  1.00  0.00     0.275 A 
ATOM     19  H9  UNL     1      29.472  37.585   7.941  1.00  0.00     0.168 HD
HETATM   20  O4  UNL     1      29.109  39.033   5.915  1.00  0.00    -0.266 OA
BRANCH  14  21
HETATM   21  C7  UNL     1      32.088  42.128   7.983  1.00  0.00     0.272 C 
HETATM   22  O2  UNL     1      31.543  43.172   8.528  1.00  0.00    -0.266 OA
HETATM   23  N6  UNL     1      33.334  42.384   7.398  1.00  0.00    -0.272 N 
ATOM     24  H6  UNL     1      33.839  41.617   6.955  1.00  0.00     0.189 HD
BRANCH  23  25
HETATM   25  N7  UNL     1      33.917  43.682   7.401  1.00  0.00    -0.342 N 
ATOM     26  H72 UNL     1      34.766  43.823   7.948  1.00  0.00     0.176 HD
ATOM     27  H71 UNL     1      33.512  44.459   6.878  1.00  0.00     0.176 HD
ENDBRANCH  23  25
ENDBRANCH  14  21
BRANCH  15  28
HETATM   28  C9  UNL     1      32.364  40.155  10.273  1.00  0.00     0.353 C 
BRANCH  28  29
HETATM   29  N8  UNL     1      32.716  38.751  10.660  1.00  0.00    -0.049 N 
ATOM     30  H83 UNL     1      32.475  38.048   9.962  1.00  0.00     0.277 HD
ATOM     31  H82 UNL     1      33.717  38.554  10.668  1.00  0.00     0.277 HD
ATOM     32  H81 UNL     1      32.255  38.628  11.561  1.00  0.00     0.277 HD
ENDBRANCH  28  29
BRANCH  28  33
HETATM   33  O3  UNL     1      31.715  40.682  11.375  1.00  0.00    -0.366 OA
ATOM     34  H3  UNL     1      32.150  41.440  11.747  1.00  0.00     0.212 HD
ENDBRANCH  28  33
ENDBRANCH  15  28
ENDBRANCH   9  13
TORSDOF 7
ENDMDL
MODEL 4
REMARK VINA RESULT: -6.207379691      1.998      6.004
REMARK  7 active torsions:
REMARK  status: ('A' for Active; 'I' for Inactive)
REMARK    1  A    between atoms: C3_4  and  C4_5 
REMARK    2  A    between atoms: N5_12  and  C5_13 
REMARK    3  A    between atoms: C6_14  and  C7_15 
REMARK       I    between atoms: C7_15  and  N6_17 
REMARK    4  A    between atoms: N6_17  and  N7_19 
REMARK    5  A    between atoms: C8_22  and  C9_23 
REMARK    6  A    between atoms: C9_23  and  N8_24 
REMARK    7  A    between atoms: C9_23  and  O3_28 
ROOT
HETATM    1  N1  UNL     1      32.822  41.506   9.001  1.00  0.00    -0.190 NA
HETATM    2  C1  UNL     1      32.096  40.686   8.614  1.00  0.00     0.122 C 
HETATM    3  C2  UNL     1      31.194  39.662   8.141  1.00  0.00     0.171 A 
HETATM    4  C3  UNL     1      31.323  38.328   8.506  1.00  0.00     0.154 A 
HETATM    5  N3  UNL     1      30.315  37.701   7.874  1.00  0.00    -0.278 N 
ATOM      6  H3  UNL     1      30.117  36.702   7.926  1.00  0.00     0.189 HD
HETATM    7  N4  UNL     1      29.633  38.573   7.183  1.00  0.00    -0.234 N 
ATOM      8  H4  UNL     1      28.818  38.345   6.614  1.00  0.00     0.209 HD
HETATM    9  N5  UNL     1      30.138  39.801   7.317  1.00  0.00    -0.223 N 
ENDROOT
BRANCH   4  10
HETATM   10  C4  UNL     1      32.335  37.753   9.386  1.00  0.00     0.285 C 
HETATM   11  N2  UNL     1      32.098  37.751  10.785  1.00  0.00    -0.056 NA
HETATM   12  O1  UNL     1      33.407  37.255   8.974  1.00  0.00    -0.269 OA
ENDBRANCH   4  10
BRANCH   9  13
HETATM   13  C5  UNL     1      29.693  41.020   6.717  1.00  0.00     0.143 A 
HETATM   14  C6  UNL     1      28.976  41.963   7.470  1.00  0.00     0.080 A 
HETATM   15  C8  UNL     1      28.591  43.113   6.835  1.00  0.00     0.031 A 
HETATM   16  C10 UNL     1      28.950  43.251   5.484  1.00  0.00     0.104 A 
HETATM   17  N9  UNL     1      29.634  42.330   4.803  1.00  0.00    -0.331 N 
HETATM   18  C11 UNL     1      30.024  41.194   5.394  1.00  0.00     0.275 A 
ATOM     19  H9  UNL     1      29.863  42.494   3.822  1.00  0.00     0.168 HD
HETATM   20  O4  UNL     1      30.678  40.303   4.756  1.00  0.00    -0.266 OA
BRANCH  14  21
HETATM   21  C7  UNL     1      28.651  41.657   8.854  1.00  0.00     0.272 C 
HETATM   22  O2  UNL     1      29.258  42.321   9.789  1.00  0.00    -0.266 OA
HETATM   23  N6  UNL     1      27.736  40.714   9.337  1.00  0.00    -0.272 N 
ATOM     24  H6  UNL     1      27.204  40.154   8.669  1.00  0.00     0.189 HD
BRANCH  23  25
HETATM   25  N7  UNL     1      27.523  40.511  10.728  1.00  0.00    -0.342 N 
ATOM     26  H72 UNL     1      28.271  40.074  11.267  1.00  0.00     0.176 HD
ATOM     27  H71 UNL     1      26.657  40.789  11.190  1.00  0.00     0.176 HD
ENDBRANCH  23  25
ENDBRANCH  14  21
BRANCH  15  28
HETATM   28  C9  UNL     1      27.764  44.193   7.443  1.00  0.00     0.353 C 
BRANCH  28  29
HETATM   29  N8  UNL     1      27.417  45.069   6.278  1.00  0.00    -0.049 N 
ATOM     30  H83 UNL     1      27.942  45.942   6.235  1.00  0.00     0.277 HD
ATOM     31  H82 UNL     1      27.729  44.713   5.374  1.00  0.00     0.277 HD
ATOM     32  H81 UNL     1      26.407  45.188   6.359  1.00  0.00     0.277 HD
ENDBRANCH  28  29
BRANCH  28  33
HETATM   33  O3  UNL     1      28.465  45.009   8.312  1.00  0.00    -0.366 OA
ATOM     34  H3  UNL     1      27.918  45.630   8.779  1.00  0.00     0.212 HD
ENDBRANCH  28  33
ENDBRANCH  15  28
ENDBRANCH   9  13
TORSDOF 7
ENDMDL
MODEL 5
REMARK VINA RESULT: -6.122910929      2.016      2.501
REMARK  7 active torsions:
REMARK  status: ('A' for Active; 'I' for Inactive)
REMARK    1  A    between atoms: C3_4  and  C4_5 
REMARK    2  A    between atoms: N5_12  and  C5_13 
REMARK    3  A    between atoms: C6_14  and  C7_15 
REMARK       I    between atoms: C7_15  and  N6_17 
REMARK    4  A    between atoms: N6_17  and  N7_19 
REMARK    5  A    between atoms: C8_22  and  C9_23 
REMARK    6  A    between atoms: C9_23  and  N8_24 
REMARK    7  A    between atoms: C9_23  and  O3_28 
ROOT
HETATM    1  N1  UNL     1      28.525  43.103   7.739  1.00  0.00    -0.190 NA
HETATM    2  C1  UNL     1      29.241  42.417   7.134  1.00  0.00     0.122 C 
HETATM    3  C2  UNL     1      30.130  41.571   6.374  1.00  0.00     0.171 A 
HETATM    4  C3  UNL     1      30.151  41.568   4.985  1.00  0.00     0.154 A 
HETATM    5  N3  UNL     1      31.094  40.665   4.659  1.00  0.00    -0.278 N 
ATOM      6  H3  UNL     1      31.368  40.415   3.709  1.00  0.00     0.189 HD
HETATM    7  N4  UNL     1      31.602  40.162   5.750  1.00  0.00    -0.234 N 
ATOM      8  H4  UNL     1      32.337  39.454   5.770  1.00  0.00     0.209 HD
HETATM    9  N5  UNL     1      31.038  40.691   6.838  1.00  0.00    -0.223 N 
ENDROOT
BRANCH   4  10
HETATM   10  C4  UNL     1      29.326  42.375   4.093  1.00  0.00     0.285 C 
HETATM   11  N2  UNL     1      29.821  43.631   3.659  1.00  0.00    -0.056 NA
HETATM   12  O1  UNL     1      28.198  42.019   3.683  1.00  0.00    -0.269 OA
ENDBRANCH   4  10
BRANCH   9  13
HETATM   13  C5  UNL     1      31.302  40.400   8.213  1.00  0.00     0.143 A 
HETATM   14  C6  UNL     1      32.105  41.258   8.981  1.00  0.00     0.080 A 
HETATM   15  C8  UNL     1      32.306  40.923  10.293  1.00  0.00     0.031 A 
HETATM   16  C10 UNL     1      31.688  39.751  10.758  1.00  0.00     0.104 A 
HETATM   17  N9  UNL     1      30.930  38.961   9.995  1.00  0.00    -0.331 N 
HETATM   18  C11 UNL     1      30.716  39.259   8.707  1.00  0.00     0.275 A 
ATOM     19  H9  UNL     1      30.510  38.123  10.396  1.00  0.00     0.168 HD
HETATM   20  O4  UNL     1      29.994  38.514   7.964  1.00  0.00    -0.266 OA
BRANCH  14  21
HETATM   21  C7  UNL     1      32.704  42.419   8.341  1.00  0.00     0.272 C 
HETATM   22  O2  UNL     1      32.151  43.577   8.532  1.00  0.00    -0.266 OA
HETATM   23  N6  UNL     1      33.839  42.463   7.524  1.00  0.00    -0.272 N 
ATOM     24  H6  UNL     1      34.343  41.598   7.331  1.00  0.00     0.189 HD
BRANCH  23  25
HETATM   25  N7  UNL     1      34.311  43.678   6.954  1.00  0.00    -0.342 N 
ATOM     26  H72 UNL     1      34.429  44.481   7.570  1.00  0.00     0.176 HD
ATOM     27  H71 UNL     1      34.531  43.760   5.961  1.00  0.00     0.176 HD
ENDBRANCH  23  25
ENDBRANCH  14  21
BRANCH  15  28
HETATM   28  C9  UNL     1      33.182  41.665  11.243  1.00  0.00     0.353 C 
BRANCH  28  29
HETATM   29  N8  UNL     1      33.546  40.632  12.266  1.00  0.00    -0.049 N 
ATOM     30  H83 UNL     1      34.290  39.998  11.979  1.00  0.00     0.277 HD
ATOM     31  H82 UNL     1      34.030  41.001  13.085  1.00  0.00     0.277 HD
ATOM     32  H81 UNL     1      32.657  40.175  12.471  1.00  0.00     0.277 HD
ENDBRANCH  28  29
BRANCH  28  33
HETATM   33  O3  UNL     1      32.525  42.657  11.948  1.00  0.00    -0.366 OA
ATOM     34  H3  UNL     1      32.586  43.515  11.546  1.00  0.00     0.212 HD
ENDBRANCH  28  33
ENDBRANCH  15  28
ENDBRANCH   9  13
TORSDOF 7
ENDMDL
