MODEL 1
REMARK VINA RESULT: -8.317042764      0.000      0.000
REMARK  7 active torsions:
REMARK  status: ('A' for Active; 'I' for Inactive)
REMARK    1  A    between atoms: N2_4  and  C3_6 
REMARK    2  A    between atoms: C3_6  and  C4_7 
REMARK    3  A    between atoms: C4_7  and  C5_11 
REMARK    4  A    between atoms: C5_11  and  O1_12 
REMARK    5  A    between atoms: C5_11  and  C6_14 
REMARK    6  A    between atoms: C6_14  and  N4_15 
REMARK    7  A    between atoms: C10_30  and  N10_31 
ROOT
HETATM    1  C1  UNL     1      29.893  37.823   6.071  1.00  0.00     0.177 C 
HETATM    2  N1  UNL     1      30.257  39.196   5.833  1.00  0.00    -0.169 N 
HETATM    3  C2  UNL     1      30.908  40.043   6.646  1.00  0.00     0.686 A 
HETATM    4  N2  UNL     1      31.363  39.853   7.822  1.00  0.00    -0.200 N 
ATOM      5  H2  UNL     1      31.831  40.646   8.261  1.00  0.00     0.183 HD
HETATM    6  N8  UNL     1      31.008  41.234   5.954  1.00  0.00    -0.182 N 
ATOM      7  H8  UNL     1      31.457  42.075   6.314  1.00  0.00     0.184 HD
HETATM    8  C8  UNL     1      30.445  41.137   4.761  1.00  0.00     0.162 A 
HETATM    9  C9  UNL     1      30.249  41.972   3.676  1.00  0.00     0.290 A 
HETATM   10  O2  UNL     1      30.687  43.140   3.767  1.00  0.00    -0.265 OA
HETATM   11  N9  UNL     1      29.606  41.487   2.606  1.00  0.00    -0.154 N 
ATOM     12  H9  UNL     1      29.465  42.109   1.811  1.00  0.00     0.187 HD
HETATM   13  C10 UNL     1      29.137  40.236   2.514  1.00  0.00     0.680 A 
HETATM   14  N11 UNL     1      29.319  39.412   3.558  1.00  0.00    -0.174 N 
ATOM     15  H11 UNL     1      28.972  38.453   3.515  1.00  0.00     0.186 HD
HETATM   16  C11 UNL     1      29.963  39.849   4.667  1.00  0.00     0.171 A 
ENDROOT
BRANCH   4  17
HETATM   17  C3  UNL     1      31.292  38.670   8.582  1.00  0.00     0.133 C 
BRANCH  17  18
HETATM   18  C4  UNL     1      32.020  38.822   9.913  1.00  0.00     0.049 C 
HETATM   19  N3  UNL     1      31.588  39.675  10.716  1.00  0.00    -0.399 N 
ATOM     20  H32 UNL     1      30.790  40.282  10.528  1.00  0.00     0.156 HD
ATOM     21  H31 UNL     1      32.074  39.776  11.606  1.00  0.00     0.156 HD
BRANCH  18  22
HETATM   22  C5  UNL     1      33.158  37.955  10.182  1.00  0.00     0.188 C 
BRANCH  22  23
HETATM   23  O1  UNL     1      33.515  37.222   9.019  1.00  0.00    -0.388 OA
ATOM     24  H1  UNL     1      33.537  36.290   9.204  1.00  0.00     0.210 HD
ENDBRANCH  22  23
BRANCH  22  25
HETATM   25  C6  UNL     1      33.113  37.027  11.318  1.00  0.00     0.189 C 
BRANCH  25  26
HETATM   26  N4  UNL     1      34.304  36.275  11.603  1.00  0.00    -0.268 N 
HETATM   27  C7  UNL     1      35.283  36.441  12.491  1.00  0.00     0.220 A 
HETATM   28  N5  UNL     1      36.232  35.466  12.354  1.00  0.00    -0.279 N 
HETATM   29  N6  UNL     1      35.801  34.713  11.366  1.00  0.00    -0.227 N 
ATOM     30  H5  UNL     1      37.086  35.349  12.899  1.00  0.00     0.189 HD
HETATM   31  N7  UNL     1      34.664  35.170  10.905  1.00  0.00    -0.225 N 
ATOM     32  H6  UNL     1      36.284  33.889  11.009  1.00  0.00     0.210 HD
ATOM     33  H7  UNL     1      34.131  34.758  10.138  1.00  0.00     0.210 HD
ENDBRANCH  25  26
ENDBRANCH  22  25
ENDBRANCH  18  22
ENDBRANCH  17  18
ENDBRANCH   4  17
BRANCH  13  34
HETATM   34  N10 UNL     1      28.516  39.819   1.437  1.00  0.00    -0.234 N 
ATOM     35 2H10 UNL     1      27.502  39.908   1.357  1.00  0.00     0.174 HD
ATOM     36 1H10 UNL     1      29.025  39.398   0.660  1.00  0.00     0.174 HD
ENDBRANCH  13  34
TORSDOF 7
ENDMDL
MODEL 2
REMARK VINA RESULT: -7.569013001      1.746      2.789
REMARK  7 active torsions:
REMARK  status: ('A' for Active; 'I' for Inactive)
REMARK    1  A    between atoms: N2_4  and  C3_6 
REMARK    2  A    between atoms: C3_6  and  C4_7 
REMARK    3  A    between atoms: C4_7  and  C5_11 
REMARK    4  A    between atoms: C5_11  and  O1_12 
REMARK    5  A    between atoms: C5_11  and  C6_14 
REMARK    6  A    between atoms: C6_14  and  N4_15 
REMARK    7  A    between atoms: C10_30  and  N10_31 
ROOT
HETATM    1  C1  UNL     1      32.200  40.931   8.809  1.00  0.00     0.177 C 
HETATM    2  N1  UNL     1      31.432  39.996   8.027  1.00  0.00    -0.169 N 
HETATM    3  C2  UNL     1      31.080  38.737   8.333  1.00  0.00     0.686 A 
HETATM    4  N2  UNL     1      31.334  38.054   9.379  1.00  0.00    -0.200 N 
ATOM      5  H2  UNL     1      30.962  37.104   9.401  1.00  0.00     0.183 HD
HETATM    6  N8  UNL     1      30.353  38.273   7.255  1.00  0.00    -0.182 N 
ATOM      7  H8  UNL     1      29.946  37.341   7.191  1.00  0.00     0.184 HD
HETATM    8  C8  UNL     1      30.253  39.199   6.316  1.00  0.00     0.162 A 
HETATM    9  C9  UNL     1      29.667  39.300   5.067  1.00  0.00     0.290 A 
HETATM   10  O2  UNL     1      29.052  38.297   4.642  1.00  0.00    -0.265 OA
HETATM   11  N9  UNL     1      29.793  40.451   4.395  1.00  0.00    -0.154 N 
ATOM     12  H9  UNL     1      29.358  40.516   3.475  1.00  0.00     0.187 HD
HETATM   13  C10 UNL     1      30.453  41.522   4.854  1.00  0.00     0.680 A 
HETATM   14  N11 UNL     1      31.028  41.442   6.064  1.00  0.00    -0.174 N 
ATOM     15  H11 UNL     1      31.538  42.242   6.438  1.00  0.00     0.186 HD
HETATM   16  C11 UNL     1      30.933  40.301   6.789  1.00  0.00     0.171 A 
ENDROOT
BRANCH   4  17
HETATM   17  C3  UNL     1      32.069  38.465  10.508  1.00  0.00     0.133 C 
BRANCH  17  18
HETATM   18  C4  UNL     1      32.853  37.305  11.110  1.00  0.00     0.049 C 
HETATM   19  N3  UNL     1      32.408  36.783  12.152  1.00  0.00    -0.399 N 
ATOM     20  H32 UNL     1      31.562  37.095  12.629  1.00  0.00     0.156 HD
ATOM     21  H31 UNL     1      32.932  36.006  12.555  1.00  0.00     0.156 HD
BRANCH  18  22
HETATM   22  C5  UNL     1      34.060  36.859  10.429  1.00  0.00     0.188 C 
BRANCH  22  23
HETATM   23  O1  UNL     1      33.907  36.960   9.020  1.00  0.00    -0.388 OA
ATOM     24  H1  UNL     1      33.664  37.845   8.772  1.00  0.00     0.210 HD
ENDBRANCH  22  23
BRANCH  22  25
HETATM   25  C6  UNL     1      34.625  35.541  10.738  1.00  0.00     0.189 C 
BRANCH  25  26
HETATM   26  N4  UNL     1      35.701  35.490  11.689  1.00  0.00    -0.268 N 
HETATM   27  C7  UNL     1      36.430  36.438  12.275  1.00  0.00     0.220 A 
HETATM   28  N5  UNL     1      37.375  35.886  13.094  1.00  0.00    -0.279 N 
HETATM   29  N6  UNL     1      37.196  34.587  12.987  1.00  0.00    -0.227 N 
ATOM     30  H5  UNL     1      38.067  36.374  13.665  1.00  0.00     0.189 HD
HETATM   31  N7  UNL     1      36.214  34.328  12.162  1.00  0.00    -0.225 N 
ATOM     32  H6  UNL     1      37.746  33.882  13.477  1.00  0.00     0.210 HD
ATOM     33  H7  UNL     1      35.884  33.394  11.914  1.00  0.00     0.210 HD
ENDBRANCH  25  26
ENDBRANCH  22  25
ENDBRANCH  18  22
ENDBRANCH  17  18
ENDBRANCH   4  17
BRANCH  13  34
HETATM   34  N10 UNL     1      30.541  42.623   4.147  1.00  0.00    -0.234 N 
ATOM     35 2H10 UNL     1      31.090  42.644   3.287  1.00  0.00     0.174 HD
ATOM     36 1H10 UNL     1      30.066  43.478   4.436  1.00  0.00     0.174 HD
ENDBRANCH  13  34
TORSDOF 7
ENDMDL
MODEL 3
REMARK VINA RESULT: -7.560705716      1.757      2.617
REMARK  7 active torsions:
REMARK  status: ('A' for Active; 'I' for Inactive)
REMARK    1  A    between atoms: N2_4  and  C3_6 
REMARK    2  A    between atoms: C3_6  and  C4_7 
REMARK    3  A    between atoms: C4_7  and  C5_11 
REMARK    4  A    between atoms: C5_11  and  O1_12 
REMARK    5  A    between atoms: C5_11  and  C6_14 
REMARK    6  A    between atoms: C6_14  and  N4_15 
REMARK    7  A    between atoms: C10_30  and  N10_31 
ROOT
HETATM    1  C1  UNL     1      32.050  41.545   8.462  1.00  0.00     0.177 C 
HETATM    2  N1  UNL     1      31.272  40.487   7.868  1.00  0.00    -0.169 N 
HETATM    3  C2  UNL     1      30.866  39.333   8.421  1.00  0.00     0.686 A 
HETATM    4  N2  UNL     1      31.065  38.882   9.597  1.00  0.00    -0.200 N 
ATOM      5  H2  UNL     1      30.659  37.969   9.806  1.00  0.00     0.183 HD
HETATM    6  N8  UNL     1      30.153  38.672   7.441  1.00  0.00    -0.182 N 
ATOM      7  H8  UNL     1      29.715  37.759   7.562  1.00  0.00     0.184 HD
HETATM    8  C8  UNL     1      30.114  39.379   6.324  1.00  0.00     0.162 A 
HETATM    9  C9  UNL     1      29.568  39.229   5.062  1.00  0.00     0.290 A 
HETATM   10  O2  UNL     1      28.930  38.177   4.838  1.00  0.00    -0.265 OA
HETATM   11  N9  UNL     1      29.754  40.206   4.167  1.00  0.00    -0.154 N 
ATOM     12  H9  UNL     1      29.349  40.087   3.239  1.00  0.00     0.187 HD
HETATM   13  C10 UNL     1      30.439  41.330   4.411  1.00  0.00     0.680 A 
HETATM   14  N11 UNL     1      30.976  41.493   5.631  1.00  0.00    -0.174 N 
ATOM     15  H11 UNL     1      31.503  42.340   5.845  1.00  0.00     0.186 HD
HETATM   16  C11 UNL     1      30.819  40.536   6.577  1.00  0.00     0.171 A 
ENDROOT
BRANCH   4  17
HETATM   17  C3  UNL     1      31.781  39.502  10.638  1.00  0.00     0.133 C 
BRANCH  17  18
HETATM   18  C4  UNL     1      32.824  38.560  11.230  1.00  0.00     0.049 C 
HETATM   19  N3  UNL     1      33.589  39.017  12.104  1.00  0.00    -0.399 N 
ATOM     20  H32 UNL     1      33.566  39.983  12.432  1.00  0.00     0.156 HD
ATOM     21  H31 UNL     1      34.286  38.388  12.500  1.00  0.00     0.156 HD
BRANCH  18  22
HETATM   22  C5  UNL     1      32.856  37.182  10.762  1.00  0.00     0.188 C 
BRANCH  22  23
HETATM   23  O1  UNL     1      32.462  36.292  11.795  1.00  0.00    -0.388 OA
ATOM     24  H1  UNL     1      32.756  35.408  11.608  1.00  0.00     0.210 HD
ENDBRANCH  22  23
BRANCH  22  25
HETATM   25  C6  UNL     1      34.075  36.654  10.138  1.00  0.00     0.189 C 
BRANCH  25  26
HETATM   26  N4  UNL     1      34.933  35.838  10.952  1.00  0.00    -0.268 N 
HETATM   27  C7  UNL     1      35.794  36.129  11.926  1.00  0.00     0.220 A 
HETATM   28  N5  UNL     1      36.409  34.996  12.383  1.00  0.00    -0.279 N 
HETATM   29  N6  UNL     1      35.899  34.022  11.662  1.00  0.00    -0.227 N 
ATOM     30  H5  UNL     1      37.110  34.924  13.121  1.00  0.00     0.189 HD
HETATM   31  N7  UNL     1      35.024  34.493  10.810  1.00  0.00    -0.225 N 
ATOM     32  H6  UNL     1      36.149  33.037  11.755  1.00  0.00     0.210 HD
ATOM     33  H7  UNL     1      34.494  33.934  10.141  1.00  0.00     0.210 HD
ENDBRANCH  25  26
ENDBRANCH  22  25
ENDBRANCH  18  22
ENDBRANCH  17  18
ENDBRANCH   4  17
BRANCH  13  34
HETATM   34  N10 UNL     1      30.586  42.253   3.491  1.00  0.00    -0.234 N 
ATOM     35 2H10 UNL     1      29.771  42.697   3.069  1.00  0.00     0.174 HD
ATOM     36 1H10 UNL     1      31.511  42.547   3.178  1.00  0.00     0.174 HD
ENDBRANCH  13  34
TORSDOF 7
ENDMDL
MODEL 4
REMARK VINA RESULT: -7.461424090      1.121      1.260
REMARK  7 active torsions:
REMARK  status: ('A' for Active; 'I' for Inactive)
REMARK    1  A    between atoms: N2_4  and  C3_6 
REMARK    2  A    between atoms: C3_6  and  C4_7 
REMARK    3  A    between atoms: C4_7  and  C5_11 
REMARK    4  A    between atoms: C5_11  and  O1_12 
REMARK    5  A    between atoms: C5_11  and  C6_14 
REMARK    6  A    between atoms: C6_14  and  N4_15 
REMARK    7  A    between atoms: C10_30  and  N10_31 
ROOT
HETATM    1  C1  UNL     1      29.929  38.063   6.288  1.00  0.00     0.177 C 
HETATM    2  N1  UNL     1      30.280  39.412   5.922  1.00  0.00    -0.169 N 
HETATM    3  C2  UNL     1      30.954  40.326   6.637  1.00  0.00     0.686 A 
HETATM    4  N2  UNL     1      31.448  40.238   7.809  1.00  0.00    -0.200 N 
ATOM      5  H2  UNL     1      31.926  41.067   8.163  1.00  0.00     0.183 HD
HETATM    6  N8  UNL     1      31.027  41.453   5.842  1.00  0.00    -0.182 N 
ATOM      7  H8  UNL     1      31.484  42.323   6.113  1.00  0.00     0.184 HD
HETATM    8  C8  UNL     1      30.426  41.253   4.681  1.00  0.00     0.162 A 
HETATM    9  C9  UNL     1      30.191  41.991   3.535  1.00  0.00     0.290 A 
HETATM   10  O2  UNL     1      30.629  43.163   3.511  1.00  0.00    -0.265 OA
HETATM   11  N9  UNL     1      29.516  41.415   2.533  1.00  0.00    -0.154 N 
ATOM     12  H9  UNL     1      29.347  41.967   1.692  1.00  0.00     0.187 HD
HETATM   13  C10 UNL     1      29.049  40.161   2.564  1.00  0.00     0.680 A 
HETATM   14  N11 UNL     1      29.268  39.430   3.668  1.00  0.00    -0.174 N 
ATOM     15  H11 UNL     1      28.923  38.471   3.719  1.00  0.00     0.186 HD
HETATM   16  C11 UNL     1      29.946  39.962   4.714  1.00  0.00     0.171 A 
ENDROOT
BRANCH   4  17
HETATM   17  C3  UNL     1      31.406  39.125   8.670  1.00  0.00     0.133 C 
BRANCH  17  18
HETATM   18  C4  UNL     1      30.965  39.526  10.074  1.00  0.00     0.049 C 
HETATM   19  N3  UNL     1      29.822  40.010  10.206  1.00  0.00    -0.399 N 
ATOM     20  H32 UNL     1      29.176  40.164   9.433  1.00  0.00     0.156 HD
ATOM     21  H31 UNL     1      29.526  40.278  11.145  1.00  0.00     0.156 HD
BRANCH  18  22
HETATM   22  C5  UNL     1      31.887  39.305  11.178  1.00  0.00     0.188 C 
BRANCH  22  23
HETATM   23  O1  UNL     1      33.230  39.488  10.754  1.00  0.00    -0.388 OA
ATOM     24  H1  UNL     1      33.831  39.047  11.343  1.00  0.00     0.210 HD
ENDBRANCH  22  23
BRANCH  22  25
HETATM   25  C6  UNL     1      31.813  38.059  11.949  1.00  0.00     0.189 C 
BRANCH  25  26
HETATM   26  N4  UNL     1      32.878  37.111  11.777  1.00  0.00    -0.268 N 
HETATM   27  C7  UNL     1      33.756  36.578  12.625  1.00  0.00     0.220 A 
HETATM   28  N5  UNL     1      34.610  35.734  11.971  1.00  0.00    -0.279 N 
HETATM   29  N6  UNL     1      34.226  35.772  10.714  1.00  0.00    -0.227 N 
ATOM     30  H5  UNL     1      35.378  35.193  12.372  1.00  0.00     0.189 HD
HETATM   31  N7  UNL     1      33.204  36.578  10.573  1.00  0.00    -0.225 N 
ATOM     32  H6  UNL     1      34.661  35.247   9.956  1.00  0.00     0.210 HD
ATOM     33  H7  UNL     1      32.727  36.776   9.693  1.00  0.00     0.210 HD
ENDBRANCH  25  26
ENDBRANCH  22  25
ENDBRANCH  18  22
ENDBRANCH  17  18
ENDBRANCH   4  17
BRANCH  13  34
HETATM   34  N10 UNL     1      28.395  39.652   1.548  1.00  0.00    -0.234 N 
ATOM     35 2H10 UNL     1      27.403  39.853   1.418  1.00  0.00     0.174 HD
ATOM     36 1H10 UNL     1      28.857  39.047   0.868  1.00  0.00     0.174 HD
ENDBRANCH  13  34
TORSDOF 7
ENDMDL
MODEL 5
REMARK VINA RESULT: -7.354543563      1.935      8.635
REMARK  7 active torsions:
REMARK  status: ('A' for Active; 'I' for Inactive)
REMARK    1  A    between atoms: N2_4  and  C3_6 
REMARK    2  A    between atoms: C3_6  and  C4_7 
REMARK    3  A    between atoms: C4_7  and  C5_11 
REMARK    4  A    between atoms: C5_11  and  O1_12 
REMARK    5  A    between atoms: C5_11  and  C6_14 
REMARK    6  A    between atoms: C6_14  and  N4_15 
REMARK    7  A    between atoms: C10_30  and  N10_31 
ROOT
HETATM    1  C1  UNL     1      30.545  40.333  10.921  1.00  0.00     0.177 C 
HETATM    2  N1  UNL     1      31.483  39.416  10.325  1.00  0.00    -0.169 N 
HETATM    3  C2  UNL     1      31.945  39.390   9.064  1.00  0.00     0.686 A 
HETATM    4  N2  UNL     1      31.674  40.159   8.084  1.00  0.00    -0.200 N 
ATOM      5  H2  UNL     1      32.146  39.953   7.203  1.00  0.00     0.183 HD
HETATM    6  N8  UNL     1      32.818  38.322   9.001  1.00  0.00    -0.182 N 
ATOM      7  H8  UNL     1      33.332  38.045   8.165  1.00  0.00     0.184 HD
HETATM    8  C8  UNL     1      32.899  37.706  10.169  1.00  0.00     0.162 A 
HETATM    9  C9  UNL     1      33.585  36.620  10.682  1.00  0.00     0.290 A 
HETATM   10  O2  UNL     1      34.346  36.005   9.903  1.00  0.00    -0.265 OA
HETATM   11  N9  UNL     1      33.393  36.295  11.967  1.00  0.00    -0.154 N 
ATOM     12  H9  UNL     1      33.902  35.492  12.337  1.00  0.00     0.187 HD
HETATM   13  C10 UNL     1      32.577  36.956  12.796  1.00  0.00     0.680 A 
HETATM   14  N11 UNL     1      31.903  38.013  12.315  1.00  0.00    -0.174 N 
ATOM     15  H11 UNL     1      31.274  38.535  12.925  1.00  0.00     0.186 HD
HETATM   16  C11 UNL     1      32.058  38.388  11.022  1.00  0.00     0.171 A 
ENDROOT
BRANCH   4  17
HETATM   17  C3  UNL     1      30.795  41.259   8.081  1.00  0.00     0.133 C 
BRANCH  17  18
HETATM   18  C4  UNL     1      29.454  40.894   7.455  1.00  0.00     0.049 C 
HETATM   19  N3  UNL     1      28.427  41.054   8.147  1.00  0.00    -0.399 N 
ATOM     20  H32 UNL     1      28.436  41.398   9.107  1.00  0.00     0.156 HD
ATOM     21  H31 UNL     1      27.530  40.811   7.728  1.00  0.00     0.156 HD
BRANCH  18  22
HETATM   22  C5  UNL     1      29.441  40.403   6.085  1.00  0.00     0.188 C 
BRANCH  22  23
HETATM   23  O1  UNL     1      29.792  39.027   6.042  1.00  0.00    -0.388 OA
ATOM     24  H1  UNL     1      30.711  38.922   5.826  1.00  0.00     0.210 HD
ENDBRANCH  22  23
BRANCH  22  25
HETATM   25  C6  UNL     1      30.210  41.107   5.052  1.00  0.00     0.189 C 
BRANCH  25  26
HETATM   26  N4  UNL     1      29.802  40.927   3.687  1.00  0.00    -0.268 N 
HETATM   27  C7  UNL     1      29.600  41.784   2.687  1.00  0.00     0.220 A 
HETATM   28  N5  UNL     1      29.179  41.127   1.564  1.00  0.00    -0.279 N 
HETATM   29  N6  UNL     1      29.132  39.859   1.912  1.00  0.00    -0.227 N 
ATOM     30  H5  UNL     1      28.950  41.531   0.655  1.00  0.00     0.189 HD
HETATM   31  N7  UNL     1      29.495  39.715   3.161  1.00  0.00    -0.225 N 
ATOM     32  H6  UNL     1      28.852  39.096   1.296  1.00  0.00     0.210 HD
ATOM     33  H7  UNL     1      29.540  38.827   3.663  1.00  0.00     0.210 HD
ENDBRANCH  25  26
ENDBRANCH  22  25
ENDBRANCH  18  22
ENDBRANCH  17  18
ENDBRANCH   4  17
BRANCH  13  34
HETATM   34  N10 UNL     1      32.431  36.588  14.047  1.00  0.00    -0.234 N 
ATOM     35 2H10 UNL     1      32.720  35.658  14.349  1.00  0.00     0.174 HD
ATOM     36 1H10 UNL     1      32.030  37.218  14.742  1.00  0.00     0.174 HD
ENDBRANCH  13  34
TORSDOF 7
ENDMDL
