MODEL 1
REMARK VINA RESULT: -7.676299898      0.000      0.000
REMARK  14 active torsions:
REMARK  status: ('A' for Active; 'I' for Inactive)
REMARK    1  A    between atoms: C2_2  and  C3_3 
REMARK    2  A    between atoms: C3_3  and  C5_5 
REMARK    3  A    between atoms: C7_10  and  C8_11 
REMARK    4  A    between atoms: C8_11  and  C9_12 
REMARK    5  A    between atoms: C10_13  and  C11_14 
REMARK    6  A    between atoms: C11_14  and  C12_15 
REMARK    7  A    between atoms: C12_15  and  O2_17 
REMARK    8  A    between atoms: O2_17  and  C14_18 
REMARK    9  A    between atoms: C14_18  and  C15_20 
REMARK   10  A    between atoms: C15_20  and  C16_21 
REMARK   11  A    between atoms: C16_21  and  S1_22 
REMARK   12  A    between atoms: C19_28  and  C20_29 
REMARK   13  A    between atoms: C23_32  and  C24_33 
REMARK   14  A    between atoms: C28_38  and  O7_39 
ROOT
HETATM    1  C24 UNL     1      15.212  24.371  18.303  1.00  0.00     0.094 C 
HETATM    2  C25 UNL     1      14.430  23.146  18.091  1.00  0.00     0.087 C 
HETATM    3  N2  UNL     1      13.814  22.182  17.917  1.00  0.00    -0.192 NA
ENDROOT
BRANCH   1   4
HETATM    4  C23 UNL     1      16.096  24.760  17.468  1.00  0.00     0.015 C 
HETATM    5  C22 UNL     1      17.493  24.410  17.429  1.00  0.00    -0.059 C 
HETATM    6  C19 UNL     1      18.055  24.270  16.023  1.00  0.00     0.114 C 
HETATM    7  C26 UNL     1      18.080  23.474  18.404  1.00  0.00     0.040 C 
HETATM    8  C18 UNL     1      19.561  24.291  16.124  1.00  0.00     0.268 C 
HETATM    9  O5  UNL     1      20.162  25.115  16.993  1.00  0.00    -0.306 OA
HETATM   10  O6  UNL     1      20.130  23.468  15.319  1.00  0.00    -0.264 OA
HETATM   11  C7  UNL     1      20.493  26.478  16.968  1.00  0.00     0.227 C 
HETATM   12  C6  UNL     1      20.509  27.085  18.317  1.00  0.00     0.247 C 
HETATM   13  N1  UNL     1      20.265  26.350  19.521  1.00  0.00    -0.353 N 
HETATM   14  O1  UNL     1      20.750  28.321  18.427  1.00  0.00    -0.271 OA
HETATM   15  C5  UNL     1      20.883  25.117  19.920  1.00  0.00     0.098 C 
ATOM     16  H1  UNL     1      19.579  26.745  20.164  1.00  0.00     0.163 HD
HETATM   17  C29 UNL     1      20.011  23.921  19.973  1.00  0.00     0.034 C 
HETATM   18  C28 UNL     1      18.549  24.151  19.706  1.00  0.00     0.131 C 
HETATM   19  C30 UNL     1      20.232  23.033  21.203  1.00  0.00     0.015 C 
HETATM   20  C27 UNL     1      17.390  22.193  18.684  1.00  0.00     0.017 C 
BRANCH   6  21
HETATM   21  C20 UNL     1      17.563  23.108  15.250  1.00  0.00     0.014 C 
HETATM   22  C21 UNL     1      16.148  23.151  14.790  1.00  0.00     0.006 C 
ENDBRANCH   6  21
BRANCH  11  23
HETATM   23  C8  UNL     1      19.798  27.241  15.902  1.00  0.00     0.069 C 
BRANCH  23  24
HETATM   24  C9  UNL     1      20.725  28.141  15.185  1.00  0.00    -0.028 C 
HETATM   25  C10 UNL     1      22.067  27.922  15.216  1.00  0.00    -0.028 C 
BRANCH  25  26
HETATM   26  C11 UNL     1      23.040  28.780  14.525  1.00  0.00     0.059 C 
BRANCH  26  27
HETATM   27  C12 UNL     1      24.188  29.182  15.436  1.00  0.00     0.131 C 
HETATM   28  C13 UNL     1      24.165  28.383  16.724  1.00  0.00     0.040 C 
BRANCH  27  29
HETATM   29  O2  UNL     1      25.427  29.111  14.782  1.00  0.00    -0.316 OA
BRANCH  29  30
HETATM   30  C14 UNL     1      26.599  29.681  15.261  1.00  0.00     0.260 C 
HETATM   31  O3  UNL     1      26.705  30.931  15.162  1.00  0.00    -0.265 OA
BRANCH  30  32
HETATM   32  C15 UNL     1      27.682  28.834  15.867  1.00  0.00     0.123 C 
BRANCH  32  33
HETATM   33  C16 UNL     1      27.568  27.440  15.297  1.00  0.00     0.118 C 
BRANCH  33  34
HETATM   34  S1  UNL     1      27.420  26.228  16.564  1.00  0.00     0.011 S 
HETATM   35  C17 UNL     1      27.510  27.005  18.152  1.00  0.00     0.127 C 
HETATM   36  O4  UNL     1      25.957  25.418  16.427  1.00  0.00    -0.258 OA
ENDBRANCH  33  34
ENDBRANCH  32  33
ENDBRANCH  30  32
ENDBRANCH  29  30
ENDBRANCH  27  29
ENDBRANCH  26  27
ENDBRANCH  25  26
ENDBRANCH  23  24
ENDBRANCH  11  23
BRANCH  15  37
HETATM   37  C3  UNL     1      21.567  25.427  21.246  1.00  0.00     0.026 C 
HETATM   38  C4  UNL     1      21.194  26.813  21.729  1.00  0.00     0.016 C 
BRANCH  37  39
HETATM   39  C2  UNL     1      23.047  25.448  21.084  1.00  0.00    -0.031 C 
HETATM   40  C1  UNL     1      23.648  24.992  20.004  1.00  0.00     0.007 C 
ENDBRANCH  37  39
ENDBRANCH  15  37
BRANCH  18  41
HETATM   41  O7  UNL     1      17.746  23.808  20.789  1.00  0.00    -0.394 OA
ATOM     42  H7  UNL     1      17.097  23.154  20.556  1.00  0.00     0.210 HD
ENDBRANCH  18  41
ENDBRANCH   1   4
TORSDOF 14
ENDMDL
MODEL 2
REMARK VINA RESULT: -7.672810444      3.204      9.355
REMARK  14 active torsions:
REMARK  status: ('A' for Active; 'I' for Inactive)
REMARK    1  A    between atoms: C2_2  and  C3_3 
REMARK    2  A    between atoms: C3_3  and  C5_5 
REMARK    3  A    between atoms: C7_10  and  C8_11 
REMARK    4  A    between atoms: C8_11  and  C9_12 
REMARK    5  A    between atoms: C10_13  and  C11_14 
REMARK    6  A    between atoms: C11_14  and  C12_15 
REMARK    7  A    between atoms: C12_15  and  O2_17 
REMARK    8  A    between atoms: O2_17  and  C14_18 
REMARK    9  A    between atoms: C14_18  and  C15_20 
REMARK   10  A    between atoms: C15_20  and  C16_21 
REMARK   11  A    between atoms: C16_21  and  S1_22 
REMARK   12  A    between atoms: C19_28  and  C20_29 
REMARK   13  A    between atoms: C23_32  and  C24_33 
REMARK   14  A    between atoms: C28_38  and  O7_39 
ROOT
HETATM    1  C24 UNL     1      27.986  28.040  20.866  1.00  0.00     0.094 C 
HETATM    2  C25 UNL     1      27.912  29.397  21.423  1.00  0.00     0.087 C 
HETATM    3  N2  UNL     1      27.847  30.466  21.860  1.00  0.00    -0.192 NA
ENDROOT
BRANCH   1   4
HETATM    4  C23 UNL     1      27.025  27.207  20.989  1.00  0.00     0.015 C 
HETATM    5  C22 UNL     1      26.412  26.403  19.963  1.00  0.00    -0.059 C 
HETATM    6  C19 UNL     1      25.988  25.020  20.432  1.00  0.00     0.114 C 
HETATM    7  C26 UNL     1      26.886  26.443  18.568  1.00  0.00     0.040 C 
HETATM    8  C18 UNL     1      25.040  24.454  19.403  1.00  0.00     0.268 C 
HETATM    9  O5  UNL     1      24.141  25.252  18.812  1.00  0.00    -0.306 OA
HETATM   10  O6  UNL     1      25.213  23.199  19.198  1.00  0.00    -0.264 OA
HETATM   11  C7  UNL     1      22.883  25.743  19.192  1.00  0.00     0.227 C 
HETATM   12  C6  UNL     1      22.577  27.057  18.582  1.00  0.00     0.247 C 
HETATM   13  N1  UNL     1      23.447  27.728  17.665  1.00  0.00    -0.353 N 
HETATM   14  O1  UNL     1      21.491  27.630  18.881  1.00  0.00    -0.271 OA
HETATM   15  C5  UNL     1      24.057  27.172  16.490  1.00  0.00     0.098 C 
ATOM     16  H1  UNL     1      23.656  28.706  17.868  1.00  0.00     0.163 HD
HETATM   17  C29 UNL     1      25.529  27.016  16.513  1.00  0.00     0.034 C 
HETATM   18  C28 UNL     1      26.237  27.557  17.725  1.00  0.00     0.131 C 
HETATM   19  C30 UNL     1      26.229  27.432  15.214  1.00  0.00     0.015 C 
HETATM   20  C27 UNL     1      28.339  26.340  18.294  1.00  0.00     0.017 C 
BRANCH   6  21
HETATM   21  C20 UNL     1      27.093  24.086  20.748  1.00  0.00     0.014 C 
HETATM   22  C21 UNL     1      27.148  23.548  22.135  1.00  0.00     0.006 C 
ENDBRANCH   6  21
BRANCH  11  23
HETATM   23  C8  UNL     1      22.597  25.599  20.641  1.00  0.00     0.069 C 
BRANCH  23  24
HETATM   24  C9  UNL     1      21.537  24.601  20.890  1.00  0.00    -0.028 C 
HETATM   25  C10 UNL     1      21.006  23.883  19.864  1.00  0.00    -0.028 C 
BRANCH  25  26
HETATM   26  C11 UNL     1      19.949  22.877  20.045  1.00  0.00     0.059 C 
BRANCH  26  27
HETATM   27  C12 UNL     1      18.765  23.127  19.126  1.00  0.00     0.131 C 
HETATM   28  C13 UNL     1      17.456  22.843  19.836  1.00  0.00     0.040 C 
BRANCH  27  29
HETATM   29  O2  UNL     1      18.802  24.411  18.562  1.00  0.00    -0.316 OA
BRANCH  29  30
HETATM   30  C14 UNL     1      18.239  24.744  17.336  1.00  0.00     0.260 C 
HETATM   31  O3  UNL     1      17.401  25.682  17.333  1.00  0.00    -0.265 OA
BRANCH  30  32
HETATM   32  C15 UNL     1      18.621  24.011  16.082  1.00  0.00     0.123 C 
BRANCH  32  33
HETATM   33  C16 UNL     1      17.355  23.575  15.383  1.00  0.00     0.118 C 
BRANCH  33  34
HETATM   34  S1  UNL     1      16.640  22.163  16.151  1.00  0.00     0.011 S 
HETATM   35  C17 UNL     1      15.374  21.490  15.113  1.00  0.00     0.127 C 
HETATM   36  O4  UNL     1      17.812  20.993  16.425  1.00  0.00    -0.258 OA
ENDBRANCH  33  34
ENDBRANCH  32  33
ENDBRANCH  30  32
ENDBRANCH  29  30
ENDBRANCH  27  29
ENDBRANCH  26  27
ENDBRANCH  25  26
ENDBRANCH  23  24
ENDBRANCH  11  23
BRANCH  15  37
HETATM   37  C3  UNL     1      23.557  28.036  15.338  1.00  0.00     0.026 C 
HETATM   38  C4  UNL     1      23.421  29.480  15.773  1.00  0.00     0.016 C 
BRANCH  37  39
HETATM   39  C2  UNL     1      22.191  27.616  14.919  1.00  0.00    -0.031 C 
HETATM   40  C1  UNL     1      21.444  28.339  14.111  1.00  0.00     0.007 C 
ENDBRANCH  37  39
ENDBRANCH  15  37
BRANCH  18  41
HETATM   41  O7  UNL     1      27.142  28.566  17.412  1.00  0.00    -0.394 OA
ATOM     42  H7  UNL     1      27.436  29.032  18.186  1.00  0.00     0.210 HD
ENDBRANCH  18  41
ENDBRANCH   1   4
TORSDOF 14
ENDMDL
MODEL 3
REMARK VINA RESULT: -7.667462982      1.208      1.825
REMARK  14 active torsions:
REMARK  status: ('A' for Active; 'I' for Inactive)
REMARK    1  A    between atoms: C2_2  and  C3_3 
REMARK    2  A    between atoms: C3_3  and  C5_5 
REMARK    3  A    between atoms: C7_10  and  C8_11 
REMARK    4  A    between atoms: C8_11  and  C9_12 
REMARK    5  A    between atoms: C10_13  and  C11_14 
REMARK    6  A    between atoms: C11_14  and  C12_15 
REMARK    7  A    between atoms: C12_15  and  O2_17 
REMARK    8  A    between atoms: O2_17  and  C14_18 
REMARK    9  A    between atoms: C14_18  and  C15_20 
REMARK   10  A    between atoms: C15_20  and  C16_21 
REMARK   11  A    between atoms: C16_21  and  S1_22 
REMARK   12  A    between atoms: C19_28  and  C20_29 
REMARK   13  A    between atoms: C23_32  and  C24_33 
REMARK   14  A    between atoms: C28_38  and  O7_39 
ROOT
HETATM    1  C24 UNL     1      15.210  24.303  18.256  1.00  0.00     0.094 C 
HETATM    2  C25 UNL     1      14.440  23.080  17.996  1.00  0.00     0.087 C 
HETATM    3  N2  UNL     1      13.834  22.117  17.783  1.00  0.00    -0.192 NA
ENDROOT
BRANCH   1   4
HETATM    4  C23 UNL     1      16.109  24.719  17.450  1.00  0.00     0.015 C 
HETATM    5  C22 UNL     1      17.513  24.393  17.442  1.00  0.00    -0.059 C 
HETATM    6  C19 UNL     1      18.113  24.282  16.050  1.00  0.00     0.114 C 
HETATM    7  C26 UNL     1      18.089  23.452  18.419  1.00  0.00     0.040 C 
HETATM    8  C18 UNL     1      19.615  24.326  16.190  1.00  0.00     0.268 C 
HETATM    9  O5  UNL     1      20.179  25.147  17.086  1.00  0.00    -0.306 OA
HETATM   10  O6  UNL     1      20.218  23.525  15.388  1.00  0.00    -0.264 OA
HETATM   11  C7  UNL     1      20.488  26.515  17.089  1.00  0.00     0.227 C 
HETATM   12  C6  UNL     1      20.460  27.102  18.447  1.00  0.00     0.247 C 
HETATM   13  N1  UNL     1      20.197  26.347  19.633  1.00  0.00    -0.353 N 
HETATM   14  O1  UNL     1      20.676  28.340  18.581  1.00  0.00    -0.271 OA
HETATM   15  C5  UNL     1      20.824  25.118  20.031  1.00  0.00     0.098 C 
ATOM     16  H1  UNL     1      19.487  26.721  20.264  1.00  0.00     0.163 HD
HETATM   17  C29 UNL     1      19.972  23.907  20.044  1.00  0.00     0.034 C 
HETATM   18  C28 UNL     1      18.513  24.117  19.742  1.00  0.00     0.131 C 
HETATM   19  C30 UNL     1      20.175  23.005  21.267  1.00  0.00     0.015 C 
HETATM   20  C27 UNL     1      17.414  22.156  18.662  1.00  0.00     0.017 C 
BRANCH   6  21
HETATM   21  C20 UNL     1      17.660  23.123  15.248  1.00  0.00     0.014 C 
HETATM   22  C21 UNL     1      16.257  23.150  14.751  1.00  0.00     0.006 C 
ENDBRANCH   6  21
BRANCH  11  23
HETATM   23  C8  UNL     1      19.809  27.283  16.016  1.00  0.00     0.069 C 
BRANCH  23  24
HETATM   24  C9  UNL     1      20.772  28.056  15.207  1.00  0.00    -0.028 C 
HETATM   25  C10 UNL     1      22.101  28.027  15.495  1.00  0.00    -0.028 C 
BRANCH  25  26
HETATM   26  C11 UNL     1      23.110  28.773  14.728  1.00  0.00     0.059 C 
BRANCH  26  27
HETATM   27  C12 UNL     1      24.506  28.585  15.298  1.00  0.00     0.131 C 
HETATM   28  C13 UNL     1      25.292  29.881  15.248  1.00  0.00     0.040 C 
BRANCH  27  29
HETATM   29  O2  UNL     1      24.477  28.024  16.583  1.00  0.00    -0.316 OA
BRANCH  29  30
HETATM   30  C14 UNL     1      24.834  26.713  16.873  1.00  0.00     0.260 C 
HETATM   31  O3  UNL     1      25.526  26.110  16.013  1.00  0.00    -0.265 OA
BRANCH  30  32
HETATM   32  C15 UNL     1      24.405  26.058  18.155  1.00  0.00     0.123 C 
BRANCH  32  33
HETATM   33  C16 UNL     1      25.521  25.153  18.621  1.00  0.00     0.118 C 
BRANCH  33  34
HETATM   34  S1  UNL     1      26.600  25.972  19.743  1.00  0.00     0.011 S 
HETATM   35  C17 UNL     1      28.035  26.549  18.883  1.00  0.00     0.127 C 
HETATM   36  O4  UNL     1      25.819  27.275  20.455  1.00  0.00    -0.258 OA
ENDBRANCH  33  34
ENDBRANCH  32  33
ENDBRANCH  30  32
ENDBRANCH  29  30
ENDBRANCH  27  29
ENDBRANCH  26  27
ENDBRANCH  25  26
ENDBRANCH  23  24
ENDBRANCH  11  23
BRANCH  15  37
HETATM   37  C3  UNL     1      21.469  25.420  21.379  1.00  0.00     0.026 C 
HETATM   38  C4  UNL     1      21.264  26.872  21.755  1.00  0.00     0.016 C 
BRANCH  37  39
HETATM   39  C2  UNL     1      22.944  25.230  21.312  1.00  0.00    -0.031 C 
HETATM   40  C1  UNL     1      23.683  25.031  22.384  1.00  0.00     0.007 C 
ENDBRANCH  37  39
ENDBRANCH  15  37
BRANCH  18  41
HETATM   41  O7  UNL     1      17.689  23.745  20.799  1.00  0.00    -0.394 OA
ATOM     42  H7  UNL     1      18.165  23.692  21.619  1.00  0.00     0.210 HD
ENDBRANCH  18  41
ENDBRANCH   1   4
TORSDOF 14
ENDMDL
MODEL 4
REMARK VINA RESULT: -7.582520589      3.560      8.152
REMARK  14 active torsions:
REMARK  status: ('A' for Active; 'I' for Inactive)
REMARK    1  A    between atoms: C2_2  and  C3_3 
REMARK    2  A    between atoms: C3_3  and  C5_5 
REMARK    3  A    between atoms: C7_10  and  C8_11 
REMARK    4  A    between atoms: C8_11  and  C9_12 
REMARK    5  A    between atoms: C10_13  and  C11_14 
REMARK    6  A    between atoms: C11_14  and  C12_15 
REMARK    7  A    between atoms: C12_15  and  O2_17 
REMARK    8  A    between atoms: O2_17  and  C14_18 
REMARK    9  A    between atoms: C14_18  and  C15_20 
REMARK   10  A    between atoms: C15_20  and  C16_21 
REMARK   11  A    between atoms: C16_21  and  S1_22 
REMARK   12  A    between atoms: C19_28  and  C20_29 
REMARK   13  A    between atoms: C23_32  and  C24_33 
REMARK   14  A    between atoms: C28_38  and  O7_39 
ROOT
HETATM    1  C24 UNL     1      22.201  27.267  22.994  1.00  0.00     0.094 C 
HETATM    2  C25 UNL     1      21.571  27.642  24.266  1.00  0.00     0.087 C 
HETATM    3  N2  UNL     1      21.068  27.942  25.265  1.00  0.00    -0.192 NA
ENDROOT
BRANCH   1   4
HETATM    4  C23 UNL     1      21.512  27.002  21.952  1.00  0.00     0.015 C 
HETATM    5  C22 UNL     1      21.878  26.168  20.836  1.00  0.00    -0.059 C 
HETATM    6  C19 UNL     1      20.721  25.374  20.252  1.00  0.00     0.114 C 
HETATM    7  C26 UNL     1      23.171  25.461  20.795  1.00  0.00     0.040 C 
HETATM    8  C18 UNL     1      21.146  24.867  18.895  1.00  0.00     0.268 C 
HETATM    9  O5  UNL     1      21.880  25.648  18.090  1.00  0.00    -0.306 OA
HETATM   10  O6  UNL     1      20.733  23.677  18.651  1.00  0.00    -0.264 OA
HETATM   11  C7  UNL     1      21.571  26.700  17.215  1.00  0.00     0.227 C 
HETATM   12  C6  UNL     1      22.682  27.667  17.075  1.00  0.00     0.247 C 
HETATM   13  N1  UNL     1      23.951  27.519  17.720  1.00  0.00    -0.353 N 
HETATM   14  O1  UNL     1      22.515  28.688  16.348  1.00  0.00    -0.271 OA
HETATM   15  C5  UNL     1      24.788  26.351  17.721  1.00  0.00     0.098 C 
ATOM     16  H1  UNL     1      24.298  28.328  18.235  1.00  0.00     0.163 HD
HETATM   17  C29 UNL     1      24.957  25.653  19.016  1.00  0.00     0.034 C 
HETATM   18  C28 UNL     1      24.320  26.306  20.212  1.00  0.00     0.131 C 
HETATM   19  C30 UNL     1      26.394  25.208  19.310  1.00  0.00     0.015 C 
HETATM   20  C27 UNL     1      23.616  24.697  21.984  1.00  0.00     0.017 C 
BRANCH   6  21
HETATM   21  C20 UNL     1      20.191  24.291  21.112  1.00  0.00     0.014 C 
HETATM   22  C21 UNL     1      18.711  24.178  21.223  1.00  0.00     0.006 C 
ENDBRANCH   6  21
BRANCH  11  23
HETATM   23  C8  UNL     1      20.215  27.268  17.417  1.00  0.00     0.069 C 
BRANCH  23  24
HETATM   24  C9  UNL     1      19.268  26.794  16.387  1.00  0.00    -0.028 C 
HETATM   25  C10 UNL     1      18.416  25.768  16.649  1.00  0.00    -0.028 C 
BRANCH  25  26
HETATM   26  C11 UNL     1      17.450  25.250  15.668  1.00  0.00     0.059 C 
BRANCH  26  27
HETATM   27  C12 UNL     1      16.952  23.864  16.041  1.00  0.00     0.131 C 
HETATM   28  C13 UNL     1      16.319  23.175  14.848  1.00  0.00     0.040 C 
BRANCH  27  29
HETATM   29  O2  UNL     1      17.956  23.089  16.639  1.00  0.00    -0.316 OA
BRANCH  29  30
HETATM   30  C14 UNL     1      17.736  21.867  17.262  1.00  0.00     0.260 C 
HETATM   31  O3  UNL     1      18.068  20.836  16.623  1.00  0.00    -0.265 OA
BRANCH  30  32
HETATM   32  C15 UNL     1      17.128  21.794  18.634  1.00  0.00     0.123 C 
BRANCH  32  33
HETATM   33  C16 UNL     1      15.994  20.798  18.598  1.00  0.00     0.118 C 
BRANCH  33  34
HETATM   34  S1  UNL     1      14.570  21.458  17.804  1.00  0.00     0.011 S 
HETATM   35  C17 UNL     1      13.148  20.489  18.217  1.00  0.00     0.127 C 
HETATM   36  O4  UNL     1      14.318  23.045  18.286  1.00  0.00    -0.258 OA
ENDBRANCH  33  34
ENDBRANCH  32  33
ENDBRANCH  30  32
ENDBRANCH  29  30
ENDBRANCH  27  29
ENDBRANCH  26  27
ENDBRANCH  25  26
ENDBRANCH  23  24
ENDBRANCH  11  23
BRANCH  15  37
HETATM   37  C3  UNL     1      26.103  26.806  17.101  1.00  0.00     0.026 C 
HETATM   38  C4  UNL     1      26.456  28.206  17.562  1.00  0.00     0.016 C 
BRANCH  37  39
HETATM   39  C2  UNL     1      25.986  26.893  15.619  1.00  0.00    -0.031 C 
HETATM   40  C1  UNL     1      26.318  27.972  14.943  1.00  0.00     0.007 C 
ENDBRANCH  37  39
ENDBRANCH  15  37
BRANCH  18  41
HETATM   41  O7  UNL     1      25.248  26.663  21.185  1.00  0.00    -0.394 OA
ATOM     42  H7  UNL     1      25.236  27.597  21.360  1.00  0.00     0.210 HD
ENDBRANCH  18  41
ENDBRANCH   1   4
TORSDOF 14
ENDMDL
MODEL 5
REMARK VINA RESULT: -7.472243012      3.427      7.945
REMARK  14 active torsions:
REMARK  status: ('A' for Active; 'I' for Inactive)
REMARK    1  A    between atoms: C2_2  and  C3_3 
REMARK    2  A    between atoms: C3_3  and  C5_5 
REMARK    3  A    between atoms: C7_10  and  C8_11 
REMARK    4  A    between atoms: C8_11  and  C9_12 
REMARK    5  A    between atoms: C10_13  and  C11_14 
REMARK    6  A    between atoms: C11_14  and  C12_15 
REMARK    7  A    between atoms: C12_15  and  O2_17 
REMARK    8  A    between atoms: O2_17  and  C14_18 
REMARK    9  A    between atoms: C14_18  and  C15_20 
REMARK   10  A    between atoms: C15_20  and  C16_21 
REMARK   11  A    between atoms: C16_21  and  S1_22 
REMARK   12  A    between atoms: C19_28  and  C20_29 
REMARK   13  A    between atoms: C23_32  and  C24_33 
REMARK   14  A    between atoms: C28_38  and  O7_39 
ROOT
HETATM    1  C24 UNL     1      22.282  27.326  23.072  1.00  0.00     0.094 C 
HETATM    2  C25 UNL     1      21.603  27.644  24.334  1.00  0.00     0.087 C 
HETATM    3  N2  UNL     1      21.062  27.899  25.325  1.00  0.00    -0.192 NA
ENDROOT
BRANCH   1   4
HETATM    4  C23 UNL     1      21.636  27.152  21.983  1.00  0.00     0.015 C 
HETATM    5  C22 UNL     1      21.955  26.263  20.896  1.00  0.00    -0.059 C 
HETATM    6  C19 UNL     1      20.738  25.638  20.232  1.00  0.00     0.114 C 
HETATM    7  C26 UNL     1      23.131  25.375  20.947  1.00  0.00     0.040 C 
HETATM    8  C18 UNL     1      21.179  25.061  18.909  1.00  0.00     0.268 C 
HETATM    9  O5  UNL     1      22.073  25.718  18.158  1.00  0.00    -0.306 OA
HETATM   10  O6  UNL     1      20.615  23.940  18.636  1.00  0.00    -0.264 OA
HETATM   11  C7  UNL     1      21.983  26.795  17.263  1.00  0.00     0.227 C 
HETATM   12  C6  UNL     1      23.230  27.589  17.201  1.00  0.00     0.247 C 
HETATM   13  N1  UNL     1      24.415  27.265  17.935  1.00  0.00    -0.353 N 
HETATM   14  O1  UNL     1      23.264  28.615  16.464  1.00  0.00    -0.271 OA
HETATM   15  C5  UNL     1      25.071  25.989  17.996  1.00  0.00     0.098 C 
ATOM     16  H1  UNL     1      24.839  28.021  18.473  1.00  0.00     0.163 HD
HETATM   17  C29 UNL     1      25.046  25.287  19.299  1.00  0.00     0.034 C 
HETATM   18  C28 UNL     1      24.428  26.038  20.447  1.00  0.00     0.131 C 
HETATM   19  C30 UNL     1      26.379  24.641  19.694  1.00  0.00     0.015 C 
HETATM   20  C27 UNL     1      23.375  24.567  22.165  1.00  0.00     0.017 C 
BRANCH   6  21
HETATM   21  C20 UNL     1      19.997  24.653  21.052  1.00  0.00     0.014 C 
HETATM   22  C21 UNL     1      18.514  24.652  20.933  1.00  0.00     0.006 C 
ENDBRANCH   6  21
BRANCH  11  23
HETATM   23  C8  UNL     1      20.713  27.555  17.368  1.00  0.00     0.069 C 
BRANCH  23  24
HETATM   24  C9  UNL     1      19.826  27.294  16.216  1.00  0.00    -0.028 C 
HETATM   25  C10 UNL     1      19.049  26.179  16.178  1.00  0.00    -0.028 C 
BRANCH  25  26
HETATM   26  C11 UNL     1      18.146  25.862  15.062  1.00  0.00     0.059 C 
BRANCH  26  27
HETATM   27  C12 UNL     1      17.597  24.449  15.162  1.00  0.00     0.131 C 
HETATM   28  C13 UNL     1      18.584  23.529  15.853  1.00  0.00     0.040 C 
BRANCH  27  29
HETATM   29  O2  UNL     1      16.327  24.420  15.758  1.00  0.00    -0.316 OA
BRANCH  29  30
HETATM   30  C14 UNL     1      15.561  23.272  15.913  1.00  0.00     0.260 C 
HETATM   31  O3  UNL     1      15.433  22.534  14.902  1.00  0.00    -0.265 OA
BRANCH  30  32
HETATM   32  C15 UNL     1      14.920  22.939  17.230  1.00  0.00     0.123 C 
BRANCH  32  33
HETATM   33  C16 UNL     1      16.006  22.528  18.196  1.00  0.00     0.118 C 
BRANCH  33  34
HETATM   34  S1  UNL     1      16.326  20.800  18.119  1.00  0.00     0.011 S 
HETATM   35  C17 UNL     1      14.838  19.930  17.719  1.00  0.00     0.127 C 
HETATM   36  O4  UNL     1      17.488  20.475  16.953  1.00  0.00    -0.258 OA
ENDBRANCH  33  34
ENDBRANCH  32  33
ENDBRANCH  30  32
ENDBRANCH  29  30
ENDBRANCH  27  29
ENDBRANCH  26  27
ENDBRANCH  25  26
ENDBRANCH  23  24
ENDBRANCH  11  23
BRANCH  15  37
HETATM   37  C3  UNL     1      26.479  26.242  17.470  1.00  0.00     0.026 C 
HETATM   38  C4  UNL     1      26.943  27.636  17.836  1.00  0.00     0.016 C 
BRANCH  37  39
HETATM   39  C2  UNL     1      26.503  26.191  15.982  1.00  0.00    -0.031 C 
HETATM   40  C1  UNL     1      26.861  27.220  15.243  1.00  0.00     0.007 C 
ENDBRANCH  37  39
ENDBRANCH  15  37
BRANCH  18  41
HETATM   41  O7  UNL     1      25.327  26.267  21.483  1.00  0.00    -0.394 OA
ATOM     42  H7  UNL     1      25.906  26.997  21.296  1.00  0.00     0.210 HD
ENDBRANCH  18  41
ENDBRANCH   1   4
TORSDOF 14
ENDMDL
