MODEL 1
REMARK VINA RESULT: -9.980751193      0.000      0.000
REMARK  12 active torsions:
REMARK  status: ('A' for Active; 'I' for Inactive)
REMARK       I    between atoms: N2_7  and  C5_8 
REMARK    1  A    between atoms: C5_8  and  C6_10 
REMARK    2  A    between atoms: C10_16  and  N4_17 
REMARK    3  A    between atoms: N5_21  and  C14_22 
REMARK    4  A    between atoms: C14_22  and  C15_23 
REMARK    5  A    between atoms: C15_23  and  C16_24 
REMARK    6  A    between atoms: C16_24  and  C17_25 
REMARK    7  A    between atoms: C17_25  and  C18_26 
REMARK    8  A    between atoms: C18_26  and  C19_27 
REMARK    9  A    between atoms: C19_27  and  C20_28 
REMARK   10  A    between atoms: C20_28  and  C21_29 
REMARK   11  A    between atoms: C21_29  and  N6_30 
REMARK   12  A    between atoms: N6_30  and  C23_32 
ROOT
HETATM    1  N4  UNL     1      18.577  24.310  17.784  1.00  0.00    -0.368 N 
HETATM    2  C11 UNL     1      17.413  25.180  17.545  1.00  0.00     0.205 C 
HETATM    3  C12 UNL     1      17.509  25.745  16.232  1.00  0.00    -0.134 C 
HETATM    4  C13 UNL     1      17.920  26.081  14.931  1.00  0.00     0.353 C 
HETATM    5  N5  UNL     1      19.214  25.414  14.605  1.00  0.00     0.100 N 
HETATM    6  C26 UNL     1      19.508  24.275  15.435  1.00  0.00     0.293 C 
HETATM    7  C27 UNL     1      19.751  24.365  16.867  1.00  0.00     0.154 C 
ENDROOT
BRANCH   1   8
HETATM    8  C10 UNL     1      18.662  23.428  18.841  1.00  0.00     0.049 A 
HETATM    9  C6  UNL     1      18.175  22.163  18.850  1.00  0.00     0.074 A 
HETATM   10  C7  UNL     1      18.331  21.322  19.979  1.00  0.00     0.106 A 
HETATM   11  N3  UNL     1      18.973  21.800  21.050  1.00  0.00    -0.374 N 
HETATM   12  C8  UNL     1      19.479  23.040  21.111  1.00  0.00     0.090 A 
ATOM     13  H3  UNL     1      19.082  21.191  21.861  1.00  0.00     0.164 HD
HETATM   14  C9  UNL     1      19.324  23.844  20.016  1.00  0.00     0.047 A 
BRANCH   9  15
HETATM   15  C5  UNL     1      17.452  21.630  17.702  1.00  0.00     0.257 C 
HETATM   16  N2  UNL     1      16.049  21.711  17.539  1.00  0.00    -0.348 N 
HETATM   17  C4  UNL     1      15.464  21.153  16.339  1.00  0.00     0.131 C 
HETATM   18  C28 UNL     1      15.180  22.292  18.521  1.00  0.00     0.131 C 
HETATM   19  C3  UNL     1      14.014  20.829  16.507  1.00  0.00     0.083 C 
HETATM   20  C2  UNL     1      13.686  20.349  17.907  1.00  0.00     0.168 C 
HETATM   21  O1  UNL     1      12.323  20.134  17.953  1.00  0.00    -0.241 OA
HETATM   22  C29 UNL     1      14.016  21.439  18.887  1.00  0.00     0.083 C 
HETATM   23  N9  UNL     1      14.320  19.103  18.218  1.00  0.00    -0.307 N 
HETATM   24  N1  UNL     1      12.088  18.853  18.265  1.00  0.00    -0.209 N 
HETATM   25  C1  UNL     1      10.811  18.249  18.597  1.00  0.00     0.191 C 
HETATM   26  C30 UNL     1      13.307  18.108  18.230  1.00  0.00     0.344 C 
HETATM   27  O3  UNL     1      13.472  16.865  18.212  1.00  0.00    -0.245 OA
ATOM     28  H9  UNL     1      15.314  18.957  18.397  1.00  0.00     0.167 HD
HETATM   29  O2  UNL     1      18.162  21.063  16.824  1.00  0.00    -0.267 OA
ENDBRANCH   9  15
ENDBRANCH   1   8
BRANCH   5  30
HETATM   30  C14 UNL     1      20.290  26.350  14.571  1.00  0.00     0.273 C 
BRANCH  30  31
HETATM   31  C15 UNL     1      19.860  27.789  14.554  1.00  0.00     0.030 C 
BRANCH  31  32
HETATM   32  C16 UNL     1      20.821  28.646  13.752  1.00  0.00     0.002 C 
BRANCH  32  33
HETATM   33  C17 UNL     1      22.230  28.435  14.175  1.00  0.00     0.000 C 
BRANCH  33  34
HETATM   34  C18 UNL     1      22.666  29.144  15.408  1.00  0.00     0.000 C 
BRANCH  34  35
HETATM   35  C19 UNL     1      23.864  28.509  16.045  1.00  0.00     0.002 C 
BRANCH  35  36
HETATM   36  C20 UNL     1      23.599  27.082  16.456  1.00  0.00     0.020 C 
BRANCH  36  37
HETATM   37  C21 UNL     1      22.459  26.913  17.409  1.00  0.00     0.124 C 
BRANCH  37  38
HETATM   38  N6  UNL     1      22.940  26.808  18.760  1.00  0.00    -0.371 N 
HETATM   39  C22 UNL     1      24.237  26.251  19.029  1.00  0.00     0.151 C 
BRANCH  38  40
HETATM   40  C23 UNL     1      22.127  27.254  19.828  1.00  0.00     0.118 A 
HETATM   41  C24 UNL     1      22.236  26.933  21.168  1.00  0.00     0.068 A 
HETATM   42  C25 UNL     1      21.242  27.593  21.831  1.00  0.00     0.111 A 
HETATM   43  N7  UNL     1      20.541  28.303  20.915  1.00  0.00    -0.310 N 
HETATM   44  N8  UNL     1      21.071  28.095  19.738  1.00  0.00    -0.286 N 
ATOM     45  H7  UNL     1      19.736  28.898  21.110  1.00  0.00     0.186 HD
ATOM     46  H8  UNL     1      20.734  28.511  18.869  1.00  0.00     0.188 HD
ENDBRANCH  38  40
ENDBRANCH  37  38
ENDBRANCH  36  37
ENDBRANCH  35  36
ENDBRANCH  34  35
ENDBRANCH  33  34
ENDBRANCH  32  33
ENDBRANCH  31  32
ENDBRANCH  30  31
ENDBRANCH   5  30
TORSDOF 12
ENDMDL
MODEL 2
REMARK VINA RESULT: -9.730621171      0.758      1.006
REMARK  12 active torsions:
REMARK  status: ('A' for Active; 'I' for Inactive)
REMARK       I    between atoms: N2_7  and  C5_8 
REMARK    1  A    between atoms: C5_8  and  C6_10 
REMARK    2  A    between atoms: C10_16  and  N4_17 
REMARK    3  A    between atoms: N5_21  and  C14_22 
REMARK    4  A    between atoms: C14_22  and  C15_23 
REMARK    5  A    between atoms: C15_23  and  C16_24 
REMARK    6  A    between atoms: C16_24  and  C17_25 
REMARK    7  A    between atoms: C17_25  and  C18_26 
REMARK    8  A    between atoms: C18_26  and  C19_27 
REMARK    9  A    between atoms: C19_27  and  C20_28 
REMARK   10  A    between atoms: C20_28  and  C21_29 
REMARK   11  A    between atoms: C21_29  and  N6_30 
REMARK   12  A    between atoms: N6_30  and  C23_32 
ROOT
HETATM    1  N4  UNL     1      18.645  24.839  17.544  1.00  0.00    -0.368 N 
HETATM    2  C11 UNL     1      17.331  25.115  16.939  1.00  0.00     0.205 C 
HETATM    3  C12 UNL     1      17.520  25.791  15.690  1.00  0.00    -0.134 C 
HETATM    4  C13 UNL     1      18.076  26.404  14.555  1.00  0.00     0.353 C 
HETATM    5  N5  UNL     1      19.565  26.423  14.651  1.00  0.00     0.100 N 
HETATM    6  C26 UNL     1      20.102  25.460  15.576  1.00  0.00     0.293 C 
HETATM    7  C27 UNL     1      19.867  25.505  17.011  1.00  0.00     0.154 C 
ENDROOT
BRANCH   1   8
HETATM    8  C10 UNL     1      18.825  23.987  18.614  1.00  0.00     0.049 A 
HETATM    9  C6  UNL     1      18.421  22.694  18.665  1.00  0.00     0.074 A 
HETATM   10  C7  UNL     1      18.672  21.888  19.803  1.00  0.00     0.106 A 
HETATM   11  N3  UNL     1      19.320  22.430  20.840  1.00  0.00    -0.374 N 
HETATM   12  C8  UNL     1      19.747  23.701  20.859  1.00  0.00     0.090 A 
ATOM     13  H3  UNL     1      19.499  21.847  21.658  1.00  0.00     0.164 HD
HETATM   14  C9  UNL     1      19.500  24.470  19.755  1.00  0.00     0.047 A 
BRANCH   9  15
HETATM   15  C5  UNL     1      17.694  22.091  17.556  1.00  0.00     0.257 C 
HETATM   16  N2  UNL     1      16.283  22.004  17.484  1.00  0.00    -0.348 N 
HETATM   17  C4  UNL     1      15.691  21.394  16.313  1.00  0.00     0.131 C 
HETATM   18  C28 UNL     1      15.417  22.466  18.531  1.00  0.00     0.131 C 
HETATM   19  C3  UNL     1      14.304  20.897  16.568  1.00  0.00     0.083 C 
HETATM   20  C2  UNL     1      14.129  20.365  17.976  1.00  0.00     0.168 C 
HETATM   21  O1  UNL     1      12.806  19.987  18.105  1.00  0.00    -0.241 OA
HETATM   22  C29 UNL     1      14.390  21.475  18.954  1.00  0.00     0.083 C 
HETATM   23  N9  UNL     1      14.926  19.200  18.222  1.00  0.00    -0.307 N 
HETATM   24  N1  UNL     1      12.747  18.683  18.406  1.00  0.00    -0.209 N 
HETATM   25  C1  UNL     1      11.576  17.927  18.807  1.00  0.00     0.191 C 
HETATM   26  C30 UNL     1      14.041  18.091  18.279  1.00  0.00     0.344 C 
HETATM   27  O3  UNL     1      14.351  16.877  18.227  1.00  0.00    -0.245 OA
ATOM     28  H9  UNL     1      15.939  19.173  18.335  1.00  0.00     0.167 HD
HETATM   29  O2  UNL     1      18.407  21.623  16.623  1.00  0.00    -0.267 OA
ENDBRANCH   9  15
ENDBRANCH   1   8
BRANCH   5  30
HETATM   30  C14 UNL     1      20.055  27.741  14.897  1.00  0.00     0.273 C 
BRANCH  30  31
HETATM   31  C15 UNL     1      20.852  28.328  13.767  1.00  0.00     0.030 C 
BRANCH  31  32
HETATM   32  C16 UNL     1      22.262  28.676  14.207  1.00  0.00     0.002 C 
BRANCH  32  33
HETATM   33  C17 UNL     1      22.387  28.701  15.687  1.00  0.00     0.000 C 
BRANCH  33  34
HETATM   34  C18 UNL     1      23.702  28.292  16.250  1.00  0.00     0.000 C 
BRANCH  34  35
HETATM   35  C19 UNL     1      23.941  26.817  16.145  1.00  0.00     0.002 C 
BRANCH  35  36
HETATM   36  C20 UNL     1      24.833  26.306  17.249  1.00  0.00     0.020 C 
BRANCH  36  37
HETATM   37  C21 UNL     1      24.685  27.027  18.550  1.00  0.00     0.124 C 
BRANCH  37  38
HETATM   38  N6  UNL     1      23.815  26.300  19.435  1.00  0.00    -0.371 N 
HETATM   39  C22 UNL     1      24.119  24.945  19.802  1.00  0.00     0.151 C 
BRANCH  38  40
HETATM   40  C23 UNL     1      22.654  26.928  19.945  1.00  0.00     0.118 A 
HETATM   41  C24 UNL     1      22.203  26.943  21.250  1.00  0.00     0.068 A 
HETATM   42  C25 UNL     1      21.046  27.668  21.278  1.00  0.00     0.111 A 
HETATM   43  N7  UNL     1      20.798  28.088  20.014  1.00  0.00    -0.310 N 
HETATM   44  N8  UNL     1      21.752  27.645  19.237  1.00  0.00    -0.286 N 
ATOM     45  H7  UNL     1      20.002  28.653  19.719  1.00  0.00     0.186 HD
ATOM     46  H8  UNL     1      21.808  27.817  18.233  1.00  0.00     0.188 HD
ENDBRANCH  38  40
ENDBRANCH  37  38
ENDBRANCH  36  37
ENDBRANCH  35  36
ENDBRANCH  34  35
ENDBRANCH  33  34
ENDBRANCH  32  33
ENDBRANCH  31  32
ENDBRANCH  30  31
ENDBRANCH   5  30
TORSDOF 12
ENDMDL
MODEL 3
REMARK VINA RESULT: -9.687330775      0.801      1.004
REMARK  12 active torsions:
REMARK  status: ('A' for Active; 'I' for Inactive)
REMARK       I    between atoms: N2_7  and  C5_8 
REMARK    1  A    between atoms: C5_8  and  C6_10 
REMARK    2  A    between atoms: C10_16  and  N4_17 
REMARK    3  A    between atoms: N5_21  and  C14_22 
REMARK    4  A    between atoms: C14_22  and  C15_23 
REMARK    5  A    between atoms: C15_23  and  C16_24 
REMARK    6  A    between atoms: C16_24  and  C17_25 
REMARK    7  A    between atoms: C17_25  and  C18_26 
REMARK    8  A    between atoms: C18_26  and  C19_27 
REMARK    9  A    between atoms: C19_27  and  C20_28 
REMARK   10  A    between atoms: C20_28  and  C21_29 
REMARK   11  A    between atoms: C21_29  and  N6_30 
REMARK   12  A    between atoms: N6_30  and  C23_32 
ROOT
HETATM    1  N4  UNL     1      18.728  24.332  17.792  1.00  0.00    -0.368 N 
HETATM    2  C11 UNL     1      17.581  25.212  17.508  1.00  0.00     0.205 C 
HETATM    3  C12 UNL     1      17.734  25.776  16.200  1.00  0.00    -0.134 C 
HETATM    4  C13 UNL     1      18.200  26.109  14.916  1.00  0.00     0.353 C 
HETATM    5  N5  UNL     1      19.500  25.431  14.642  1.00  0.00     0.100 N 
HETATM    6  C26 UNL     1      19.751  24.290  15.483  1.00  0.00     0.293 C 
HETATM    7  C27 UNL     1      19.937  24.377  16.923  1.00  0.00     0.154 C 
ENDROOT
BRANCH   1   8
HETATM    8  C10 UNL     1      18.762  23.449  18.851  1.00  0.00     0.049 A 
HETATM    9  C6  UNL     1      18.219  22.207  18.858  1.00  0.00     0.074 A 
HETATM   10  C7  UNL     1      18.327  21.362  19.989  1.00  0.00     0.106 A 
HETATM   11  N3  UNL     1      18.978  21.813  21.066  1.00  0.00    -0.374 N 
HETATM   12  C8  UNL     1      19.539  23.030  21.131  1.00  0.00     0.090 A 
ATOM     13  H3  UNL     1      19.053  21.202  21.879  1.00  0.00     0.164 HD
HETATM   14  C9  UNL     1      19.430  23.838  20.033  1.00  0.00     0.047 A 
BRANCH   9  15
HETATM   15  C5  UNL     1      17.485  21.704  17.704  1.00  0.00     0.257 C 
HETATM   16  N2  UNL     1      16.080  21.786  17.558  1.00  0.00    -0.348 N 
HETATM   17  C4  UNL     1      15.483  21.261  16.350  1.00  0.00     0.131 C 
HETATM   18  C28 UNL     1      15.221  22.338  18.566  1.00  0.00     0.131 C 
HETATM   19  C3  UNL     1      14.035  20.929  16.525  1.00  0.00     0.083 C 
HETATM   20  C2  UNL     1      13.724  20.409  17.915  1.00  0.00     0.168 C 
HETATM   21  O1  UNL     1      12.362  20.189  17.970  1.00  0.00    -0.241 OA
HETATM   22  C29 UNL     1      14.062  21.472  18.921  1.00  0.00     0.083 C 
HETATM   23  N9  UNL     1      14.364  19.156  18.184  1.00  0.00    -0.307 N 
HETATM   24  N1  UNL     1      12.133  18.899  18.249  1.00  0.00    -0.209 N 
HETATM   25  C1  UNL     1      10.861  18.284  18.577  1.00  0.00     0.191 C 
HETATM   26  C30 UNL     1      13.354  18.159  18.179  1.00  0.00     0.344 C 
HETATM   27  O3  UNL     1      13.521  16.918  18.125  1.00  0.00    -0.245 OA
ATOM     28  H9  UNL     1      15.361  19.008  18.348  1.00  0.00     0.167 HD
HETATM   29  O2  UNL     1      18.186  21.164  16.802  1.00  0.00    -0.267 OA
ENDBRANCH   9  15
ENDBRANCH   1   8
BRANCH   5  30
HETATM   30  C14 UNL     1      20.584  26.358  14.652  1.00  0.00     0.273 C 
BRANCH  30  31
HETATM   31  C15 UNL     1      20.222  27.741  14.193  1.00  0.00     0.030 C 
BRANCH  31  32
HETATM   32  C16 UNL     1      21.457  28.551  13.844  1.00  0.00     0.002 C 
BRANCH  32  33
HETATM   33  C17 UNL     1      22.193  28.982  15.061  1.00  0.00     0.000 C 
BRANCH  33  34
HETATM   34  C18 UNL     1      23.663  28.755  15.063  1.00  0.00     0.000 C 
BRANCH  34  35
HETATM   35  C19 UNL     1      24.060  27.553  15.864  1.00  0.00     0.002 C 
BRANCH  35  36
HETATM   36  C20 UNL     1      23.842  27.758  17.343  1.00  0.00     0.020 C 
BRANCH  36  37
HETATM   37  C21 UNL     1      23.158  26.622  18.032  1.00  0.00     0.124 C 
BRANCH  37  38
HETATM   38  N6  UNL     1      22.068  27.101  18.838  1.00  0.00    -0.371 N 
HETATM   39  C22 UNL     1      20.875  27.610  18.220  1.00  0.00     0.151 C 
BRANCH  38  40
HETATM   40  C23 UNL     1      22.175  27.070  20.248  1.00  0.00     0.118 A 
HETATM   41  C24 UNL     1      21.228  27.451  21.179  1.00  0.00     0.068 A 
HETATM   42  C25 UNL     1      21.764  27.248  22.419  1.00  0.00     0.111 A 
HETATM   43  N7  UNL     1      23.012  26.752  22.247  1.00  0.00    -0.310 N 
HETATM   44  N8  UNL     1      23.244  26.651  20.964  1.00  0.00    -0.286 N 
ATOM     45  H7  UNL     1      23.661  26.499  22.992  1.00  0.00     0.186 HD
ATOM     46  H8  UNL     1      24.113  26.304  20.558  1.00  0.00     0.188 HD
ENDBRANCH  38  40
ENDBRANCH  37  38
ENDBRANCH  36  37
ENDBRANCH  35  36
ENDBRANCH  34  35
ENDBRANCH  33  34
ENDBRANCH  32  33
ENDBRANCH  31  32
ENDBRANCH  30  31
ENDBRANCH   5  30
TORSDOF 12
ENDMDL
MODEL 4
REMARK VINA RESULT: -9.480663520      1.254      1.559
REMARK  12 active torsions:
REMARK  status: ('A' for Active; 'I' for Inactive)
REMARK       I    between atoms: N2_7  and  C5_8 
REMARK    1  A    between atoms: C5_8  and  C6_10 
REMARK    2  A    between atoms: C10_16  and  N4_17 
REMARK    3  A    between atoms: N5_21  and  C14_22 
REMARK    4  A    between atoms: C14_22  and  C15_23 
REMARK    5  A    between atoms: C15_23  and  C16_24 
REMARK    6  A    between atoms: C16_24  and  C17_25 
REMARK    7  A    between atoms: C17_25  and  C18_26 
REMARK    8  A    between atoms: C18_26  and  C19_27 
REMARK    9  A    between atoms: C19_27  and  C20_28 
REMARK   10  A    between atoms: C20_28  and  C21_29 
REMARK   11  A    between atoms: C21_29  and  N6_30 
REMARK   12  A    between atoms: N6_30  and  C23_32 
ROOT
HETATM    1  N4  UNL     1      18.619  24.281  17.850  1.00  0.00    -0.368 N 
HETATM    2  C11 UNL     1      17.471  25.170  17.605  1.00  0.00     0.205 C 
HETATM    3  C12 UNL     1      17.593  25.748  16.300  1.00  0.00    -0.134 C 
HETATM    4  C13 UNL     1      18.027  26.093  15.008  1.00  0.00     0.353 C 
HETATM    5  N5  UNL     1      19.315  25.410  14.692  1.00  0.00     0.100 N 
HETATM    6  C26 UNL     1      19.581  24.258  15.514  1.00  0.00     0.293 C 
HETATM    7  C27 UNL     1      19.806  24.328  16.949  1.00  0.00     0.154 C 
ENDROOT
BRANCH   1   8
HETATM    8  C10 UNL     1      18.676  23.385  18.897  1.00  0.00     0.049 A 
HETATM    9  C6  UNL     1      18.165  22.131  18.888  1.00  0.00     0.074 A 
HETATM   10  C7  UNL     1      18.294  21.273  20.009  1.00  0.00     0.106 A 
HETATM   11  N3  UNL     1      18.934  21.728  21.092  1.00  0.00    -0.374 N 
HETATM   12  C8  UNL     1      19.463  22.957  21.172  1.00  0.00     0.090 A 
ATOM     13  H3  UNL     1      19.024  21.108  21.897  1.00  0.00     0.164 HD
HETATM   14  C9  UNL     1      19.334  23.776  20.084  1.00  0.00     0.047 A 
BRANCH   9  15
HETATM   15  C5  UNL     1      17.444  21.624  17.727  1.00  0.00     0.257 C 
HETATM   16  N2  UNL     1      16.043  21.723  17.556  1.00  0.00    -0.348 N 
HETATM   17  C4  UNL     1      15.460  21.191  16.344  1.00  0.00     0.131 C 
HETATM   18  C28 UNL     1      15.174  22.300  18.542  1.00  0.00     0.131 C 
HETATM   19  C3  UNL     1      14.005  20.882  16.498  1.00  0.00     0.083 C 
HETATM   20  C2  UNL     1      13.662  20.384  17.888  1.00  0.00     0.168 C 
HETATM   21  O1  UNL     1      12.296  20.184  17.922  1.00  0.00    -0.241 OA
HETATM   22  C29 UNL     1      13.998  21.454  18.887  1.00  0.00     0.083 C 
HETATM   23  N9  UNL     1      14.280  19.126  18.184  1.00  0.00    -0.307 N 
HETATM   24  N1  UNL     1      12.044  18.901  18.212  1.00  0.00    -0.209 N 
HETATM   25  C1  UNL     1      10.758  18.308  18.526  1.00  0.00     0.191 C 
HETATM   26  C30 UNL     1      13.255  18.143  18.173  1.00  0.00     0.344 C 
HETATM   27  O3  UNL     1      13.405  16.899  18.138  1.00  0.00    -0.245 OA
ATOM     28  H9  UNL     1      15.270  18.966  18.367  1.00  0.00     0.167 HD
HETATM   29  O2  UNL     1      18.153  21.062  16.845  1.00  0.00    -0.267 OA
ENDBRANCH   9  15
ENDBRANCH   1   8
BRANCH   5  30
HETATM   30  C14 UNL     1      20.405  26.331  14.684  1.00  0.00     0.273 C 
BRANCH  30  31
HETATM   31  C15 UNL     1      20.028  27.735  14.307  1.00  0.00     0.030 C 
BRANCH  31  32
HETATM   32  C16 UNL     1      21.256  28.585  14.036  1.00  0.00     0.002 C 
BRANCH  32  33
HETATM   33  C17 UNL     1      22.424  28.135  14.837  1.00  0.00     0.000 C 
BRANCH  33  34
HETATM   34  C18 UNL     1      23.201  29.195  15.532  1.00  0.00     0.000 C 
BRANCH  34  35
HETATM   35  C19 UNL     1      24.646  29.202  15.140  1.00  0.00     0.002 C 
BRANCH  35  36
HETATM   36  C20 UNL     1      25.371  27.968  15.617  1.00  0.00     0.020 C 
BRANCH  36  37
HETATM   37  C21 UNL     1      25.458  27.837  17.104  1.00  0.00     0.124 C 
BRANCH  37  38
HETATM   38  N6  UNL     1      25.355  26.458  17.498  1.00  0.00    -0.371 N 
HETATM   39  C22 UNL     1      26.376  25.517  17.126  1.00  0.00     0.151 C 
BRANCH  38  40
HETATM   40  C23 UNL     1      24.240  26.029  18.255  1.00  0.00     0.118 A 
HETATM   41  C24 UNL     1      23.025  26.667  18.410  1.00  0.00     0.068 A 
HETATM   42  C25 UNL     1      22.252  25.890  19.224  1.00  0.00     0.111 A 
HETATM   43  N7  UNL     1      22.981  24.799  19.558  1.00  0.00    -0.310 N 
HETATM   44  N8  UNL     1      24.152  24.892  18.982  1.00  0.00    -0.286 N 
ATOM     45  H7  UNL     1      22.671  24.035  20.158  1.00  0.00     0.186 HD
ATOM     46  H8  UNL     1      24.896  24.200  19.069  1.00  0.00     0.188 HD
ENDBRANCH  38  40
ENDBRANCH  37  38
ENDBRANCH  36  37
ENDBRANCH  35  36
ENDBRANCH  34  35
ENDBRANCH  33  34
ENDBRANCH  32  33
ENDBRANCH  31  32
ENDBRANCH  30  31
ENDBRANCH   5  30
TORSDOF 12
ENDMDL
MODEL 5
REMARK VINA RESULT: -9.390119563      0.727      1.567
REMARK  12 active torsions:
REMARK  status: ('A' for Active; 'I' for Inactive)
REMARK       I    between atoms: N2_7  and  C5_8 
REMARK    1  A    between atoms: C5_8  and  C6_10 
REMARK    2  A    between atoms: C10_16  and  N4_17 
REMARK    3  A    between atoms: N5_21  and  C14_22 
REMARK    4  A    between atoms: C14_22  and  C15_23 
REMARK    5  A    between atoms: C15_23  and  C16_24 
REMARK    6  A    between atoms: C16_24  and  C17_25 
REMARK    7  A    between atoms: C17_25  and  C18_26 
REMARK    8  A    between atoms: C18_26  and  C19_27 
REMARK    9  A    between atoms: C19_27  and  C20_28 
REMARK   10  A    between atoms: C20_28  and  C21_29 
REMARK   11  A    between atoms: C21_29  and  N6_30 
REMARK   12  A    between atoms: N6_30  and  C23_32 
ROOT
HETATM    1  N4  UNL     1      18.542  24.304  17.813  1.00  0.00    -0.368 N 
HETATM    2  C11 UNL     1      17.338  25.107  17.540  1.00  0.00     0.205 C 
HETATM    3  C12 UNL     1      17.453  25.700  16.242  1.00  0.00    -0.134 C 
HETATM    4  C13 UNL     1      17.895  26.084  14.963  1.00  0.00     0.353 C 
HETATM    5  N5  UNL     1      19.239  25.500  14.681  1.00  0.00     0.100 N 
HETATM    6  C26 UNL     1      19.567  24.366  15.505  1.00  0.00     0.293 C 
HETATM    7  C27 UNL     1      19.747  24.444  16.946  1.00  0.00     0.154 C 
ENDROOT
BRANCH   1   8
HETATM    8  C10 UNL     1      18.637  23.409  18.859  1.00  0.00     0.049 A 
HETATM    9  C6  UNL     1      18.153  22.143  18.856  1.00  0.00     0.074 A 
HETATM   10  C7  UNL     1      18.320  21.288  19.973  1.00  0.00     0.106 A 
HETATM   11  N3  UNL     1      18.968  21.755  21.046  1.00  0.00    -0.374 N 
HETATM   12  C8  UNL     1      19.471  22.996  21.119  1.00  0.00     0.090 A 
ATOM     13  H3  UNL     1      19.086  21.137  21.849  1.00  0.00     0.164 HD
HETATM   14  C9  UNL     1      19.306  23.813  20.035  1.00  0.00     0.047 A 
BRANCH   9  15
HETATM   15  C5  UNL     1      17.425  21.621  17.707  1.00  0.00     0.257 C 
HETATM   16  N2  UNL     1      16.020  21.698  17.555  1.00  0.00    -0.348 N 
HETATM   17  C4  UNL     1      15.428  21.154  16.353  1.00  0.00     0.131 C 
HETATM   18  C28 UNL     1      15.156  22.264  18.552  1.00  0.00     0.131 C 
HETATM   19  C3  UNL     1      13.981  20.821  16.528  1.00  0.00     0.083 C 
HETATM   20  C2  UNL     1      13.665  20.322  17.924  1.00  0.00     0.168 C 
HETATM   21  O1  UNL     1      12.303  20.101  17.978  1.00  0.00    -0.241 OA
HETATM   22  C29 UNL     1      13.998  21.401  18.915  1.00  0.00     0.083 C 
HETATM   23  N9  UNL     1      14.307  19.075  18.214  1.00  0.00    -0.307 N 
HETATM   24  N1  UNL     1      12.076  18.815  18.275  1.00  0.00    -0.209 N 
HETATM   25  C1  UNL     1      10.804  18.203  18.608  1.00  0.00     0.191 C 
HETATM   26  C30 UNL     1      13.298  18.076  18.221  1.00  0.00     0.344 C 
HETATM   27  O3  UNL     1      13.467  16.834  18.186  1.00  0.00    -0.245 OA
ATOM     28  H9  UNL     1      15.302  18.931  18.384  1.00  0.00     0.167 HD
HETATM   29  O2  UNL     1      18.130  21.068  16.817  1.00  0.00    -0.267 OA
ENDBRANCH   9  15
ENDBRANCH   1   8
BRANCH   5  30
HETATM   30  C14 UNL     1      20.257  26.499  14.707  1.00  0.00     0.273 C 
BRANCH  30  31
HETATM   31  C15 UNL     1      19.827  27.838  14.178  1.00  0.00     0.030 C 
BRANCH  31  32
HETATM   32  C16 UNL     1      21.019  28.679  13.763  1.00  0.00     0.002 C 
BRANCH  32  33
HETATM   33  C17 UNL     1      22.274  28.209  14.405  1.00  0.00     0.000 C 
BRANCH  33  34
HETATM   34  C18 UNL     1      22.877  29.110  15.424  1.00  0.00     0.000 C 
BRANCH  34  35
HETATM   35  C19 UNL     1      23.579  28.360  16.514  1.00  0.00     0.002 C 
BRANCH  35  36
HETATM   36  C20 UNL     1      22.786  27.165  16.983  1.00  0.00     0.020 C 
BRANCH  36  37
HETATM   37  C21 UNL     1      21.803  27.462  18.068  1.00  0.00     0.124 C 
BRANCH  37  38
HETATM   38  N6  UNL     1      22.325  27.066  19.348  1.00  0.00    -0.371 N 
HETATM   39  C22 UNL     1      21.807  27.646  20.556  1.00  0.00     0.151 C 
BRANCH  38  40
HETATM   40  C23 UNL     1      23.356  26.100  19.413  1.00  0.00     0.118 A 
HETATM   41  C24 UNL     1      24.672  26.288  19.791  1.00  0.00     0.068 A 
HETATM   42  C25 UNL     1      25.302  25.080  19.704  1.00  0.00     0.111 A 
HETATM   43  N7  UNL     1      24.390  24.174  19.281  1.00  0.00    -0.310 N 
HETATM   44  N8  UNL     1      23.247  24.786  19.112  1.00  0.00    -0.286 N 
ATOM     45  H7  UNL     1      24.565  23.182  19.121  1.00  0.00     0.186 HD
ATOM     46  H8  UNL     1      22.389  24.333  18.797  1.00  0.00     0.188 HD
ENDBRANCH  38  40
ENDBRANCH  37  38
ENDBRANCH  36  37
ENDBRANCH  35  36
ENDBRANCH  34  35
ENDBRANCH  33  34
ENDBRANCH  32  33
ENDBRANCH  31  32
ENDBRANCH  30  31
ENDBRANCH   5  30
TORSDOF 12
ENDMDL
