MODEL 1
REMARK VINA RESULT: -8.455541597      0.000      0.000
REMARK  14 active torsions:
REMARK  status: ('A' for Active; 'I' for Inactive)
REMARK    1  A    between atoms: C2_2  and  N1_3 
REMARK    2  A    between atoms: N1_3  and  C3_4 
REMARK    3  A    between atoms: N1_3  and  C5_6 
REMARK    4  A    between atoms: C5_6  and  C6_7 
REMARK    5  A    between atoms: C6_7  and  C7_8 
REMARK    6  A    between atoms: C7_8  and  C8_9 
REMARK    7  A    between atoms: C8_9  and  C9_10 
REMARK    8  A    between atoms: C8_9  and  N4_24 
REMARK       I    between atoms: C9_10  and  N2_12 
REMARK    9  A    between atoms: N2_12  and  C10_14 
REMARK   10  A    between atoms: N5_27  and  C19_28 
REMARK   11  A    between atoms: C19_28  and  C20_29 
REMARK   12  A    between atoms: C22_31  and  O2_32 
REMARK   13  A    between atoms: C24_34  and  O3_35 
REMARK   14  A    between atoms: C26_37  and  O4_38 
ROOT
HETATM    1  C8  UNL     1      17.914  23.601  16.833  1.00  0.00     0.314 C 
ENDROOT
BRANCH   1   2
HETATM    2  C7  UNL     1      16.908  24.586  17.410  1.00  0.00     0.047 C 
BRANCH   2   3
HETATM    3  C6  UNL     1      17.077  24.802  18.870  1.00  0.00     0.033 C 
BRANCH   3   4
HETATM    4  C5  UNL     1      18.575  24.733  19.171  1.00  0.00     0.272 C 
BRANCH   4   5
HETATM    5  N1  UNL     1      18.836  23.995  20.366  1.00  0.00     0.087 N 
BRANCH   5   6
HETATM    6  C2  UNL     1      17.966  22.826  20.487  1.00  0.00     0.268 C 
HETATM    7  C1  UNL     1      18.761  21.568  20.215  1.00  0.00     0.037 C 
ENDBRANCH   5   6
BRANCH   5   8
HETATM    8  C3  UNL     1      20.207  23.653  20.589  1.00  0.00     0.268 C 
HETATM    9  C4  UNL     1      21.114  24.159  19.485  1.00  0.00     0.037 C 
ENDBRANCH   5   8
ENDBRANCH   4   5
ENDBRANCH   3   4
ENDBRANCH   2   3
ENDBRANCH   1   2
BRANCH   1  10
HETATM   10  C9  UNL     1      17.284  22.266  16.841  1.00  0.00     0.257 C 
HETATM   11  O1  UNL     1      17.980  21.263  16.589  1.00  0.00    -0.271 OA
HETATM   12  N2  UNL     1      15.928  22.138  17.132  1.00  0.00    -0.305 N 
ATOM     13  H2  UNL     1      15.328  22.905  16.829  1.00  0.00     0.171 HD
BRANCH  12  14
HETATM   14  C10 UNL     1      15.337  21.156  17.743  1.00  0.00     0.151 A 
HETATM   15  N3  UNL     1      15.406  19.839  17.558  1.00  0.00    -0.339 N 
HETATM   16  C11 UNL     1      14.702  19.054  18.320  1.00  0.00     0.024 A 
ATOM     17  H3  UNL     1      16.005  19.451  16.829  1.00  0.00     0.168 HD
HETATM   18  C12 UNL     1      13.917  19.628  19.285  1.00  0.00     0.009 A 
HETATM   19  C16 UNL     1      14.599  17.529  18.317  1.00  0.00     0.058 C 
HETATM   20  S1  UNL     1      14.223  21.285  19.057  1.00  0.00    -0.057 SA
HETATM   21  C13 UNL     1      13.080  18.765  20.199  1.00  0.00     0.048 C 
HETATM   22  C14 UNL     1      12.317  17.819  19.333  1.00  0.00     0.006 C 
HETATM   23  C15 UNL     1      13.137  17.164  18.269  1.00  0.00     0.006 C 
ENDBRANCH  12  14
ENDBRANCH   1  10
BRANCH   1  24
HETATM   24  N4  UNL     1      18.260  24.063  15.486  1.00  0.00     0.105 N 
HETATM   25  C17 UNL     1      19.685  24.019  15.234  1.00  0.00     0.303 C 
HETATM   26  C18 UNL     1      20.309  25.211  15.905  1.00  0.00     0.303 C 
HETATM   27  N5  UNL     1      20.013  26.378  15.085  1.00  0.00     0.096 N 
HETATM   28  C29 UNL     1      18.647  26.351  14.612  1.00  0.00     0.303 C 
HETATM   29  C30 UNL     1      17.769  25.432  15.427  1.00  0.00     0.303 C 
BRANCH  27  30
HETATM   30  C19 UNL     1      20.342  27.601  15.788  1.00  0.00     0.311 C 
BRANCH  30  31
HETATM   31  C20 UNL     1      21.581  27.389  16.571  1.00  0.00    -0.025 A 
HETATM   32  C21 UNL     1      22.761  26.992  15.979  1.00  0.00     0.048 A 
HETATM   33  C22 UNL     1      23.930  26.787  16.679  1.00  0.00     0.104 A 
HETATM   34  C24 UNL     1      23.958  26.979  18.051  1.00  0.00     0.135 A 
HETATM   35  C26 UNL     1      22.782  27.375  18.653  1.00  0.00     0.104 A 
HETATM   36  C28 UNL     1      21.624  27.576  17.943  1.00  0.00     0.048 A 
BRANCH  33  37
HETATM   37  O2  UNL     1      25.106  26.388  16.060  1.00  0.00    -0.353 OA
HETATM   38  C23 UNL     1      25.971  27.331  15.441  1.00  0.00     0.210 C 
ENDBRANCH  33  37
BRANCH  34  39
HETATM   39  O3  UNL     1      25.117  26.782  18.796  1.00  0.00    -0.351 OA
HETATM   40  C25 UNL     1      25.310  25.447  19.285  1.00  0.00     0.210 C 
ENDBRANCH  34  39
BRANCH  35  41
HETATM   41  O4  UNL     1      22.786  27.574  20.034  1.00  0.00    -0.353 OA
HETATM   42  C27 UNL     1      21.581  27.563  20.771  1.00  0.00     0.210 C 
ENDBRANCH  35  41
ENDBRANCH  30  31
ENDBRANCH  27  30
ENDBRANCH   1  24
TORSDOF 14
ENDMDL
MODEL 2
REMARK VINA RESULT: -8.378378804      0.422      2.061
REMARK  14 active torsions:
REMARK  status: ('A' for Active; 'I' for Inactive)
REMARK    1  A    between atoms: C2_2  and  N1_3 
REMARK    2  A    between atoms: N1_3  and  C3_4 
REMARK    3  A    between atoms: N1_3  and  C5_6 
REMARK    4  A    between atoms: C5_6  and  C6_7 
REMARK    5  A    between atoms: C6_7  and  C7_8 
REMARK    6  A    between atoms: C7_8  and  C8_9 
REMARK    7  A    between atoms: C8_9  and  C9_10 
REMARK    8  A    between atoms: C8_9  and  N4_24 
REMARK       I    between atoms: C9_10  and  N2_12 
REMARK    9  A    between atoms: N2_12  and  C10_14 
REMARK   10  A    between atoms: N5_27  and  C19_28 
REMARK   11  A    between atoms: C19_28  and  C20_29 
REMARK   12  A    between atoms: C22_31  and  O2_32 
REMARK   13  A    between atoms: C24_34  and  O3_35 
REMARK   14  A    between atoms: C26_37  and  O4_38 
ROOT
HETATM    1  C8  UNL     1      17.955  23.610  16.823  1.00  0.00     0.314 C 
ENDROOT
BRANCH   1   2
HETATM    2  C7  UNL     1      16.946  24.602  17.384  1.00  0.00     0.047 C 
BRANCH   2   3
HETATM    3  C6  UNL     1      17.134  24.866  18.833  1.00  0.00     0.033 C 
BRANCH   3   4
HETATM    4  C5  UNL     1      18.620  24.679  19.142  1.00  0.00     0.272 C 
BRANCH   4   5
HETATM    5  N1  UNL     1      18.816  23.962  20.362  1.00  0.00     0.087 N 
BRANCH   5   6
HETATM    6  C2  UNL     1      17.920  22.811  20.470  1.00  0.00     0.268 C 
HETATM    7  C1  UNL     1      18.695  21.536  20.221  1.00  0.00     0.037 C 
ENDBRANCH   5   6
BRANCH   5   8
HETATM    8  C3  UNL     1      20.170  23.600  20.651  1.00  0.00     0.268 C 
HETATM    9  C4  UNL     1      21.141  24.129  19.614  1.00  0.00     0.037 C 
ENDBRANCH   5   8
ENDBRANCH   4   5
ENDBRANCH   3   4
ENDBRANCH   2   3
ENDBRANCH   1   2
BRANCH   1  10
HETATM   10  C9  UNL     1      17.319  22.278  16.828  1.00  0.00     0.257 C 
HETATM   11  O1  UNL     1      18.004  21.276  16.545  1.00  0.00    -0.271 OA
HETATM   12  N2  UNL     1      15.970  22.152  17.150  1.00  0.00    -0.305 N 
ATOM     13  H2  UNL     1      15.366  22.925  16.872  1.00  0.00     0.171 HD
BRANCH  12  14
HETATM   14  C10 UNL     1      15.389  21.164  17.762  1.00  0.00     0.151 A 
HETATM   15  N3  UNL     1      15.470  19.848  17.575  1.00  0.00    -0.339 N 
HETATM   16  C11 UNL     1      14.775  19.056  18.338  1.00  0.00     0.024 A 
ATOM     17  H3  UNL     1      16.070  19.465  16.844  1.00  0.00     0.168 HD
HETATM   18  C12 UNL     1      13.987  19.622  19.305  1.00  0.00     0.009 A 
HETATM   19  C16 UNL     1      14.686  17.530  18.333  1.00  0.00     0.058 C 
HETATM   20  S1  UNL     1      14.278  21.282  19.078  1.00  0.00    -0.057 SA
HETATM   21  C13 UNL     1      13.160  18.750  20.220  1.00  0.00     0.048 C 
HETATM   22  C14 UNL     1      12.404  17.798  19.356  1.00  0.00     0.006 C 
HETATM   23  C15 UNL     1      13.227  17.151  18.288  1.00  0.00     0.006 C 
ENDBRANCH  12  14
ENDBRANCH   1  10
BRANCH   1  24
HETATM   24  N4  UNL     1      18.319  24.066  15.478  1.00  0.00     0.105 N 
HETATM   25  C17 UNL     1      19.745  23.987  15.234  1.00  0.00     0.303 C 
HETATM   26  C18 UNL     1      20.394  25.161  15.911  1.00  0.00     0.303 C 
HETATM   27  N5  UNL     1      20.132  26.337  15.092  1.00  0.00     0.096 N 
HETATM   28  C29 UNL     1      18.769  26.345  14.611  1.00  0.00     0.303 C 
HETATM   29  C30 UNL     1      17.863  25.447  15.420  1.00  0.00     0.303 C 
BRANCH  27  30
HETATM   30  C19 UNL     1      20.488  27.550  15.799  1.00  0.00     0.311 C 
BRANCH  30  31
HETATM   31  C20 UNL     1      21.752  27.326  16.536  1.00  0.00    -0.025 A 
HETATM   32  C21 UNL     1      21.828  27.438  17.909  1.00  0.00     0.048 A 
HETATM   33  C22 UNL     1      22.988  27.235  18.624  1.00  0.00     0.104 A 
HETATM   34  C24 UNL     1      24.159  26.902  17.964  1.00  0.00     0.135 A 
HETATM   35  C26 UNL     1      24.095  26.789  16.590  1.00  0.00     0.104 A 
HETATM   36  C28 UNL     1      22.931  26.993  15.890  1.00  0.00     0.048 A 
BRANCH  33  37
HETATM   37  O2  UNL     1      23.038  27.353  20.006  1.00  0.00    -0.353 OA
HETATM   38  C23 UNL     1      21.867  27.611  20.768  1.00  0.00     0.210 C 
ENDBRANCH  33  37
BRANCH  34  39
HETATM   39  O3  UNL     1      25.353  26.689  18.647  1.00  0.00    -0.351 OA
HETATM   40  C25 UNL     1      26.161  27.858  18.843  1.00  0.00     0.210 C 
ENDBRANCH  34  39
BRANCH  35  41
HETATM   41  O4  UNL     1      25.262  26.453  15.904  1.00  0.00    -0.353 OA
HETATM   42  C27 UNL     1      26.057  27.450  15.296  1.00  0.00     0.210 C 
ENDBRANCH  35  41
ENDBRANCH  30  31
ENDBRANCH  27  30
ENDBRANCH   1  24
TORSDOF 14
ENDMDL
MODEL 3
REMARK VINA RESULT: -8.236953713      3.165     10.270
REMARK  14 active torsions:
REMARK  status: ('A' for Active; 'I' for Inactive)
REMARK    1  A    between atoms: C2_2  and  N1_3 
REMARK    2  A    between atoms: N1_3  and  C3_4 
REMARK    3  A    between atoms: N1_3  and  C5_6 
REMARK    4  A    between atoms: C5_6  and  C6_7 
REMARK    5  A    between atoms: C6_7  and  C7_8 
REMARK    6  A    between atoms: C7_8  and  C8_9 
REMARK    7  A    between atoms: C8_9  and  C9_10 
REMARK    8  A    between atoms: C8_9  and  N4_24 
REMARK       I    between atoms: C9_10  and  N2_12 
REMARK    9  A    between atoms: N2_12  and  C10_14 
REMARK   10  A    between atoms: N5_27  and  C19_28 
REMARK   11  A    between atoms: C19_28  and  C20_29 
REMARK   12  A    between atoms: C22_31  and  O2_32 
REMARK   13  A    between atoms: C24_34  and  O3_35 
REMARK   14  A    between atoms: C26_37  and  O4_38 
ROOT
HETATM    1  C8  UNL     1      18.409  24.590  17.344  1.00  0.00     0.314 C 
ENDROOT
BRANCH   1   2
HETATM    2  C7  UNL     1      17.754  25.437  16.262  1.00  0.00     0.047 C 
BRANCH   2   3
HETATM    3  C6  UNL     1      18.353  25.229  14.918  1.00  0.00     0.033 C 
BRANCH   3   4
HETATM    4  C5  UNL     1      18.675  26.609  14.344  1.00  0.00     0.272 C 
BRANCH   4   5
HETATM    5  N1  UNL     1      20.073  26.757  14.087  1.00  0.00     0.087 N 
BRANCH   5   6
HETATM    6  C2  UNL     1      20.591  28.026  14.595  1.00  0.00     0.268 C 
HETATM    7  C1  UNL     1      21.342  28.746  13.497  1.00  0.00     0.037 C 
ENDBRANCH   5   6
BRANCH   5   8
HETATM    8  C3  UNL     1      20.891  25.656  14.495  1.00  0.00     0.268 C 
HETATM    9  C4  UNL     1      22.110  26.103  15.277  1.00  0.00     0.037 C 
ENDBRANCH   5   8
ENDBRANCH   4   5
ENDBRANCH   3   4
ENDBRANCH   2   3
ENDBRANCH   1   2
BRANCH   1  10
HETATM   10  C9  UNL     1      19.587  25.332  17.836  1.00  0.00     0.257 C 
HETATM   11  O1  UNL     1      19.585  26.578  17.788  1.00  0.00    -0.271 OA
HETATM   12  N2  UNL     1      20.681  24.639  18.349  1.00  0.00    -0.305 N 
ATOM     13  H2  UNL     1      20.878  23.732  17.926  1.00  0.00     0.171 HD
BRANCH  12  14
HETATM   14  C10 UNL     1      21.481  25.013  19.301  1.00  0.00     0.151 A 
HETATM   15  N3  UNL     1      22.811  25.021  19.377  1.00  0.00    -0.339 N 
HETATM   16  C11 UNL     1      23.381  25.454  20.464  1.00  0.00     0.024 A 
ATOM     17  H3  UNL     1      23.375  24.691  18.594  1.00  0.00     0.168 HD
HETATM   18  C12 UNL     1      22.576  25.886  21.484  1.00  0.00     0.009 A 
HETATM   19  C16 UNL     1      24.866  25.565  20.806  1.00  0.00     0.058 C 
HETATM   20  S1  UNL     1      21.020  25.650  20.839  1.00  0.00    -0.057 SA
HETATM   21  C13 UNL     1      23.184  26.402  22.767  1.00  0.00     0.048 C 
HETATM   22  C14 UNL     1      24.181  25.389  23.219  1.00  0.00     0.006 C 
HETATM   23  C15 UNL     1      25.086  24.893  22.138  1.00  0.00     0.006 C 
ENDBRANCH  12  14
ENDBRANCH   1  10
BRANCH   1  24
HETATM   24  N4  UNL     1      17.405  24.352  18.385  1.00  0.00     0.105 N 
HETATM   25  C17 UNL     1      17.868  23.429  19.400  1.00  0.00     0.303 C 
HETATM   26  C18 UNL     1      17.757  22.038  18.843  1.00  0.00     0.303 C 
HETATM   27  N5  UNL     1      16.349  21.663  18.880  1.00  0.00     0.096 N 
HETATM   28  C29 UNL     1      15.506  22.761  18.465  1.00  0.00     0.303 C 
HETATM   29  C30 UNL     1      16.259  23.805  17.675  1.00  0.00     0.303 C 
BRANCH  27  30
HETATM   30  C19 UNL     1      16.115  20.452  18.121  1.00  0.00     0.311 C 
BRANCH  30  31
HETATM   31  C20 UNL     1      14.658  20.203  18.046  1.00  0.00    -0.025 A 
HETATM   32  C21 UNL     1      13.941  19.729  19.125  1.00  0.00     0.048 A 
HETATM   33  C22 UNL     1      12.585  19.487  19.087  1.00  0.00     0.104 A 
HETATM   34  C24 UNL     1      11.872  19.720  17.923  1.00  0.00     0.135 A 
HETATM   35  C26 UNL     1      12.580  20.194  16.838  1.00  0.00     0.104 A 
HETATM   36  C28 UNL     1      13.932  20.431  16.889  1.00  0.00     0.048 A 
BRANCH  33  37
HETATM   37  O2  UNL     1      11.886  19.009  20.187  1.00  0.00    -0.353 OA
HETATM   38  C23 UNL     1      12.201  17.754  20.774  1.00  0.00     0.210 C 
ENDBRANCH  33  37
BRANCH  34  39
HETATM   39  O3  UNL     1      10.502  19.489  17.842  1.00  0.00    -0.351 OA
HETATM   40  C25 UNL     1      10.129  18.166  17.431  1.00  0.00     0.210 C 
ENDBRANCH  34  39
BRANCH  35  41
HETATM   41  O4  UNL     1      11.883  20.437  15.655  1.00  0.00    -0.353 OA
HETATM   42  C27 UNL     1      12.197  21.550  14.844  1.00  0.00     0.210 C 
ENDBRANCH  35  41
ENDBRANCH  30  31
ENDBRANCH  27  30
ENDBRANCH   1  24
TORSDOF 14
ENDMDL
MODEL 4
REMARK VINA RESULT: -8.047035976      2.686      3.655
REMARK  14 active torsions:
REMARK  status: ('A' for Active; 'I' for Inactive)
REMARK    1  A    between atoms: C2_2  and  N1_3 
REMARK    2  A    between atoms: N1_3  and  C3_4 
REMARK    3  A    between atoms: N1_3  and  C5_6 
REMARK    4  A    between atoms: C5_6  and  C6_7 
REMARK    5  A    between atoms: C6_7  and  C7_8 
REMARK    6  A    between atoms: C7_8  and  C8_9 
REMARK    7  A    between atoms: C8_9  and  C9_10 
REMARK    8  A    between atoms: C8_9  and  N4_24 
REMARK       I    between atoms: C9_10  and  N2_12 
REMARK    9  A    between atoms: N2_12  and  C10_14 
REMARK   10  A    between atoms: N5_27  and  C19_28 
REMARK   11  A    between atoms: C19_28  and  C20_29 
REMARK   12  A    between atoms: C22_31  and  O2_32 
REMARK   13  A    between atoms: C24_34  and  O3_35 
REMARK   14  A    between atoms: C26_37  and  O4_38 
ROOT
HETATM    1  C8  UNL     1      17.449  23.577  16.154  1.00  0.00     0.314 C 
ENDROOT
BRANCH   1   2
HETATM    2  C7  UNL     1      16.416  24.617  16.562  1.00  0.00     0.047 C 
BRANCH   2   3
HETATM    3  C6  UNL     1      15.877  24.398  17.929  1.00  0.00     0.033 C 
BRANCH   3   4
HETATM    4  C5  UNL     1      17.011  23.822  18.779  1.00  0.00     0.272 C 
BRANCH   4   5
HETATM    5  N1  UNL     1      16.627  22.596  19.405  1.00  0.00     0.087 N 
BRANCH   5   6
HETATM    6  C2  UNL     1      15.320  22.133  18.941  1.00  0.00     0.268 C 
HETATM    7  C1  UNL     1      15.304  20.621  18.889  1.00  0.00     0.037 C 
ENDBRANCH   5   6
BRANCH   5   8
HETATM    8  C3  UNL     1      17.602  21.550  19.354  1.00  0.00     0.268 C 
HETATM    9  C4  UNL     1      18.698  21.734  20.384  1.00  0.00     0.037 C 
ENDBRANCH   5   8
ENDBRANCH   4   5
ENDBRANCH   3   4
ENDBRANCH   2   3
ENDBRANCH   1   2
BRANCH   1  10
HETATM   10  C9  UNL     1      16.723  22.441  15.552  1.00  0.00     0.257 C 
HETATM   11  O1  UNL     1      17.018  21.280  15.896  1.00  0.00    -0.271 OA
HETATM   12  N2  UNL     1      15.721  22.675  14.614  1.00  0.00    -0.305 N 
ATOM     13  H2  UNL     1      15.852  23.484  14.007  1.00  0.00     0.171 HD
BRANCH  12  14
HETATM   14  C10 UNL     1      14.640  21.983  14.420  1.00  0.00     0.151 A 
HETATM   15  N3  UNL     1      14.416  20.892  13.688  1.00  0.00    -0.339 N 
HETATM   16  C11 UNL     1      13.219  20.382  13.662  1.00  0.00     0.024 A 
ATOM     17  H3  UNL     1      15.172  20.463  13.156  1.00  0.00     0.168 HD
HETATM   18  C12 UNL     1      12.240  20.997  14.397  1.00  0.00     0.009 A 
HETATM   19  C16 UNL     1      12.701  19.155  12.913  1.00  0.00     0.058 C 
HETATM   20  S1  UNL     1      13.084  22.296  15.101  1.00  0.00    -0.057 SA
HETATM   21  C13 UNL     1      10.834  20.446  14.405  1.00  0.00     0.048 C 
HETATM   22  C14 UNL     1      10.434  20.242  12.983  1.00  0.00     0.006 C 
HETATM   23  C15 UNL     1      11.471  19.567  12.143  1.00  0.00     0.006 C 
ENDBRANCH  12  14
ENDBRANCH   1  10
BRANCH   1  24
HETATM   24  N4  UNL     1      18.379  24.222  15.223  1.00  0.00     0.105 N 
HETATM   25  C17 UNL     1      19.764  24.030  15.601  1.00  0.00     0.303 C 
HETATM   26  C18 UNL     1      20.074  24.986  16.719  1.00  0.00     0.303 C 
HETATM   27  N5  UNL     1      20.224  26.311  16.132  1.00  0.00     0.096 N 
HETATM   28  C29 UNL     1      19.214  26.555  15.128  1.00  0.00     0.303 C 
HETATM   29  C30 UNL     1      18.025  25.633  15.265  1.00  0.00     0.303 C 
BRANCH  27  30
HETATM   30  C19 UNL     1      20.258  27.331  17.159  1.00  0.00     0.311 C 
BRANCH  30  31
HETATM   31  C20 UNL     1      21.569  27.283  17.845  1.00  0.00    -0.025 A 
HETATM   32  C21 UNL     1      21.674  27.273  19.221  1.00  0.00     0.048 A 
HETATM   33  C22 UNL     1      22.878  27.228  19.890  1.00  0.00     0.104 A 
HETATM   34  C24 UNL     1      24.065  27.190  19.176  1.00  0.00     0.135 A 
HETATM   35  C26 UNL     1      23.971  27.200  17.800  1.00  0.00     0.104 A 
HETATM   36  C28 UNL     1      22.764  27.245  17.146  1.00  0.00     0.048 A 
BRANCH  33  37
HETATM   37  O2  UNL     1      22.958  27.218  21.275  1.00  0.00    -0.353 OA
HETATM   38  C23 UNL     1      21.801  27.031  22.079  1.00  0.00     0.210 C 
ENDBRANCH  33  37
BRANCH  34  39
HETATM   39  O3  UNL     1      25.302  27.144  19.812  1.00  0.00    -0.351 OA
HETATM   40  C25 UNL     1      25.756  25.832  20.172  1.00  0.00     0.210 C 
ENDBRANCH  34  39
BRANCH  35  41
HETATM   41  O4  UNL     1      25.153  27.162  17.061  1.00  0.00    -0.353 OA
HETATM   42  C27 UNL     1      25.152  27.449  15.678  1.00  0.00     0.210 C 
ENDBRANCH  35  41
ENDBRANCH  30  31
ENDBRANCH  27  30
ENDBRANCH   1  24
TORSDOF 14
ENDMDL
MODEL 5
REMARK VINA RESULT: -8.033058756      2.721      3.092
REMARK  14 active torsions:
REMARK  status: ('A' for Active; 'I' for Inactive)
REMARK    1  A    between atoms: C2_2  and  N1_3 
REMARK    2  A    between atoms: N1_3  and  C3_4 
REMARK    3  A    between atoms: N1_3  and  C5_6 
REMARK    4  A    between atoms: C5_6  and  C6_7 
REMARK    5  A    between atoms: C6_7  and  C7_8 
REMARK    6  A    between atoms: C7_8  and  C8_9 
REMARK    7  A    between atoms: C8_9  and  C9_10 
REMARK    8  A    between atoms: C8_9  and  N4_24 
REMARK       I    between atoms: C9_10  and  N2_12 
REMARK    9  A    between atoms: N2_12  and  C10_14 
REMARK   10  A    between atoms: N5_27  and  C19_28 
REMARK   11  A    between atoms: C19_28  and  C20_29 
REMARK   12  A    between atoms: C22_31  and  O2_32 
REMARK   13  A    between atoms: C24_34  and  O3_35 
REMARK   14  A    between atoms: C26_37  and  O4_38 
ROOT
HETATM    1  C8  UNL     1      17.385  23.528  16.170  1.00  0.00     0.314 C 
ENDROOT
BRANCH   1   2
HETATM    2  C7  UNL     1      16.352  24.569  16.575  1.00  0.00     0.047 C 
BRANCH   2   3
HETATM    3  C6  UNL     1      15.778  24.325  17.923  1.00  0.00     0.033 C 
BRANCH   3   4
HETATM    4  C5  UNL     1      16.899  23.768  18.802  1.00  0.00     0.272 C 
BRANCH   4   5
HETATM    5  N1  UNL     1      16.525  22.527  19.405  1.00  0.00     0.087 N 
BRANCH   5   6
HETATM    6  C2  UNL     1      15.209  22.075  18.954  1.00  0.00     0.268 C 
HETATM    7  C1  UNL     1      15.210  20.570  18.804  1.00  0.00     0.037 C 
ENDBRANCH   5   6
BRANCH   5   8
HETATM    8  C3  UNL     1      17.498  21.482  19.310  1.00  0.00     0.268 C 
HETATM    9  C4  UNL     1      18.761  21.798  20.085  1.00  0.00     0.037 C 
ENDBRANCH   5   8
ENDBRANCH   4   5
ENDBRANCH   3   4
ENDBRANCH   2   3
ENDBRANCH   1   2
BRANCH   1  10
HETATM   10  C9  UNL     1      16.661  22.402  15.545  1.00  0.00     0.257 C 
HETATM   11  O1  UNL     1      16.960  21.235  15.865  1.00  0.00    -0.271 OA
HETATM   12  N2  UNL     1      15.656  22.652  14.614  1.00  0.00    -0.305 N 
ATOM     13  H2  UNL     1      15.784  23.474  14.024  1.00  0.00     0.171 HD
BRANCH  12  14
HETATM   14  C10 UNL     1      14.577  21.961  14.408  1.00  0.00     0.151 A 
HETATM   15  N3  UNL     1      14.363  20.861  13.687  1.00  0.00    -0.339 N 
HETATM   16  C11 UNL     1      13.166  20.354  13.644  1.00  0.00     0.024 A 
ATOM     17  H3  UNL     1      15.129  20.422  13.176  1.00  0.00     0.168 HD
HETATM   18  C12 UNL     1      12.175  20.983  14.350  1.00  0.00     0.009 A 
HETATM   19  C16 UNL     1      12.658  19.119  12.901  1.00  0.00     0.058 C 
HETATM   20  S1  UNL     1      13.008  22.288  15.053  1.00  0.00    -0.057 SA
HETATM   21  C13 UNL     1      10.767  20.437  14.338  1.00  0.00     0.048 C 
HETATM   22  C14 UNL     1      10.394  20.215  12.910  1.00  0.00     0.006 C 
HETATM   23  C15 UNL     1      11.446  19.525  12.101  1.00  0.00     0.006 C 
ENDBRANCH  12  14
ENDBRANCH   1  10
BRANCH   1  24
HETATM   24  N4  UNL     1      18.330  24.178  15.258  1.00  0.00     0.105 N 
HETATM   25  C17 UNL     1      19.708  23.996  15.665  1.00  0.00     0.303 C 
HETATM   26  C18 UNL     1      19.987  24.955  16.789  1.00  0.00     0.303 C 
HETATM   27  N5  UNL     1      20.141  26.280  16.203  1.00  0.00     0.096 N 
HETATM   28  C29 UNL     1      19.151  26.516  15.178  1.00  0.00     0.303 C 
HETATM   29  C30 UNL     1      17.966  25.586  15.290  1.00  0.00     0.303 C 
BRANCH  27  30
HETATM   30  C19 UNL     1      20.146  27.302  17.230  1.00  0.00     0.311 C 
BRANCH  30  31
HETATM   31  C20 UNL     1      21.448  27.273  17.934  1.00  0.00    -0.025 A 
HETATM   32  C21 UNL     1      22.645  27.184  17.254  1.00  0.00     0.048 A 
HETATM   33  C22 UNL     1      23.873  27.155  17.880  1.00  0.00     0.104 A 
HETATM   34  C24 UNL     1      23.947  27.216  19.262  1.00  0.00     0.135 A 
HETATM   35  C26 UNL     1      22.756  27.304  19.951  1.00  0.00     0.104 A 
HETATM   36  C28 UNL     1      21.538  27.332  19.315  1.00  0.00     0.048 A 
BRANCH  33  37
HETATM   37  O2  UNL     1      25.064  27.066  17.173  1.00  0.00    -0.353 OA
HETATM   38  C23 UNL     1      25.552  28.160  16.409  1.00  0.00     0.210 C 
ENDBRANCH  33  37
BRANCH  34  39
HETATM   39  O3  UNL     1      25.166  27.189  19.933  1.00  0.00    -0.351 OA
HETATM   40  C25 UNL     1      25.657  25.880  20.256  1.00  0.00     0.210 C 
ENDBRANCH  34  39
BRANCH  35  41
HETATM   41  O4  UNL     1      22.806  27.367  21.343  1.00  0.00    -0.353 OA
HETATM   42  C27 UNL     1      21.643  27.167  22.120  1.00  0.00     0.210 C 
ENDBRANCH  35  41
ENDBRANCH  30  31
ENDBRANCH  27  30
ENDBRANCH   1  24
TORSDOF 14
ENDMDL
