MODEL 1
REMARK VINA RESULT: -9.673530794      0.000      0.000
REMARK  13 active torsions:
REMARK  status: ('A' for Active; 'I' for Inactive)
REMARK    1  A    between atoms: C2_2  and  C3_3 
REMARK    2  A    between atoms: C3_3  and  O1_4 
REMARK    3  A    between atoms: O1_4  and  C4_5 
REMARK       I    between atoms: C4_5  and  N1_7 
REMARK    4  A    between atoms: N2_10  and  C7_11 
REMARK    5  A    between atoms: C7_11  and  C8_12 
REMARK    6  A    between atoms: C8_12  and  C9_13 
REMARK    7  A    between atoms: C9_13  and  N3_14 
REMARK    8  A    between atoms: N3_14  and  C10_15 
REMARK    9  A    between atoms: N3_14  and  C26_36 
REMARK   10  A    between atoms: C10_15  and  C11_16 
REMARK   11  A    between atoms: C11_16  and  N4_17 
REMARK   12  A    between atoms: C17_26  and  N6_27 
REMARK   13  A    between atoms: C26_36  and  C27_37 
ROOT
HETATM    1  N3  UNL     1      14.990  20.741  19.088  1.00  0.00    -0.372 N 
ENDROOT
BRANCH   1   2
HETATM    2  C9  UNL     1      16.049  20.221  18.324  1.00  0.00     0.065 C 
BRANCH   2   3
HETATM    3  C8  UNL     1      17.276  21.112  18.268  1.00  0.00     0.075 C 
BRANCH   3   4
HETATM    4  C7  UNL     1      17.657  21.669  19.581  1.00  0.00     0.277 C 
BRANCH   4   5
HETATM    5  N2  UNL     1      18.506  22.848  19.555  1.00  0.00     0.091 N 
HETATM    6  C6  UNL     1      17.993  23.900  20.353  1.00  0.00     0.292 C 
HETATM    7  C5  UNL     1      19.036  24.631  21.134  1.00  0.00     0.158 C 
HETATM    8  N1  UNL     1      20.248  24.823  20.379  1.00  0.00    -0.325 N 
HETATM    9  C4  UNL     1      21.002  26.011  20.509  1.00  0.00     0.363 C 
HETATM   10  C33 UNL     1      20.721  23.786  19.467  1.00  0.00     0.158 C 
HETATM   11  O2  UNL     1      20.642  26.959  21.284  1.00  0.00    -0.238 OA
HETATM   12  C32 UNL     1      19.892  22.517  19.730  1.00  0.00     0.292 C 
BRANCH   9  13
HETATM   13  O1  UNL     1      22.196  26.239  19.802  1.00  0.00    -0.300 OA
BRANCH  13  14
HETATM   14  C3  UNL     1      23.418  26.439  20.506  1.00  0.00     0.207 C 
BRANCH  14  15
HETATM   15  C2  UNL     1      23.763  25.183  21.214  1.00  0.00    -0.011 C 
HETATM   16  C1  UNL     1      23.937  25.198  22.521  1.00  0.00     0.009 C 
ENDBRANCH  14  15
ENDBRANCH  13  14
ENDBRANCH   9  13
ENDBRANCH   4   5
ENDBRANCH   3   4
ENDBRANCH   2   3
ENDBRANCH   1   2
BRANCH   1  17
HETATM   17  C10 UNL     1      14.741  22.112  18.996  1.00  0.00     0.083 C 
BRANCH  17  18
HETATM   18  C11 UNL     1      13.833  22.546  17.822  1.00  0.00     0.175 C 
BRANCH  18  19
HETATM   19  N4  UNL     1      14.540  22.603  16.585  1.00  0.00    -0.332 N 
HETATM   20  C12 UNL     1      14.247  21.719  15.501  1.00  0.00     0.077 C 
HETATM   21  N5  UNL     1      13.733  20.584  15.680  1.00  0.00    -0.389 N 
HETATM   22  C13 UNL     1      14.583  22.226  14.114  1.00  0.00     0.081 C 
ATOM     23  H52 UNL     1      13.506  20.243  16.614  1.00  0.00     0.157 HD
ATOM     24  H51 UNL     1      13.524  19.953  14.907  1.00  0.00     0.157 HD
HETATM   25  C14 UNL     1      16.058  22.513  14.123  1.00  0.00     0.048 C 
HETATM   26  C15 UNL     1      16.357  23.509  15.180  1.00  0.00    -0.029 A 
HETATM   27  C16 UNL     1      17.409  24.408  14.968  1.00  0.00     0.038 A 
HETATM   28  C25 UNL     1      15.623  23.493  16.361  1.00  0.00     0.042 A 
HETATM   29  C17 UNL     1      17.774  25.320  15.912  1.00  0.00     0.030 A 
HETATM   30  C23 UNL     1      17.038  25.306  17.099  1.00  0.00     0.031 A 
HETATM   31  C24 UNL     1      15.999  24.423  17.316  1.00  0.00     0.032 A 
BRANCH  29  32
HETATM   32  N6  UNL     1      18.866  26.211  15.745  1.00  0.00    -0.381 N 
HETATM   33  C18 UNL     1      19.769  26.454  16.838  1.00  0.00     0.123 C 
HETATM   34  C19 UNL     1      21.222  26.462  16.439  1.00  0.00     0.020 C 
HETATM   35  C20 UNL     1      21.391  26.289  14.957  1.00  0.00     0.003 C 
HETATM   36  C21 UNL     1      20.508  27.263  14.248  1.00  0.00     0.020 C 
HETATM   37  C22 UNL     1      19.057  26.867  14.477  1.00  0.00     0.123 C 
ENDBRANCH  29  32
ENDBRANCH  18  19
ENDBRANCH  17  18
ENDBRANCH   1  17
BRANCH   1  38
HETATM   38  C26 UNL     1      13.809  19.936  19.143  1.00  0.00     0.131 C 
BRANCH  38  39
HETATM   39  C27 UNL     1      13.883  18.587  19.710  1.00  0.00     0.007 C 
HETATM   40  C28 UNL     1      12.729  18.436  20.717  1.00  0.00     0.034 C 
HETATM   41  C29 UNL     1      11.442  18.283  19.970  1.00  0.00     0.232 C 
HETATM   42  N7  UNL     1      11.447  17.063  19.160  1.00  0.00    -0.075 N 
HETATM   43  C30 UNL     1      12.490  17.150  18.143  1.00  0.00     0.232 C 
ATOM     44  H72 UNL     1      11.537  16.223  19.732  1.00  0.00     0.277 HD
ATOM     45  H71 UNL     1      10.531  16.868  18.754  1.00  0.00     0.277 HD
HETATM   46  C31 UNL     1      13.790  17.385  18.848  1.00  0.00     0.034 C 
ENDBRANCH  38  39
ENDBRANCH   1  38
TORSDOF 13
ENDMDL
MODEL 2
REMARK VINA RESULT: -9.587455215      2.591      6.240
REMARK  13 active torsions:
REMARK  status: ('A' for Active; 'I' for Inactive)
REMARK    1  A    between atoms: C2_2  and  C3_3 
REMARK    2  A    between atoms: C3_3  and  O1_4 
REMARK    3  A    between atoms: O1_4  and  C4_5 
REMARK       I    between atoms: C4_5  and  N1_7 
REMARK    4  A    between atoms: N2_10  and  C7_11 
REMARK    5  A    between atoms: C7_11  and  C8_12 
REMARK    6  A    between atoms: C8_12  and  C9_13 
REMARK    7  A    between atoms: C9_13  and  N3_14 
REMARK    8  A    between atoms: N3_14  and  C10_15 
REMARK    9  A    between atoms: N3_14  and  C26_36 
REMARK   10  A    between atoms: C10_15  and  C11_16 
REMARK   11  A    between atoms: C11_16  and  N4_17 
REMARK   12  A    between atoms: C17_26  and  N6_27 
REMARK   13  A    between atoms: C26_36  and  C27_37 
ROOT
HETATM    1  N3  UNL     1      15.108  21.133  18.857  1.00  0.00    -0.372 N 
ENDROOT
BRANCH   1   2
HETATM    2  C9  UNL     1      16.269  20.626  18.246  1.00  0.00     0.065 C 
BRANCH   2   3
HETATM    3  C8  UNL     1      17.512  21.466  18.472  1.00  0.00     0.075 C 
BRANCH   3   4
HETATM    4  C7  UNL     1      18.082  22.018  17.228  1.00  0.00     0.277 C 
BRANCH   4   5
HETATM    5  N2  UNL     1      18.485  23.414  17.271  1.00  0.00     0.091 N 
HETATM    6  C6  UNL     1      18.891  23.817  18.567  1.00  0.00     0.292 C 
HETATM    7  C5  UNL     1      20.090  24.708  18.576  1.00  0.00     0.158 C 
HETATM    8  N1  UNL     1      20.069  25.662  17.496  1.00  0.00    -0.325 N 
HETATM    9  C4  UNL     1      20.557  26.976  17.680  1.00  0.00     0.363 C 
HETATM   10  C33 UNL     1      19.545  25.283  16.187  1.00  0.00     0.158 C 
HETATM   11  O2  UNL     1      21.023  27.373  18.799  1.00  0.00    -0.238 OA
HETATM   12  C32 UNL     1      19.356  23.756  16.182  1.00  0.00     0.292 C 
BRANCH   9  13
HETATM   13  O1  UNL     1      20.567  27.937  16.654  1.00  0.00    -0.300 OA
BRANCH  13  14
HETATM   14  C3  UNL     1      21.802  28.404  16.122  1.00  0.00     0.207 C 
BRANCH  14  15
HETATM   15  C2  UNL     1      21.729  28.342  14.642  1.00  0.00    -0.011 C 
HETATM   16  C1  UNL     1      20.552  28.316  14.048  1.00  0.00     0.009 C 
ENDBRANCH  14  15
ENDBRANCH  13  14
ENDBRANCH   9  13
ENDBRANCH   4   5
ENDBRANCH   3   4
ENDBRANCH   2   3
ENDBRANCH   1   2
BRANCH   1  17
HETATM   17  C10 UNL     1      14.761  22.458  18.583  1.00  0.00     0.083 C 
BRANCH  17  18
HETATM   18  C11 UNL     1      13.628  22.648  17.548  1.00  0.00     0.175 C 
BRANCH  18  19
HETATM   19  N4  UNL     1      14.047  22.327  16.223  1.00  0.00    -0.332 N 
HETATM   20  C12 UNL     1      15.099  23.036  15.567  1.00  0.00     0.077 C 
HETATM   21  N5  UNL     1      15.398  24.222  15.864  1.00  0.00    -0.389 N 
HETATM   22  C13 UNL     1      15.848  22.277  14.491  1.00  0.00     0.081 C 
ATOM     23  H52 UNL     1      14.895  24.732  16.588  1.00  0.00     0.157 HD
ATOM     24  H51 UNL     1      16.149  24.728  15.395  1.00  0.00     0.157 HD
HETATM   25  C14 UNL     1      14.819  21.879  13.471  1.00  0.00     0.048 C 
HETATM   26  C15 UNL     1      13.774  21.055  14.125  1.00  0.00    -0.029 A 
HETATM   27  C16 UNL     1      13.150  20.053  13.372  1.00  0.00     0.038 A 
HETATM   28  C25 UNL     1      13.411  21.329  15.439  1.00  0.00     0.042 A 
HETATM   29  C17 UNL     1      12.149  19.287  13.889  1.00  0.00     0.030 A 
HETATM   30  C23 UNL     1      11.783  19.559  15.208  1.00  0.00     0.031 A 
HETATM   31  C24 UNL     1      12.393  20.547  15.958  1.00  0.00     0.032 A 
BRANCH  29  32
HETATM   32  N6  UNL     1      11.465  18.297  13.136  1.00  0.00    -0.381 N 
HETATM   33  C18 UNL     1      12.105  17.685  12.003  1.00  0.00     0.123 C 
HETATM   34  C19 UNL     1      11.920  16.192  11.929  1.00  0.00     0.020 C 
HETATM   35  C20 UNL     1      11.031  15.689  13.031  1.00  0.00     0.003 C 
HETATM   36  C21 UNL     1       9.781  16.506  13.062  1.00  0.00     0.020 C 
HETATM   37  C22 UNL     1      10.129  17.916  13.517  1.00  0.00     0.123 C 
ENDBRANCH  29  32
ENDBRANCH  18  19
ENDBRANCH  17  18
ENDBRANCH   1  17
BRANCH   1  38
HETATM   38  C26 UNL     1      13.994  20.237  18.914  1.00  0.00     0.131 C 
BRANCH  38  39
HETATM   39  C27 UNL     1      14.155  18.927  19.549  1.00  0.00     0.007 C 
HETATM   40  C28 UNL     1      13.137  18.834  20.700  1.00  0.00     0.034 C 
HETATM   41  C29 UNL     1      11.770  18.627  20.130  1.00  0.00     0.232 C 
HETATM   42  N7  UNL     1      11.689  17.359  19.403  1.00  0.00    -0.075 N 
HETATM   43  C30 UNL     1      12.597  17.387  18.261  1.00  0.00     0.232 C 
ATOM     44  H72 UNL     1      11.861  16.558  20.010  1.00  0.00     0.277 HD
ATOM     45  H71 UNL     1      10.733  17.135  19.128  1.00  0.00     0.277 HD
HETATM   46  C31 UNL     1      13.971  17.673  18.781  1.00  0.00     0.034 C 
ENDBRANCH  38  39
ENDBRANCH   1  38
TORSDOF 13
ENDMDL
MODEL 3
REMARK VINA RESULT: -9.466319169      3.214      8.925
REMARK  13 active torsions:
REMARK  status: ('A' for Active; 'I' for Inactive)
REMARK    1  A    between atoms: C2_2  and  C3_3 
REMARK    2  A    between atoms: C3_3  and  O1_4 
REMARK    3  A    between atoms: O1_4  and  C4_5 
REMARK       I    between atoms: C4_5  and  N1_7 
REMARK    4  A    between atoms: N2_10  and  C7_11 
REMARK    5  A    between atoms: C7_11  and  C8_12 
REMARK    6  A    between atoms: C8_12  and  C9_13 
REMARK    7  A    between atoms: C9_13  and  N3_14 
REMARK    8  A    between atoms: N3_14  and  C10_15 
REMARK    9  A    between atoms: N3_14  and  C26_36 
REMARK   10  A    between atoms: C10_15  and  C11_16 
REMARK   11  A    between atoms: C11_16  and  N4_17 
REMARK   12  A    between atoms: C17_26  and  N6_27 
REMARK   13  A    between atoms: C26_36  and  C27_37 
ROOT
HETATM    1  N3  UNL     1      16.910  24.573  15.819  1.00  0.00    -0.372 N 
ENDROOT
BRANCH   1   2
HETATM    2  C9  UNL     1      16.863  23.726  14.698  1.00  0.00     0.065 C 
BRANCH   2   3
HETATM    3  C8  UNL     1      16.169  22.400  14.947  1.00  0.00     0.075 C 
BRANCH   3   4
HETATM    4  C7  UNL     1      14.762  22.380  14.499  1.00  0.00     0.277 C 
BRANCH   4   5
HETATM    5  N2  UNL     1      13.795  21.857  15.448  1.00  0.00     0.091 N 
HETATM    6  C6  UNL     1      12.608  21.409  14.817  1.00  0.00     0.292 C 
HETATM    7  C5  UNL     1      12.065  20.137  15.383  1.00  0.00     0.158 C 
HETATM    8  N1  UNL     1      12.185  20.084  16.818  1.00  0.00    -0.325 N 
HETATM    9  C4  UNL     1      11.177  19.483  17.607  1.00  0.00     0.363 C 
HETATM   10  C33 UNL     1      13.356  20.648  17.482  1.00  0.00     0.158 C 
HETATM   11  O2  UNL     1      10.126  18.977  17.091  1.00  0.00    -0.238 OA
HETATM   12  C32 UNL     1      14.401  20.968  16.399  1.00  0.00     0.292 C 
BRANCH   9  13
HETATM   13  O1  UNL     1      11.256  19.397  19.008  1.00  0.00    -0.300 OA
BRANCH  13  14
HETATM   14  C3  UNL     1      11.240  18.126  19.650  1.00  0.00     0.207 C 
BRANCH  14  15
HETATM   15  C2  UNL     1      12.403  18.049  20.566  1.00  0.00    -0.011 C 
HETATM   16  C1  UNL     1      13.621  17.973  20.068  1.00  0.00     0.009 C 
ENDBRANCH  14  15
ENDBRANCH  13  14
ENDBRANCH   9  13
ENDBRANCH   4   5
ENDBRANCH   3   4
ENDBRANCH   2   3
ENDBRANCH   1   2
BRANCH   1  17
HETATM   17  C10 UNL     1      16.530  24.036  17.050  1.00  0.00     0.083 C 
BRANCH  17  18
HETATM   18  C11 UNL     1      17.030  24.805  18.295  1.00  0.00     0.175 C 
BRANCH  18  19
HETATM   19  N4  UNL     1      17.815  23.984  19.158  1.00  0.00    -0.332 N 
HETATM   20  C12 UNL     1      17.349  22.719  19.632  1.00  0.00     0.077 C 
HETATM   21  N5  UNL     1      16.124  22.450  19.737  1.00  0.00    -0.389 N 
HETATM   22  C13 UNL     1      18.416  21.708  19.998  1.00  0.00     0.081 C 
ATOM     23  H52 UNL     1      15.406  23.130  19.491  1.00  0.00     0.157 HD
ATOM     24  H51 UNL     1      15.792  21.547  20.076  1.00  0.00     0.157 HD
HETATM   25  C14 UNL     1      19.249  22.353  21.069  1.00  0.00     0.048 C 
HETATM   26  C15 UNL     1      19.821  23.618  20.549  1.00  0.00    -0.029 A 
HETATM   27  C16 UNL     1      21.078  24.021  21.016  1.00  0.00     0.038 A 
HETATM   28  C25 UNL     1      19.080  24.387  19.658  1.00  0.00     0.042 A 
HETATM   29  C17 UNL     1      21.647  25.195  20.621  1.00  0.00     0.030 A 
HETATM   30  C23 UNL     1      20.906  25.968  19.726  1.00  0.00     0.031 A 
HETATM   31  C24 UNL     1      19.665  25.577  19.260  1.00  0.00     0.032 A 
BRANCH  29  32
HETATM   32  N6  UNL     1      22.896  25.653  21.114  1.00  0.00    -0.381 N 
HETATM   33  C18 UNL     1      22.939  26.652  22.148  1.00  0.00     0.123 C 
HETATM   34  C19 UNL     1      23.946  26.365  23.232  1.00  0.00     0.020 C 
HETATM   35  C20 UNL     1      24.738  25.124  22.939  1.00  0.00     0.003 C 
HETATM   36  C21 UNL     1      25.275  25.205  21.547  1.00  0.00     0.020 C 
HETATM   37  C22 UNL     1      24.114  25.111  20.568  1.00  0.00     0.123 C 
ENDBRANCH  29  32
ENDBRANCH  18  19
ENDBRANCH  17  18
ENDBRANCH   1  17
BRANCH   1  38
HETATM   38  C26 UNL     1      18.039  25.450  15.888  1.00  0.00     0.131 C 
BRANCH  38  39
HETATM   39  C27 UNL     1      19.064  25.389  14.844  1.00  0.00     0.007 C 
HETATM   40  C28 UNL     1      18.997  26.701  14.041  1.00  0.00     0.034 C 
HETATM   41  C29 UNL     1      19.591  27.805  14.857  1.00  0.00     0.232 C 
HETATM   42  N7  UNL     1      21.008  27.556  15.127  1.00  0.00    -0.075 N 
HETATM   43  C30 UNL     1      21.153  26.346  15.929  1.00  0.00     0.232 C 
ATOM     44  H72 UNL     1      21.560  27.517  14.270  1.00  0.00     0.277 HD
ATOM     45  H71 UNL     1      21.464  28.360  15.560  1.00  0.00     0.277 HD
HETATM   46  C31 UNL     1      20.498  25.226  15.182  1.00  0.00     0.034 C 
ENDBRANCH  38  39
ENDBRANCH   1  38
TORSDOF 13
ENDMDL
MODEL 4
REMARK VINA RESULT: -9.457986099      2.900      7.138
REMARK  13 active torsions:
REMARK  status: ('A' for Active; 'I' for Inactive)
REMARK    1  A    between atoms: C2_2  and  C3_3 
REMARK    2  A    between atoms: C3_3  and  O1_4 
REMARK    3  A    between atoms: O1_4  and  C4_5 
REMARK       I    between atoms: C4_5  and  N1_7 
REMARK    4  A    between atoms: N2_10  and  C7_11 
REMARK    5  A    between atoms: C7_11  and  C8_12 
REMARK    6  A    between atoms: C8_12  and  C9_13 
REMARK    7  A    between atoms: C9_13  and  N3_14 
REMARK    8  A    between atoms: N3_14  and  C10_15 
REMARK    9  A    between atoms: N3_14  and  C26_36 
REMARK   10  A    between atoms: C10_15  and  C11_16 
REMARK   11  A    between atoms: C11_16  and  N4_17 
REMARK   12  A    between atoms: C17_26  and  N6_27 
REMARK   13  A    between atoms: C26_36  and  C27_37 
ROOT
HETATM    1  N3  UNL     1      16.969  21.432  18.236  1.00  0.00    -0.372 N 
ENDROOT
BRANCH   1   2
HETATM    2  C9  UNL     1      17.391  21.295  16.902  1.00  0.00     0.065 C 
BRANCH   2   3
HETATM    3  C8  UNL     1      18.346  22.376  16.434  1.00  0.00     0.075 C 
BRANCH   3   4
HETATM    4  C7  UNL     1      17.738  23.325  15.480  1.00  0.00     0.277 C 
BRANCH   4   5
HETATM    5  N2  UNL     1      18.568  24.446  15.074  1.00  0.00     0.091 N 
HETATM    6  C6  UNL     1      17.918  25.691  15.258  1.00  0.00     0.292 C 
HETATM    7  C5  UNL     1      18.810  26.766  15.791  1.00  0.00     0.158 C 
HETATM    8  N1  UNL     1      20.128  26.717  15.213  1.00  0.00    -0.325 N 
HETATM    9  C4  UNL     1      20.839  27.905  14.928  1.00  0.00     0.363 C 
HETATM   10  C33 UNL     1      20.757  25.433  14.916  1.00  0.00     0.158 C 
HETATM   11  O2  UNL     1      20.346  29.059  15.157  1.00  0.00    -0.238 OA
HETATM   12  C32 UNL     1      19.909  24.332  15.575  1.00  0.00     0.292 C 
BRANCH   9  13
HETATM   13  O1  UNL     1      22.132  27.907  14.375  1.00  0.00    -0.300 OA
BRANCH  13  14
HETATM   14  C3  UNL     1      23.173  28.659  14.990  1.00  0.00     0.207 C 
BRANCH  14  15
HETATM   15  C2  UNL     1      23.621  27.934  16.204  1.00  0.00    -0.011 C 
HETATM   16  C1  UNL     1      24.325  26.827  16.079  1.00  0.00     0.009 C 
ENDBRANCH  14  15
ENDBRANCH  13  14
ENDBRANCH   9  13
ENDBRANCH   4   5
ENDBRANCH   3   4
ENDBRANCH   2   3
ENDBRANCH   1   2
BRANCH   1  17
HETATM   17  C10 UNL     1      15.836  20.718  18.631  1.00  0.00     0.083 C 
BRANCH  17  18
HETATM   18  C11 UNL     1      14.539  21.549  18.765  1.00  0.00     0.175 C 
BRANCH  18  19
HETATM   19  N4  UNL     1      14.161  22.165  17.535  1.00  0.00    -0.332 N 
HETATM   20  C12 UNL     1      14.475  23.527  17.240  1.00  0.00     0.077 C 
HETATM   21  N5  UNL     1      14.656  24.386  18.142  1.00  0.00    -0.389 N 
HETATM   22  C13 UNL     1      14.588  23.884  15.773  1.00  0.00     0.081 C 
ATOM     23  H52 UNL     1      14.580  24.145  19.130  1.00  0.00     0.157 HD
ATOM     24  H51 UNL     1      14.879  25.358  17.931  1.00  0.00     0.157 HD
HETATM   25  C14 UNL     1      13.259  23.547  15.160  1.00  0.00     0.048 C 
HETATM   26  C15 UNL     1      12.972  22.108  15.373  1.00  0.00    -0.029 A 
HETATM   27  C16 UNL     1      12.235  21.426  14.397  1.00  0.00     0.038 A 
HETATM   28  C25 UNL     1      13.396  21.494  16.546  1.00  0.00     0.042 A 
HETATM   29  C17 UNL     1      11.891  20.115  14.545  1.00  0.00     0.030 A 
HETATM   30  C23 UNL     1      12.317  19.496  15.722  1.00  0.00     0.031 A 
HETATM   31  C24 UNL     1      13.044  20.162  16.689  1.00  0.00     0.032 A 
BRANCH  29  32
HETATM   32  N6  UNL     1      11.105  19.411  13.598  1.00  0.00    -0.381 N 
HETATM   33  C18 UNL     1       9.718  19.749  13.420  1.00  0.00     0.123 C 
HETATM   34  C19 UNL     1       9.285  19.814  11.978  1.00  0.00     0.020 C 
HETATM   35  C20 UNL     1      10.399  19.430  11.048  1.00  0.00     0.003 C 
HETATM   36  C21 UNL     1      10.989  18.133  11.500  1.00  0.00     0.020 C 
HETATM   37  C22 UNL     1      11.707  18.356  12.822  1.00  0.00     0.123 C 
ENDBRANCH  29  32
ENDBRANCH  18  19
ENDBRANCH  17  18
ENDBRANCH   1  17
BRANCH   1  38
HETATM   38  C26 UNL     1      18.009  21.466  19.217  1.00  0.00     0.131 C 
BRANCH  38  39
HETATM   39  C27 UNL     1      17.994  22.506  20.248  1.00  0.00     0.007 C 
HETATM   40  C28 UNL     1      19.428  22.655  20.787  1.00  0.00     0.034 C 
HETATM   41  C29 UNL     1      20.261  23.374  19.773  1.00  0.00     0.232 C 
HETATM   42  N7  UNL     1      19.760  24.731  19.548  1.00  0.00    -0.075 N 
HETATM   43  C30 UNL     1      18.414  24.673  18.989  1.00  0.00     0.232 C 
ATOM     44  H72 UNL     1      19.801  25.300  20.394  1.00  0.00     0.277 HD
ATOM     45  H71 UNL     1      20.394  25.282  18.968  1.00  0.00     0.277 HD
HETATM   46  C31 UNL     1      17.562  23.890  19.939  1.00  0.00     0.034 C 
ENDBRANCH  38  39
ENDBRANCH   1  38
TORSDOF 13
ENDMDL
MODEL 5
REMARK VINA RESULT: -9.407386701      2.398      7.860
REMARK  13 active torsions:
REMARK  status: ('A' for Active; 'I' for Inactive)
REMARK    1  A    between atoms: C2_2  and  C3_3 
REMARK    2  A    between atoms: C3_3  and  O1_4 
REMARK    3  A    between atoms: O1_4  and  C4_5 
REMARK       I    between atoms: C4_5  and  N1_7 
REMARK    4  A    between atoms: N2_10  and  C7_11 
REMARK    5  A    between atoms: C7_11  and  C8_12 
REMARK    6  A    between atoms: C8_12  and  C9_13 
REMARK    7  A    between atoms: C9_13  and  N3_14 
REMARK    8  A    between atoms: N3_14  and  C10_15 
REMARK    9  A    between atoms: N3_14  and  C26_36 
REMARK   10  A    between atoms: C10_15  and  C11_16 
REMARK   11  A    between atoms: C11_16  and  N4_17 
REMARK   12  A    between atoms: C17_26  and  N6_27 
REMARK   13  A    between atoms: C26_36  and  C27_37 
ROOT
HETATM    1  N3  UNL     1      16.971  21.594  18.426  1.00  0.00    -0.372 N 
ENDROOT
BRANCH   1   2
HETATM    2  C9  UNL     1      17.323  21.282  17.101  1.00  0.00     0.065 C 
BRANCH   2   3
HETATM    3  C8  UNL     1      18.286  22.265  16.463  1.00  0.00     0.075 C 
BRANCH   3   4
HETATM    4  C7  UNL     1      17.628  23.230  15.560  1.00  0.00     0.277 C 
BRANCH   4   5
HETATM    5  N2  UNL     1      18.435  24.360  15.130  1.00  0.00     0.091 N 
HETATM    6  C6  UNL     1      17.788  25.600  15.354  1.00  0.00     0.292 C 
HETATM    7  C5  UNL     1      18.696  26.673  15.860  1.00  0.00     0.158 C 
HETATM    8  N1  UNL     1      19.990  26.637  15.227  1.00  0.00    -0.325 N 
HETATM    9  C4  UNL     1      20.682  27.831  14.924  1.00  0.00     0.363 C 
HETATM   10  C33 UNL     1      20.611  25.359  14.891  1.00  0.00     0.158 C 
HETATM   11  O2  UNL     1      20.194  28.981  15.186  1.00  0.00    -0.238 OA
HETATM   12  C32 UNL     1      19.796  24.247  15.574  1.00  0.00     0.292 C 
BRANCH   9  13
HETATM   13  O1  UNL     1      21.951  27.846  14.317  1.00  0.00    -0.300 OA
BRANCH  13  14
HETATM   14  C3  UNL     1      22.980  28.686  14.829  1.00  0.00     0.207 C 
BRANCH  14  15
HETATM   15  C2  UNL     1      23.552  28.044  16.037  1.00  0.00    -0.011 C 
HETATM   16  C1  UNL     1      24.164  26.881  15.930  1.00  0.00     0.009 C 
ENDBRANCH  14  15
ENDBRANCH  13  14
ENDBRANCH   9  13
ENDBRANCH   4   5
ENDBRANCH   3   4
ENDBRANCH   2   3
ENDBRANCH   1   2
BRANCH   1  17
HETATM   17  C10 UNL     1      15.773  21.068  18.915  1.00  0.00     0.083 C 
BRANCH  17  18
HETATM   18  C11 UNL     1      14.527  21.963  18.724  1.00  0.00     0.175 C 
BRANCH  18  19
HETATM   19  N4  UNL     1      13.885  21.736  17.470  1.00  0.00    -0.332 N 
HETATM   20  C12 UNL     1      14.023  22.639  16.371  1.00  0.00     0.077 C 
HETATM   21  N5  UNL     1      14.286  23.859  16.533  1.00  0.00    -0.389 N 
HETATM   22  C13 UNL     1      13.843  22.044  14.990  1.00  0.00     0.081 C 
ATOM     23  H52 UNL     1      14.408  24.259  17.463  1.00  0.00     0.157 HD
ATOM     24  H51 UNL     1      14.384  24.503  15.749  1.00  0.00     0.157 HD
HETATM   25  C14 UNL     1      12.460  21.458  14.968  1.00  0.00     0.048 C 
HETATM   26  C15 UNL     1      12.340  20.444  16.043  1.00  0.00    -0.029 A 
HETATM   27  C16 UNL     1      11.504  19.342  15.827  1.00  0.00     0.038 A 
HETATM   28  C25 UNL     1      13.018  20.636  17.242  1.00  0.00     0.042 A 
HETATM   29  C17 UNL     1      11.306  18.393  16.785  1.00  0.00     0.030 A 
HETATM   30  C23 UNL     1      11.985  18.584  17.990  1.00  0.00     0.031 A 
HETATM   31  C24 UNL     1      12.813  19.668  18.210  1.00  0.00     0.032 A 
BRANCH  29  32
HETATM   32  N6  UNL     1      10.428  17.292  16.614  1.00  0.00    -0.381 N 
HETATM   33  C18 UNL     1      10.209  16.744  15.302  1.00  0.00     0.123 C 
HETATM   34  C19 UNL     1      10.214  15.237  15.262  1.00  0.00     0.020 C 
HETATM   35  C20 UNL     1      10.372  14.647  16.634  1.00  0.00     0.003 C 
HETATM   36  C21 UNL     1       9.379  15.277  17.554  1.00  0.00     0.020 C 
HETATM   37  C22 UNL     1       9.759  16.736  17.762  1.00  0.00     0.123 C 
ENDBRANCH  29  32
ENDBRANCH  18  19
ENDBRANCH  17  18
ENDBRANCH   1  17
BRANCH   1  38
HETATM   38  C26 UNL     1      18.043  21.585  19.373  1.00  0.00     0.131 C 
BRANCH  38  39
HETATM   39  C27 UNL     1      18.133  22.655  20.369  1.00  0.00     0.007 C 
HETATM   40  C28 UNL     1      19.600  22.753  20.823  1.00  0.00     0.034 C 
HETATM   41  C29 UNL     1      20.406  23.400  19.742  1.00  0.00     0.232 C 
HETATM   42  N7  UNL     1      19.956  24.772  19.500  1.00  0.00    -0.075 N 
HETATM   43  C30 UNL     1      18.578  24.761  19.019  1.00  0.00     0.232 C 
ATOM     44  H72 UNL     1      20.070  25.364  20.323  1.00  0.00     0.277 HD
ATOM     45  H71 UNL     1      20.579  25.275  18.869  1.00  0.00     0.277 HD
HETATM   46  C31 UNL     1      17.747  24.048  20.039  1.00  0.00     0.034 C 
ENDBRANCH  38  39
ENDBRANCH   1  38
TORSDOF 13
ENDMDL
