MODEL 1
REMARK VINA RESULT: -9.374140411      0.000      0.000
REMARK  13 active torsions:
REMARK  status: ('A' for Active; 'I' for Inactive)
REMARK    1  A    between atoms: C2_2  and  O1_3 
REMARK    2  A    between atoms: O1_3  and  C3_4 
REMARK       I    between atoms: C3_4  and  N1_6 
REMARK    3  A    between atoms: C6_9  and  N2_10 
REMARK       I    between atoms: N2_10  and  C7_11 
REMARK    4  A    between atoms: C7_11  and  C8_13 
REMARK    5  A    between atoms: C8_13  and  C9_15 
REMARK    6  A    between atoms: C9_15  and  C10_16 
REMARK    7  A    between atoms: C9_15  and  N3_18 
REMARK       I    between atoms: N3_18  and  C12_20 
REMARK    8  A    between atoms: C12_20  and  C13_22 
REMARK    9  A    between atoms: C13_22  and  C14_23 
REMARK   10  A    between atoms: C14_23  and  C15_24 
REMARK   11  A    between atoms: C15_24  and  C16_25 
REMARK   12  A    between atoms: C16_25  and  N4_26 
REMARK   13  A    between atoms: C17_31  and  C18_32 
ROOT
HETATM    1  N3  UNL     1      14.546  20.364  15.671  1.00  0.00    -0.349 N 
ATOM      2  H3  UNL     1      15.420  19.849  15.563  1.00  0.00     0.163 HD
HETATM    3  C12 UNL     1      13.695  20.106  16.731  1.00  0.00     0.218 C 
HETATM    4  O5  UNL     1      12.575  20.750  16.779  1.00  0.00    -0.274 OA
ENDROOT
BRANCH   3   5
HETATM    5  C13 UNL     1      13.946  19.185  17.811  1.00  0.00     0.103 C 
BRANCH   5   6
HETATM    6  C14 UNL     1      14.603  19.733  19.036  1.00  0.00     0.014 C 
BRANCH   6   7
HETATM    7  C15 UNL     1      15.717  20.679  18.607  1.00  0.00     0.047 C 
BRANCH   7   8
HETATM    8  C16 UNL     1      15.718  21.938  19.321  1.00  0.00     0.090 C 
BRANCH   8   9
HETATM    9  N4  UNL     1      16.749  22.904  19.296  1.00  0.00    -0.260 N 
HETATM   10  N5  UNL     1      16.458  24.221  18.950  1.00  0.00    -0.236 N 
HETATM   11  N6  UNL     1      17.521  24.935  19.111  1.00  0.00    -0.287 N 
ATOM     12  H5  UNL     1      15.555  24.564  18.623  1.00  0.00     0.209 HD
HETATM   13  C17 UNL     1      18.580  24.169  19.571  1.00  0.00     0.060 A 
ATOM     14  H6  UNL     1      17.574  25.936  18.924  1.00  0.00     0.188 HD
HETATM   15  C28 UNL     1      18.009  22.925  19.652  1.00  0.00     0.055 A 
HETATM   16  C29 UNL     1      18.823  21.736  20.071  1.00  0.00     0.072 C 
BRANCH  13  17
HETATM   17  C18 UNL     1      19.885  24.768  19.896  1.00  0.00     0.007 C 
HETATM   18  C19 UNL     1      20.050  25.894  18.847  1.00  0.00     0.020 C 
HETATM   19  C20 UNL     1      21.255  26.720  19.010  1.00  0.00    -0.013 C 
HETATM   20  C21 UNL     1      22.470  25.813  18.884  1.00  0.00     0.009 C 
HETATM   21  C25 UNL     1      21.173  27.364  20.383  1.00  0.00     0.009 C 
HETATM   22  C22 UNL     1      22.326  24.674  19.876  1.00  0.00    -0.013 C 
HETATM   23  C23 UNL     1      22.397  25.332  21.245  1.00  0.00     0.009 C 
HETATM   24  C27 UNL     1      21.072  23.867  19.678  1.00  0.00     0.020 C 
HETATM   25  C24 UNL     1      21.200  26.262  21.378  1.00  0.00    -0.013 C 
HETATM   26  C26 UNL     1      19.977  25.339  21.284  1.00  0.00     0.020 C 
ENDBRANCH  13  17
ENDBRANCH   8   9
ENDBRANCH   7   8
ENDBRANCH   6   7
ENDBRANCH   5   6
ENDBRANCH   3   5
BRANCH   1  27
HETATM   27  C9  UNL     1      14.141  21.434  14.672  1.00  0.00     0.165 C 
BRANCH  27  28
HETATM   28  C8  UNL     1      15.189  22.424  14.689  1.00  0.00     0.253 C 
HETATM   29  O4  UNL     1      16.028  22.536  13.720  1.00  0.00    -0.284 OA
BRANCH  28  30
HETATM   30  C7  UNL     1      15.431  23.409  15.819  1.00  0.00     0.359 C 
HETATM   31  N2  UNL     1      16.639  24.023  15.841  1.00  0.00    -0.403 NA
HETATM   32  O3  UNL     1      14.465  23.519  16.594  1.00  0.00    -0.248 OA
BRANCH  31  33
HETATM   33  C6  UNL     1      17.874  24.653  15.869  1.00  0.00     0.170 C 
HETATM   34  C5  UNL     1      17.994  25.752  14.820  1.00  0.00     0.059 C 
HETATM   35  C4  UNL     1      19.098  26.653  15.306  1.00  0.00     0.131 C 
HETATM   36  N1  UNL     1      20.318  25.824  15.260  1.00  0.00    -0.328 N 
HETATM   37  C3  UNL     1      21.543  26.448  15.378  1.00  0.00     0.362 C 
HETATM   38  C31 UNL     1      20.236  24.383  15.101  1.00  0.00     0.131 C 
HETATM   39  O2  UNL     1      22.697  26.093  15.342  1.00  0.00    -0.238 OA
HETATM   40  C30 UNL     1      19.075  23.764  15.862  1.00  0.00     0.059 C 
BRANCH  37  41
HETATM   41  O1  UNL     1      21.451  27.920  15.608  1.00  0.00    -0.304 OA
BRANCH  41  42
HETATM   42  C2  UNL     1      22.251  28.700  14.725  1.00  0.00     0.176 C 
HETATM   43  C1  UNL     1      21.483  28.720  13.407  1.00  0.00     0.034 C 
ENDBRANCH  41  42
ENDBRANCH  37  41
ENDBRANCH  31  33
ENDBRANCH  28  30
ENDBRANCH  27  28
BRANCH  27  44
HETATM   44  C10 UNL     1      14.093  20.614  13.359  1.00  0.00     0.029 C 
HETATM   45  C11 UNL     1      12.796  19.888  13.276  1.00  0.00     0.007 C 
ENDBRANCH  27  44
ENDBRANCH   1  27
TORSDOF 13
ENDMDL
MODEL 2
REMARK VINA RESULT: -9.193370404      3.066      6.304
REMARK  13 active torsions:
REMARK  status: ('A' for Active; 'I' for Inactive)
REMARK    1  A    between atoms: C2_2  and  O1_3 
REMARK    2  A    between atoms: O1_3  and  C3_4 
REMARK       I    between atoms: C3_4  and  N1_6 
REMARK    3  A    between atoms: C6_9  and  N2_10 
REMARK       I    between atoms: N2_10  and  C7_11 
REMARK    4  A    between atoms: C7_11  and  C8_13 
REMARK    5  A    between atoms: C8_13  and  C9_15 
REMARK    6  A    between atoms: C9_15  and  C10_16 
REMARK    7  A    between atoms: C9_15  and  N3_18 
REMARK       I    between atoms: N3_18  and  C12_20 
REMARK    8  A    between atoms: C12_20  and  C13_22 
REMARK    9  A    between atoms: C13_22  and  C14_23 
REMARK   10  A    between atoms: C14_23  and  C15_24 
REMARK   11  A    between atoms: C15_24  and  C16_25 
REMARK   12  A    between atoms: C16_25  and  N4_26 
REMARK   13  A    between atoms: C17_31  and  C18_32 
ROOT
HETATM    1  N3  UNL     1       9.830  18.466  16.631  1.00  0.00    -0.349 N 
ATOM      2  H3  UNL     1       9.249  18.920  17.335  1.00  0.00     0.163 HD
HETATM    3  C12 UNL     1      10.201  19.132  15.477  1.00  0.00     0.218 C 
HETATM    4  O5  UNL     1      10.890  18.482  14.596  1.00  0.00    -0.274 OA
ENDROOT
BRANCH   3   5
HETATM    5  C13 UNL     1       9.902  20.506  15.161  1.00  0.00     0.103 C 
BRANCH   5   6
HETATM    6  C14 UNL     1      10.778  21.182  14.157  1.00  0.00     0.014 C 
BRANCH   6   7
HETATM    7  C15 UNL     1      11.552  22.292  14.856  1.00  0.00     0.047 C 
BRANCH   7   8
HETATM    8  C16 UNL     1      12.892  21.911  15.246  1.00  0.00     0.090 C 
BRANCH   8   9
HETATM    9  N4  UNL     1      13.955  22.797  15.535  1.00  0.00    -0.260 N 
HETATM   10  N5  UNL     1      13.872  23.644  16.635  1.00  0.00    -0.236 N 
HETATM   11  N6  UNL     1      14.995  24.266  16.765  1.00  0.00    -0.287 N 
ATOM     12  H5  UNL     1      13.057  23.756  17.239  1.00  0.00     0.209 HD
HETATM   13  C17 UNL     1      15.898  23.887  15.784  1.00  0.00     0.060 A 
ATOM     14  H6  UNL     1      15.193  24.949  17.495  1.00  0.00     0.188 HD
HETATM   15  C28 UNL     1      15.165  22.977  15.067  1.00  0.00     0.055 A 
HETATM   16  C29 UNL     1      15.741  22.323  13.845  1.00  0.00     0.072 C 
BRANCH  13  17
HETATM   17  C18 UNL     1      17.275  24.406  15.756  1.00  0.00     0.007 C 
HETATM   18  C19 UNL     1      17.405  25.187  17.088  1.00  0.00     0.020 C 
HETATM   19  C20 UNL     1      18.741  25.741  17.352  1.00  0.00    -0.013 C 
HETATM   20  C21 UNL     1      19.079  26.713  16.231  1.00  0.00     0.009 C 
HETATM   21  C25 UNL     1      19.709  24.572  17.395  1.00  0.00     0.009 C 
HETATM   22  C22 UNL     1      18.928  25.991  14.905  1.00  0.00    -0.013 C 
HETATM   23  C23 UNL     1      20.009  24.921  14.913  1.00  0.00     0.009 C 
HETATM   24  C27 UNL     1      17.549  25.429  14.687  1.00  0.00     0.020 C 
HETATM   25  C24 UNL     1      19.698  23.953  16.045  1.00  0.00    -0.013 C 
HETATM   26  C26 UNL     1      18.338  23.345  15.676  1.00  0.00     0.020 C 
ENDBRANCH  13  17
ENDBRANCH   8   9
ENDBRANCH   7   8
ENDBRANCH   6   7
ENDBRANCH   5   6
ENDBRANCH   3   5
BRANCH   1  27
HETATM   27  C9  UNL     1      10.313  17.039  16.820  1.00  0.00     0.165 C 
BRANCH  27  28
HETATM   28  C8  UNL     1      11.369  17.093  17.801  1.00  0.00     0.253 C 
HETATM   29  O4  UNL     1      12.316  16.222  17.823  1.00  0.00    -0.284 OA
BRANCH  28  30
HETATM   30  C7  UNL     1      11.480  18.139  18.896  1.00  0.00     0.359 C 
HETATM   31  N2  UNL     1      12.658  18.802  18.986  1.00  0.00    -0.403 NA
HETATM   32  O3  UNL     1      10.450  18.244  19.584  1.00  0.00    -0.248 OA
BRANCH  31  33
HETATM   33  C6  UNL     1      13.862  19.484  19.081  1.00  0.00     0.170 C 
HETATM   34  C5  UNL     1      13.727  20.962  18.735  1.00  0.00     0.059 C 
HETATM   35  C4  UNL     1      14.910  21.634  19.379  1.00  0.00     0.131 C 
HETATM   36  N1  UNL     1      16.089  21.093  18.675  1.00  0.00    -0.328 N 
HETATM   37  C3  UNL     1      17.305  21.724  18.846  1.00  0.00     0.362 C 
HETATM   38  C31 UNL     1      15.979  19.919  17.827  1.00  0.00     0.131 C 
HETATM   39  O2  UNL     1      18.420  21.577  18.404  1.00  0.00    -0.238 OA
HETATM   40  C30 UNL     1      15.032  18.869  18.384  1.00  0.00     0.059 C 
BRANCH  37  41
HETATM   41  O1  UNL     1      17.263  22.867  19.804  1.00  0.00    -0.304 OA
BRANCH  41  42
HETATM   42  C2  UNL     1      18.466  23.054  20.542  1.00  0.00     0.176 C 
HETATM   43  C1  UNL     1      18.470  24.531  20.927  1.00  0.00     0.034 C 
ENDBRANCH  41  42
ENDBRANCH  37  41
ENDBRANCH  31  33
ENDBRANCH  28  30
ENDBRANCH  27  28
BRANCH  27  44
HETATM   44  C10 UNL     1       9.026  16.355  17.343  1.00  0.00     0.029 C 
HETATM   45  C11 UNL     1       8.376  15.607  16.231  1.00  0.00     0.007 C 
ENDBRANCH  27  44
ENDBRANCH   1  27
TORSDOF 13
ENDMDL
MODEL 3
REMARK VINA RESULT: -9.095889331      3.446      7.901
REMARK  13 active torsions:
REMARK  status: ('A' for Active; 'I' for Inactive)
REMARK    1  A    between atoms: C2_2  and  O1_3 
REMARK    2  A    between atoms: O1_3  and  C3_4 
REMARK       I    between atoms: C3_4  and  N1_6 
REMARK    3  A    between atoms: C6_9  and  N2_10 
REMARK       I    between atoms: N2_10  and  C7_11 
REMARK    4  A    between atoms: C7_11  and  C8_13 
REMARK    5  A    between atoms: C8_13  and  C9_15 
REMARK    6  A    between atoms: C9_15  and  C10_16 
REMARK    7  A    between atoms: C9_15  and  N3_18 
REMARK       I    between atoms: N3_18  and  C12_20 
REMARK    8  A    between atoms: C12_20  and  C13_22 
REMARK    9  A    between atoms: C13_22  and  C14_23 
REMARK   10  A    between atoms: C14_23  and  C15_24 
REMARK   11  A    between atoms: C15_24  and  C16_25 
REMARK   12  A    between atoms: C16_25  and  N4_26 
REMARK   13  A    between atoms: C17_31  and  C18_32 
ROOT
HETATM    1  N3  UNL     1      13.313  18.953  17.498  1.00  0.00    -0.349 N 
ATOM      2  H3  UNL     1      13.425  18.093  16.960  1.00  0.00     0.163 HD
HETATM    3  C12 UNL     1      13.452  20.192  16.897  1.00  0.00     0.218 C 
HETATM    4  O5  UNL     1      13.356  21.242  17.645  1.00  0.00    -0.274 OA
ENDROOT
BRANCH   3   5
HETATM    5  C13 UNL     1      13.685  20.429  15.495  1.00  0.00     0.103 C 
BRANCH   5   6
HETATM    6  C14 UNL     1      14.921  21.182  15.126  1.00  0.00     0.014 C 
BRANCH   6   7
HETATM    7  C15 UNL     1      14.512  22.481  14.444  1.00  0.00     0.047 C 
BRANCH   7   8
HETATM    8  C16 UNL     1      14.437  23.613  15.343  1.00  0.00     0.090 C 
BRANCH   8   9
HETATM    9  N4  UNL     1      15.285  23.851  16.448  1.00  0.00    -0.260 N 
HETATM   10  N5  UNL     1      14.742  23.994  17.721  1.00  0.00    -0.236 N 
HETATM   11  N6  UNL     1      15.706  24.082  18.575  1.00  0.00    -0.287 N 
ATOM     12  H5  UNL     1      13.746  24.023  17.943  1.00  0.00     0.209 HD
HETATM   13  C17 UNL     1      16.941  24.003  17.952  1.00  0.00     0.060 A 
ATOM     14  H6  UNL     1      15.575  24.196  19.580  1.00  0.00     0.188 HD
HETATM   15  C28 UNL     1      16.581  23.864  16.636  1.00  0.00     0.055 A 
HETATM   16  C29 UNL     1      17.626  23.788  15.561  1.00  0.00     0.072 C 
BRANCH  13  17
HETATM   17  C18 UNL     1      18.198  24.013  18.719  1.00  0.00     0.007 C 
HETATM   18  C19 UNL     1      17.758  24.419  20.147  1.00  0.00     0.020 C 
HETATM   19  C20 UNL     1      18.834  24.416  21.149  1.00  0.00    -0.013 C 
HETATM   20  C21 UNL     1      19.893  25.416  20.708  1.00  0.00     0.009 C 
HETATM   21  C25 UNL     1      19.385  23.002  21.210  1.00  0.00     0.009 C 
HETATM   22  C22 UNL     1      20.323  25.069  19.294  1.00  0.00    -0.013 C 
HETATM   23  C23 UNL     1      21.005  23.715  19.411  1.00  0.00     0.009 C 
HETATM   24  C27 UNL     1      19.187  25.071  18.309  1.00  0.00     0.020 C 
HETATM   25  C24 UNL     1      19.963  22.707  19.875  1.00  0.00    -0.013 C 
HETATM   26  C26 UNL     1      18.912  22.690  18.757  1.00  0.00     0.020 C 
ENDBRANCH  13  17
ENDBRANCH   8   9
ENDBRANCH   7   8
ENDBRANCH   6   7
ENDBRANCH   5   6
ENDBRANCH   3   5
BRANCH   1  27
HETATM   27  C9  UNL     1      12.988  18.910  18.980  1.00  0.00     0.165 C 
BRANCH  27  28
HETATM   28  C8  UNL     1      11.646  18.391  19.088  1.00  0.00     0.253 C 
HETATM   29  O4  UNL     1      10.927  18.589  20.136  1.00  0.00    -0.284 OA
BRANCH  28  30
HETATM   30  C7  UNL     1      10.949  17.566  18.020  1.00  0.00     0.359 C 
HETATM   31  N2  UNL     1      10.411  18.248  16.980  1.00  0.00    -0.403 NA
HETATM   32  O3  UNL     1      10.962  16.345  18.253  1.00  0.00    -0.248 OA
BRANCH  31  33
HETATM   33  C6  UNL     1       9.859  18.942  15.914  1.00  0.00     0.170 C 
HETATM   34  C5  UNL     1      10.681  18.806  14.638  1.00  0.00     0.059 C 
HETATM   35  C4  UNL     1       9.732  19.125  13.514  1.00  0.00     0.131 C 
HETATM   36  N1  UNL     1       9.383  20.546  13.698  1.00  0.00    -0.328 N 
HETATM   37  C3  UNL     1       8.751  21.209  12.664  1.00  0.00     0.362 C 
HETATM   38  C31 UNL     1       9.689  21.236  14.939  1.00  0.00     0.131 C 
HETATM   39  O2  UNL     1       8.376  22.340  12.470  1.00  0.00    -0.238 OA
HETATM   40  C30 UNL     1       9.486  20.367  16.169  1.00  0.00     0.059 C 
BRANCH  37  41
HETATM   41  O1  UNL     1       8.444  20.341  11.490  1.00  0.00    -0.304 OA
BRANCH  41  42
HETATM   42  C2  UNL     1       7.686  20.986  10.471  1.00  0.00     0.176 C 
HETATM   43  C1  UNL     1       8.432  20.687   9.173  1.00  0.00     0.034 C 
ENDBRANCH  41  42
ENDBRANCH  37  41
ENDBRANCH  31  33
ENDBRANCH  28  30
ENDBRANCH  27  28
BRANCH  27  44
HETATM   44  C10 UNL     1      14.067  17.925  19.494  1.00  0.00     0.029 C 
HETATM   45  C11 UNL     1      14.635  17.169  18.344  1.00  0.00     0.007 C 
ENDBRANCH  27  44
ENDBRANCH   1  27
TORSDOF 13
ENDMDL
MODEL 4
REMARK VINA RESULT: -9.018213622      2.056      3.851
REMARK  13 active torsions:
REMARK  status: ('A' for Active; 'I' for Inactive)
REMARK    1  A    between atoms: C2_2  and  O1_3 
REMARK    2  A    between atoms: O1_3  and  C3_4 
REMARK       I    between atoms: C3_4  and  N1_6 
REMARK    3  A    between atoms: C6_9  and  N2_10 
REMARK       I    between atoms: N2_10  and  C7_11 
REMARK    4  A    between atoms: C7_11  and  C8_13 
REMARK    5  A    between atoms: C8_13  and  C9_15 
REMARK    6  A    between atoms: C9_15  and  C10_16 
REMARK    7  A    between atoms: C9_15  and  N3_18 
REMARK       I    between atoms: N3_18  and  C12_20 
REMARK    8  A    between atoms: C12_20  and  C13_22 
REMARK    9  A    between atoms: C13_22  and  C14_23 
REMARK   10  A    between atoms: C14_23  and  C15_24 
REMARK   11  A    between atoms: C15_24  and  C16_25 
REMARK   12  A    between atoms: C16_25  and  N4_26 
REMARK   13  A    between atoms: C17_31  and  C18_32 
ROOT
HETATM    1  N3  UNL     1      12.200  18.642  16.584  1.00  0.00    -0.349 N 
ATOM      2  H3  UNL     1      12.621  17.926  15.993  1.00  0.00     0.163 HD
HETATM    3  C12 UNL     1      12.942  19.291  17.555  1.00  0.00     0.218 C 
HETATM    4  O5  UNL     1      12.334  20.147  18.311  1.00  0.00    -0.274 OA
ENDROOT
BRANCH   3   5
HETATM    5  C13 UNL     1      14.350  19.113  17.801  1.00  0.00     0.103 C 
BRANCH   5   6
HETATM    6  C14 UNL     1      14.932  19.824  18.979  1.00  0.00     0.014 C 
BRANCH   6   7
HETATM    7  C15 UNL     1      15.898  20.889  18.476  1.00  0.00     0.047 C 
BRANCH   7   8
HETATM    8  C16 UNL     1      16.016  22.031  19.357  1.00  0.00     0.090 C 
BRANCH   8   9
HETATM    9  N4  UNL     1      17.037  23.007  19.315  1.00  0.00    -0.260 N 
HETATM   10  N5  UNL     1      16.735  24.311  18.932  1.00  0.00    -0.236 N 
HETATM   11  N6  UNL     1      17.787  25.041  19.083  1.00  0.00    -0.287 N 
ATOM     12  H5  UNL     1      15.830  24.635  18.588  1.00  0.00     0.209 HD
HETATM   13  C17 UNL     1      18.851  24.299  19.573  1.00  0.00     0.060 A 
ATOM     14  H6  UNL     1      17.831  26.038  18.870  1.00  0.00     0.188 HD
HETATM   15  C28 UNL     1      18.293  23.051  19.682  1.00  0.00     0.055 A 
HETATM   16  C29 UNL     1      19.116  21.883  20.141  1.00  0.00     0.072 C 
BRANCH  13  17
HETATM   17  C18 UNL     1      20.146  24.921  19.895  1.00  0.00     0.007 C 
HETATM   18  C19 UNL     1      20.243  26.111  18.908  1.00  0.00     0.020 C 
HETATM   19  C20 UNL     1      21.426  26.965  19.084  1.00  0.00    -0.013 C 
HETATM   20  C21 UNL     1      22.664  26.107  18.869  1.00  0.00     0.009 C 
HETATM   21  C25 UNL     1      21.367  27.526  20.494  1.00  0.00     0.009 C 
HETATM   22  C22 UNL     1      22.587  24.909  19.797  1.00  0.00    -0.013 C 
HETATM   23  C23 UNL     1      22.680  25.489  21.199  1.00  0.00     0.009 C 
HETATM   24  C27 UNL     1      21.353  24.074  19.589  1.00  0.00     0.020 C 
HETATM   25  C24 UNL     1      21.459  26.371  21.421  1.00  0.00    -0.013 C 
HETATM   26  C26 UNL     1      20.264  25.415  21.310  1.00  0.00     0.020 C 
ENDBRANCH  13  17
ENDBRANCH   8   9
ENDBRANCH   7   8
ENDBRANCH   6   7
ENDBRANCH   5   6
ENDBRANCH   3   5
BRANCH   1  27
HETATM   27  C9  UNL     1      10.740  19.027  16.423  1.00  0.00     0.165 C 
BRANCH  27  28
HETATM   28  C8  UNL     1      10.633  19.697  15.150  1.00  0.00     0.253 C 
HETATM   29  O4  UNL     1       9.535  20.248  14.767  1.00  0.00    -0.284 OA
BRANCH  28  30
HETATM   30  C7  UNL     1      11.759  19.817  14.138  1.00  0.00     0.359 C 
HETATM   31  N2  UNL     1      12.662  20.806  14.348  1.00  0.00    -0.403 NA
HETATM   32  O3  UNL     1      11.696  18.973  13.228  1.00  0.00    -0.248 OA
BRANCH  31  33
HETATM   33  C6  UNL     1      13.587  21.816  14.559  1.00  0.00     0.170 C 
HETATM   34  C5  UNL     1      14.971  21.280  14.904  1.00  0.00     0.059 C 
HETATM   35  C4  UNL     1      15.927  22.396  14.577  1.00  0.00     0.131 C 
HETATM   36  N1  UNL     1      15.593  23.477  15.523  1.00  0.00    -0.328 N 
HETATM   37  C3  UNL     1      16.478  24.528  15.663  1.00  0.00     0.362 C 
HETATM   38  C31 UNL     1      14.360  23.445  16.289  1.00  0.00     0.131 C 
HETATM   39  O2  UNL     1      16.536  25.519  16.351  1.00  0.00    -0.238 OA
HETATM   40  C30 UNL     1      13.180  22.907  15.496  1.00  0.00     0.059 C 
BRANCH  37  41
HETATM   41  O1  UNL     1      17.659  24.447  14.753  1.00  0.00    -0.304 OA
BRANCH  41  42
HETATM   42  C2  UNL     1      18.844  25.032  15.283  1.00  0.00     0.176 C 
HETATM   43  C1  UNL     1      19.554  23.897  16.016  1.00  0.00     0.034 C 
ENDBRANCH  41  42
ENDBRANCH  37  41
ENDBRANCH  31  33
ENDBRANCH  28  30
ENDBRANCH  27  28
BRANCH  27  44
HETATM   44  C10 UNL     1      10.060  17.635  16.441  1.00  0.00     0.029 C 
HETATM   45  C11 UNL     1      10.001  17.132  17.841  1.00  0.00     0.007 C 
ENDBRANCH  27  44
ENDBRANCH   1  27
TORSDOF 13
ENDMDL
MODEL 5
REMARK VINA RESULT: -8.860494635      3.509      7.467
REMARK  13 active torsions:
REMARK  status: ('A' for Active; 'I' for Inactive)
REMARK    1  A    between atoms: C2_2  and  O1_3 
REMARK    2  A    between atoms: O1_3  and  C3_4 
REMARK       I    between atoms: C3_4  and  N1_6 
REMARK    3  A    between atoms: C6_9  and  N2_10 
REMARK       I    between atoms: N2_10  and  C7_11 
REMARK    4  A    between atoms: C7_11  and  C8_13 
REMARK    5  A    between atoms: C8_13  and  C9_15 
REMARK    6  A    between atoms: C9_15  and  C10_16 
REMARK    7  A    between atoms: C9_15  and  N3_18 
REMARK       I    between atoms: N3_18  and  C12_20 
REMARK    8  A    between atoms: C12_20  and  C13_22 
REMARK    9  A    between atoms: C13_22  and  C14_23 
REMARK   10  A    between atoms: C14_23  and  C15_24 
REMARK   11  A    between atoms: C15_24  and  C16_25 
REMARK   12  A    between atoms: C16_25  and  N4_26 
REMARK   13  A    between atoms: C17_31  and  C18_32 
ROOT
HETATM    1  N3  UNL     1       9.711  17.048  14.885  1.00  0.00    -0.349 N 
ATOM      2  H3  UNL     1       9.160  17.385  15.674  1.00  0.00     0.163 HD
HETATM    3  C12 UNL     1      10.461  17.920  14.116  1.00  0.00     0.218 C 
HETATM    4  O5  UNL     1      11.090  17.439  13.094  1.00  0.00    -0.274 OA
ENDROOT
BRANCH   3   5
HETATM    5  C13 UNL     1      10.623  19.332  14.355  1.00  0.00     0.103 C 
BRANCH   5   6
HETATM    6  C14 UNL     1      11.763  20.014  13.671  1.00  0.00     0.014 C 
BRANCH   6   7
HETATM    7  C15 UNL     1      12.748  20.492  14.729  1.00  0.00     0.047 C 
BRANCH   7   8
HETATM    8  C16 UNL     1      12.678  21.914  14.990  1.00  0.00     0.090 C 
BRANCH   8   9
HETATM    9  N4  UNL     1      13.757  22.739  15.380  1.00  0.00    -0.260 N 
HETATM   10  N5  UNL     1      13.648  23.529  16.520  1.00  0.00    -0.236 N 
HETATM   11  N6  UNL     1      14.785  24.097  16.741  1.00  0.00    -0.287 N 
ATOM     12  H5  UNL     1      12.807  23.642  17.088  1.00  0.00     0.209 HD
HETATM   13  C17 UNL     1      15.724  23.734  15.788  1.00  0.00     0.060 A 
ATOM     14  H6  UNL     1      14.970  24.732  17.517  1.00  0.00     0.188 HD
HETATM   15  C28 UNL     1      14.995  22.894  14.985  1.00  0.00     0.055 A 
HETATM   16  C29 UNL     1      15.610  22.283  13.760  1.00  0.00     0.072 C 
BRANCH  13  17
HETATM   17  C18 UNL     1      17.119  24.198  15.859  1.00  0.00     0.007 C 
HETATM   18  C19 UNL     1      17.180  24.994  17.185  1.00  0.00     0.020 C 
HETATM   19  C20 UNL     1      18.513  25.499  17.544  1.00  0.00    -0.013 C 
HETATM   20  C21 UNL     1      18.974  26.439  16.439  1.00  0.00     0.009 C 
HETATM   21  C25 UNL     1      19.427  24.294  17.676  1.00  0.00     0.009 C 
HETATM   22  C22 UNL     1      18.895  25.701  15.115  1.00  0.00    -0.013 C 
HETATM   23  C23 UNL     1      19.928  24.590  15.220  1.00  0.00     0.009 C 
HETATM   24  C27 UNL     1      17.515  25.192  14.799  1.00  0.00     0.020 C 
HETATM   25  C24 UNL     1      19.492  23.653  16.338  1.00  0.00    -0.013 C 
HETATM   26  C26 UNL     1      18.141  23.094  15.874  1.00  0.00     0.020 C 
ENDBRANCH  13  17
ENDBRANCH   8   9
ENDBRANCH   7   8
ENDBRANCH   6   7
ENDBRANCH   5   6
ENDBRANCH   3   5
BRANCH   1  27
HETATM   27  C9  UNL     1       9.731  15.574  14.520  1.00  0.00     0.165 C 
BRANCH  27  28
HETATM   28  C8  UNL     1      10.429  14.900  15.587  1.00  0.00     0.253 C 
HETATM   29  O4  UNL     1      11.052  13.791  15.392  1.00  0.00    -0.284 OA
BRANCH  28  30
HETATM   30  C7  UNL     1      10.498  15.392  17.022  1.00  0.00     0.359 C 
HETATM   31  N2  UNL     1      11.296  16.462  17.259  1.00  0.00    -0.403 NA
HETATM   32  O3  UNL     1       9.801  14.727  17.806  1.00  0.00    -0.248 OA
BRANCH  31  33
HETATM   33  C6  UNL     1      12.110  17.556  17.506  1.00  0.00     0.170 C 
HETATM   34  C5  UNL     1      13.090  17.311  18.647  1.00  0.00     0.059 C 
HETATM   35  C4  UNL     1      14.200  18.307  18.444  1.00  0.00     0.131 C 
HETATM   36  N1  UNL     1      13.573  19.628  18.640  1.00  0.00    -0.328 N 
HETATM   37  C3  UNL     1      14.390  20.729  18.796  1.00  0.00     0.362 C 
HETATM   38  C31 UNL     1      12.128  19.772  18.661  1.00  0.00     0.131 C 
HETATM   39  O2  UNL     1      14.218  21.905  19.009  1.00  0.00    -0.238 OA
HETATM   40  C30 UNL     1      11.425  18.876  17.655  1.00  0.00     0.059 C 
BRANCH  37  41
HETATM   41  O1  UNL     1      15.846  20.422  18.676  1.00  0.00    -0.304 OA
BRANCH  41  42
HETATM   42  C2  UNL     1      16.669  21.567  18.478  1.00  0.00     0.176 C 
HETATM   43  C1  UNL     1      17.756  21.463  19.543  1.00  0.00     0.034 C 
ENDBRANCH  41  42
ENDBRANCH  37  41
ENDBRANCH  31  33
ENDBRANCH  28  30
ENDBRANCH  27  28
BRANCH  27  44
HETATM   44  C10 UNL     1       8.216  15.255  14.482  1.00  0.00     0.029 C 
HETATM   45  C11 UNL     1       7.987  14.040  13.652  1.00  0.00     0.007 C 
ENDBRANCH  27  44
ENDBRANCH   1  27
TORSDOF 13
ENDMDL
