MODEL 1
REMARK VINA RESULT: -8.407341446      0.000      0.000
REMARK  12 active torsions:
REMARK  status: ('A' for Active; 'I' for Inactive)
REMARK    1  A    between atoms: C2_2  and  C3_4 
REMARK    2  A    between atoms: C4_6  and  C5_7 
REMARK    3  A    between atoms: C5_7  and  O1_8 
REMARK    4  A    between atoms: O1_8  and  C6_9 
REMARK    5  A    between atoms: C7_10  and  N1_11 
REMARK       I    between atoms: N1_11  and  C8_13 
REMARK    6  A    between atoms: C8_13  and  C9_15 
REMARK    7  A    between atoms: C9_15  and  C12_18 
REMARK    8  A    between atoms: C12_18  and  C13_19 
REMARK    9  A    between atoms: C13_19  and  N2_20 
REMARK   10  A    between atoms: C18_25  and  O3_26 
REMARK   11  A    between atoms: C19_28  and  O4_29 
REMARK   12  A    between atoms: C21_34  and  C22_35 
ROOT
HETATM    1  C6  UNL     1      -0.795 -33.899  25.783  1.00  0.00     0.128 A 
HETATM    2  C7  UNL     1      -1.983 -33.381  26.037  1.00  0.00     0.107 A 
HETATM    3  C18 UNL     1      -2.168 -32.480  27.184  1.00  0.00     0.131 A 
HETATM    4  C19 UNL     1      -1.125 -32.166  28.003  1.00  0.00     0.130 A 
HETATM    5  C20 UNL     1       0.120 -32.713  27.740  1.00  0.00     0.100 A 
HETATM    6  N3  UNL     1       1.292 -32.591  28.396  1.00  0.00    -0.334 N 
ATOM      7  H3  UNL     1       1.459 -32.031  29.232  1.00  0.00     0.167 HD
HETATM    8  C21 UNL     1       2.199 -33.339  27.748  1.00  0.00     0.191 A 
HETATM    9  N4  UNL     1       1.551 -33.907  26.706  1.00  0.00    -0.334 N 
ATOM     10  H4  UNL     1       1.982 -34.534  26.027  1.00  0.00     0.167 HD
HETATM   11  C23 UNL     1       0.267 -33.533  26.689  1.00  0.00     0.100 A 
ENDROOT
BRANCH   2  12
HETATM   12  N1  UNL     1      -3.239 -33.687  25.515  1.00  0.00    -0.321 N 
HETATM   13  C8  UNL     1      -4.159 -33.106  24.684  1.00  0.00     0.234 C 
HETATM   14  O2  UNL     1      -3.892 -32.044  24.059  1.00  0.00    -0.272 OA
ATOM     15  H1  UNL     1      -3.562 -34.597  25.843  1.00  0.00     0.169 HD
BRANCH  13  16
HETATM   16  C9  UNL     1      -5.546 -33.681  24.502  1.00  0.00     0.053 C 
HETATM   17  C10 UNL     1      -6.487 -32.449  24.638  1.00  0.00     0.029 C 
HETATM   18  C11 UNL     1      -5.735 -34.641  25.665  1.00  0.00     0.029 C 
BRANCH  16  19
HETATM   19  C12 UNL     1      -5.929 -34.341  23.301  1.00  0.00     0.008 C 
BRANCH  19  20
HETATM   20  C13 UNL     1      -7.176 -34.459  22.889  1.00  0.00     0.082 C 
BRANCH  20  21
HETATM   21  N2  UNL     1      -8.304 -35.108  23.362  1.00  0.00    -0.390 N 
HETATM   22  C14 UNL     1      -9.115 -35.007  24.522  1.00  0.00     0.122 C 
HETATM   23  C15 UNL     1      -9.160 -36.457  25.038  1.00  0.00     0.021 C 
HETATM   24  C16 UNL     1      -9.232 -37.238  23.744  1.00  0.00     0.021 C 
HETATM   25  C17 UNL     1      -8.982 -36.233  22.618  1.00  0.00     0.122 C 
ENDBRANCH  20  21
ENDBRANCH  19  20
ENDBRANCH  16  19
ENDBRANCH  13  16
ENDBRANCH   2  12
BRANCH   1  26
HETATM   26  O1  UNL     1      -0.397 -34.713  24.799  1.00  0.00    -0.343 OA
BRANCH  26  27
HETATM   27  C5  UNL     1      -0.963 -35.736  24.083  1.00  0.00     0.204 C 
BRANCH  27  28
HETATM   28  C4  UNL     1      -1.811 -35.224  22.992  1.00  0.00     0.020 C 
HETATM   29  C3  UNL     1      -1.723 -35.381  21.727  1.00  0.00     0.028 C 
HETATM   30 CL2  UNL     1      -0.424 -36.359  21.003  1.00  0.00    -0.088 Cl
BRANCH  29  31
HETATM   31  C2  UNL     1      -2.713 -34.725  20.829  1.00  0.00     0.122 C 
HETATM   32  C1  UNL     1      -3.007 -33.312  21.120  1.00  0.00     0.032 C 
HETATM   33 CL1  UNL     1      -4.242 -35.651  21.042  1.00  0.00    -0.119 Cl
ENDBRANCH  29  31
ENDBRANCH  27  28
ENDBRANCH  26  27
ENDBRANCH   1  26
BRANCH   3  34
HETATM   34  O3  UNL     1      -3.427 -31.984  27.370  1.00  0.00    -0.356 OA
ATOM     35  H3  UNL     1      -3.487 -31.087  27.677  1.00  0.00     0.218 HD
ENDBRANCH   3  34
BRANCH   4  36
HETATM   36  O4  UNL     1      -1.312 -31.326  29.093  1.00  0.00    -0.356 OA
ATOM     37  H4  UNL     1      -0.623 -30.732  29.369  1.00  0.00     0.218 HD
ENDBRANCH   4  36
BRANCH   8  38
HETATM   38  C22 UNL     1       3.629 -33.577  28.128  1.00  0.00     0.449 C 
HETATM   39  F1  UNL     1       4.309 -33.764  26.922  1.00  0.00    -0.163 F 
HETATM   40  F2  UNL     1       3.745 -34.745  28.863  1.00  0.00    -0.163 F 
HETATM   41  F3  UNL     1       4.135 -32.465  28.745  1.00  0.00    -0.163 F 
ENDBRANCH   8  38
TORSDOF 12
ENDMDL
MODEL 2
REMARK VINA RESULT: -8.346848987      8.669     11.978
REMARK  12 active torsions:
REMARK  status: ('A' for Active; 'I' for Inactive)
REMARK    1  A    between atoms: C2_2  and  C3_4 
REMARK    2  A    between atoms: C4_6  and  C5_7 
REMARK    3  A    between atoms: C5_7  and  O1_8 
REMARK    4  A    between atoms: O1_8  and  C6_9 
REMARK    5  A    between atoms: C7_10  and  N1_11 
REMARK       I    between atoms: N1_11  and  C8_13 
REMARK    6  A    between atoms: C8_13  and  C9_15 
REMARK    7  A    between atoms: C9_15  and  C12_18 
REMARK    8  A    between atoms: C12_18  and  C13_19 
REMARK    9  A    between atoms: C13_19  and  N2_20 
REMARK   10  A    between atoms: C18_25  and  O3_26 
REMARK   11  A    between atoms: C19_28  and  O4_29 
REMARK   12  A    between atoms: C21_34  and  C22_35 
ROOT
HETATM    1  C6  UNL     1     -10.901 -40.688  29.361  1.00  0.00     0.128 A 
HETATM    2  C7  UNL     1     -10.056 -39.745  28.985  1.00  0.00     0.107 A 
HETATM    3  C18 UNL     1      -9.083 -39.199  29.943  1.00  0.00     0.131 A 
HETATM    4  C19 UNL     1      -9.036 -39.650  31.228  1.00  0.00     0.130 A 
HETATM    5  C20 UNL     1      -9.926 -40.636  31.623  1.00  0.00     0.100 A 
HETATM    6  N3  UNL     1     -10.107 -41.229  32.820  1.00  0.00    -0.334 N 
ATOM      7  H3  UNL     1      -9.576 -41.045  33.671  1.00  0.00     0.167 HD
HETATM    8  C21 UNL     1     -11.113 -42.109  32.689  1.00  0.00     0.191 A 
HETATM    9  N4  UNL     1     -11.526 -42.027  31.404  1.00  0.00    -0.334 N 
ATOM     10  H4  UNL     1     -12.282 -42.579  31.001  1.00  0.00     0.167 HD
HETATM   11  C23 UNL     1     -10.804 -41.120  30.734  1.00  0.00     0.100 A 
ENDROOT
BRANCH   2  12
HETATM   12  N1  UNL     1     -10.019 -38.963  27.832  1.00  0.00    -0.321 N 
HETATM   13  C8  UNL     1     -10.886 -38.201  27.097  1.00  0.00     0.234 C 
HETATM   14  O2  UNL     1     -12.053 -37.961  27.511  1.00  0.00    -0.272 OA
ATOM     15  H1  UNL     1      -9.085 -38.957  27.421  1.00  0.00     0.169 HD
BRANCH  13  16
HETATM   16  C9  UNL     1     -10.508 -37.640  25.744  1.00  0.00     0.053 C 
HETATM   17  C10 UNL     1     -11.758 -36.820  25.313  1.00  0.00     0.029 C 
HETATM   18  C11 UNL     1     -10.319 -38.854  24.849  1.00  0.00     0.029 C 
BRANCH  16  19
HETATM   19  C12 UNL     1      -9.390 -36.775  25.580  1.00  0.00     0.008 C 
BRANCH  19  20
HETATM   20  C13 UNL     1      -8.939 -36.366  24.411  1.00  0.00     0.082 C 
BRANCH  20  21
HETATM   21  N2  UNL     1      -8.323 -35.215  23.949  1.00  0.00    -0.390 N 
HETATM   22  C14 UNL     1      -7.481 -34.889  22.854  1.00  0.00     0.122 C 
HETATM   23  C15 UNL     1      -6.294 -34.179  23.532  1.00  0.00     0.021 C 
HETATM   24  C16 UNL     1      -6.993 -33.392  24.619  1.00  0.00     0.021 C 
HETATM   25  C17 UNL     1      -8.443 -33.880  24.645  1.00  0.00     0.122 C 
ENDBRANCH  20  21
ENDBRANCH  19  20
ENDBRANCH  16  19
ENDBRANCH  13  16
ENDBRANCH   2  12
BRANCH   1  26
HETATM   26  O1  UNL     1     -11.842 -41.335  28.665  1.00  0.00    -0.343 OA
BRANCH  26  27
HETATM   27  C5  UNL     1     -11.859 -42.166  27.574  1.00  0.00     0.204 C 
BRANCH  27  28
HETATM   28  C4  UNL     1     -12.641 -41.586  26.468  1.00  0.00     0.020 C 
HETATM   29  C3  UNL     1     -12.655 -41.870  25.222  1.00  0.00     0.028 C 
HETATM   30 CL2  UNL     1     -11.626 -43.159  24.554  1.00  0.00    -0.088 Cl
BRANCH  29  31
HETATM   31  C2  UNL     1     -13.535 -41.103  24.299  1.00  0.00     0.122 C 
HETATM   32  C1  UNL     1     -12.916 -40.662  23.038  1.00  0.00     0.032 C 
HETATM   33 CL1  UNL     1     -14.018 -39.628  25.211  1.00  0.00    -0.119 Cl
ENDBRANCH  29  31
ENDBRANCH  27  28
ENDBRANCH  26  27
ENDBRANCH   1  26
BRANCH   3  34
HETATM   34  O3  UNL     1      -8.241 -38.231  29.470  1.00  0.00    -0.356 OA
ATOM     35  H3  UNL     1      -7.417 -38.530  29.105  1.00  0.00     0.218 HD
ENDBRANCH   3  34
BRANCH   4  36
HETATM   36  O4  UNL     1      -8.124 -39.118  32.130  1.00  0.00    -0.356 OA
ATOM     37  H4  UNL     1      -7.486 -39.678  32.559  1.00  0.00     0.218 HD
ENDBRANCH   4  36
BRANCH   8  38
HETATM   38  C22 UNL     1     -11.726 -42.965  33.754  1.00  0.00     0.449 C 
HETATM   39  F1  UNL     1     -12.388 -42.080  34.609  1.00  0.00    -0.163 F 
HETATM   40  F2  UNL     1     -10.739 -43.602  34.488  1.00  0.00    -0.163 F 
HETATM   41  F3  UNL     1     -12.651 -43.805  33.197  1.00  0.00    -0.163 F 
ENDBRANCH   8  38
TORSDOF 12
ENDMDL
MODEL 3
REMARK VINA RESULT: -8.067370156      1.031      2.015
REMARK  12 active torsions:
REMARK  status: ('A' for Active; 'I' for Inactive)
REMARK    1  A    between atoms: C2_2  and  C3_4 
REMARK    2  A    between atoms: C4_6  and  C5_7 
REMARK    3  A    between atoms: C5_7  and  O1_8 
REMARK    4  A    between atoms: O1_8  and  C6_9 
REMARK    5  A    between atoms: C7_10  and  N1_11 
REMARK       I    between atoms: N1_11  and  C8_13 
REMARK    6  A    between atoms: C8_13  and  C9_15 
REMARK    7  A    between atoms: C9_15  and  C12_18 
REMARK    8  A    between atoms: C12_18  and  C13_19 
REMARK    9  A    between atoms: C13_19  and  N2_20 
REMARK   10  A    between atoms: C18_25  and  O3_26 
REMARK   11  A    between atoms: C19_28  and  O4_29 
REMARK   12  A    between atoms: C21_34  and  C22_35 
ROOT
HETATM    1  C6  UNL     1      -1.114 -33.656  25.676  1.00  0.00     0.128 A 
HETATM    2  C7  UNL     1      -2.307 -33.189  26.000  1.00  0.00     0.107 A 
HETATM    3  C18 UNL     1      -2.483 -32.399  27.228  1.00  0.00     0.131 A 
HETATM    4  C19 UNL     1      -1.428 -32.137  28.050  1.00  0.00     0.130 A 
HETATM    5  C20 UNL     1      -0.178 -32.631  27.713  1.00  0.00     0.100 A 
HETATM    6  N3  UNL     1       1.005 -32.543  28.352  1.00  0.00    -0.334 N 
ATOM      7  H3  UNL     1       1.181 -32.057  29.232  1.00  0.00     0.167 HD
HETATM    8  C21 UNL     1       1.912 -33.210  27.621  1.00  0.00     0.191 A 
HETATM    9  N4  UNL     1       1.252 -33.696  26.545  1.00  0.00    -0.334 N 
ATOM     10  H4  UNL     1       1.680 -34.250  25.804  1.00  0.00     0.167 HD
HETATM   11  C23 UNL     1      -0.039 -33.349  26.589  1.00  0.00     0.100 A 
ENDROOT
BRANCH   2  12
HETATM   12  N1  UNL     1      -3.568 -33.473  25.479  1.00  0.00    -0.321 N 
HETATM   13  C8  UNL     1      -4.277 -33.205  24.340  1.00  0.00     0.234 C 
HETATM   14  O2  UNL     1      -3.731 -32.641  23.352  1.00  0.00    -0.272 OA
ATOM     15  H1  UNL     1      -4.115 -34.039  26.128  1.00  0.00     0.169 HD
BRANCH  13  16
HETATM   16  C9  UNL     1      -5.747 -33.535  24.218  1.00  0.00     0.053 C 
HETATM   17  C10 UNL     1      -5.953 -33.784  22.695  1.00  0.00     0.029 C 
HETATM   18  C11 UNL     1      -6.476 -32.279  24.667  1.00  0.00     0.029 C 
BRANCH  16  19
HETATM   19  C12 UNL     1      -6.319 -34.656  24.883  1.00  0.00     0.008 C 
BRANCH  19  20
HETATM   20  C13 UNL     1      -7.603 -34.955  24.853  1.00  0.00     0.082 C 
BRANCH  20  21
HETATM   21  N2  UNL     1      -8.351 -35.996  24.329  1.00  0.00    -0.390 N 
HETATM   22  C14 UNL     1      -8.478 -36.608  23.055  1.00  0.00     0.122 C 
HETATM   23  C15 UNL     1      -9.998 -36.578  22.809  1.00  0.00     0.021 C 
HETATM   24  C16 UNL     1     -10.535 -36.864  24.194  1.00  0.00     0.021 C 
HETATM   25  C17 UNL     1      -9.340 -36.794  25.146  1.00  0.00     0.122 C 
ENDBRANCH  20  21
ENDBRANCH  19  20
ENDBRANCH  16  19
ENDBRANCH  13  16
ENDBRANCH   2  12
BRANCH   1  26
HETATM   26  O1  UNL     1      -0.723 -34.369  24.615  1.00  0.00    -0.343 OA
BRANCH  26  27
HETATM   27  C5  UNL     1      -1.043 -34.401  23.282  1.00  0.00     0.204 C 
BRANCH  27  28
HETATM   28  C4  UNL     1      -0.776 -35.727  22.697  1.00  0.00     0.020 C 
HETATM   29  C3  UNL     1      -1.470 -36.434  21.889  1.00  0.00     0.028 C 
HETATM   30 CL2  UNL     1      -3.036 -35.861  21.267  1.00  0.00    -0.088 Cl
BRANCH  29  31
HETATM   31  C2  UNL     1      -0.975 -37.772  21.464  1.00  0.00     0.122 C 
HETATM   32  C1  UNL     1      -0.345 -38.588  22.514  1.00  0.00     0.032 C 
HETATM   33 CL1  UNL     1       0.275 -37.445  20.209  1.00  0.00    -0.119 Cl
ENDBRANCH  29  31
ENDBRANCH  27  28
ENDBRANCH  26  27
ENDBRANCH   1  26
BRANCH   3  34
HETATM   34  O3  UNL     1      -3.747 -31.948  27.485  1.00  0.00    -0.356 OA
ATOM     35  H3  UNL     1      -3.818 -31.188  28.050  1.00  0.00     0.218 HD
ENDBRANCH   3  34
BRANCH   4  36
HETATM   36  O4  UNL     1      -1.606 -31.402  29.215  1.00  0.00    -0.356 OA
ATOM     37  H4  UNL     1      -0.895 -30.882  29.572  1.00  0.00     0.218 HD
ENDBRANCH   4  36
BRANCH   8  38
HETATM   38  C22 UNL     1       3.355 -33.450  27.947  1.00  0.00     0.449 C 
HETATM   39  F1  UNL     1       3.373 -34.605  28.733  1.00  0.00    -0.163 F 
HETATM   40  F2  UNL     1       3.855 -32.411  28.714  1.00  0.00    -0.163 F 
HETATM   41  F3  UNL     1       4.055 -33.695  26.797  1.00  0.00    -0.163 F 
ENDBRANCH   8  38
TORSDOF 12
ENDMDL
MODEL 4
REMARK VINA RESULT: -8.027027383      8.502     11.870
REMARK  12 active torsions:
REMARK  status: ('A' for Active; 'I' for Inactive)
REMARK    1  A    between atoms: C2_2  and  C3_4 
REMARK    2  A    between atoms: C4_6  and  C5_7 
REMARK    3  A    between atoms: C5_7  and  O1_8 
REMARK    4  A    between atoms: O1_8  and  C6_9 
REMARK    5  A    between atoms: C7_10  and  N1_11 
REMARK       I    between atoms: N1_11  and  C8_13 
REMARK    6  A    between atoms: C8_13  and  C9_15 
REMARK    7  A    between atoms: C9_15  and  C12_18 
REMARK    8  A    between atoms: C12_18  and  C13_19 
REMARK    9  A    between atoms: C13_19  and  N2_20 
REMARK   10  A    between atoms: C18_25  and  O3_26 
REMARK   11  A    between atoms: C19_28  and  O4_29 
REMARK   12  A    between atoms: C21_34  and  C22_35 
ROOT
HETATM    1  C6  UNL     1     -11.040 -40.367  28.925  1.00  0.00     0.128 A 
HETATM    2  C7  UNL     1     -10.319 -39.345  28.497  1.00  0.00     0.107 A 
HETATM    3  C18 UNL     1      -9.304 -38.738  29.370  1.00  0.00     0.131 A 
HETATM    4  C19 UNL     1      -9.090 -39.212  30.630  1.00  0.00     0.130 A 
HETATM    5  C20 UNL     1      -9.848 -40.279  31.081  1.00  0.00     0.100 A 
HETATM    6  N3  UNL     1      -9.857 -40.913  32.271  1.00  0.00    -0.334 N 
ATOM      7  H3  UNL     1      -9.260 -40.701  33.071  1.00  0.00     0.167 HD
HETATM    8  C21 UNL     1     -10.793 -41.873  32.213  1.00  0.00     0.191 A 
HETATM    9  N4  UNL     1     -11.339 -41.799  30.978  1.00  0.00    -0.334 N 
ATOM     10  H4  UNL     1     -12.083 -42.406  30.636  1.00  0.00     0.167 HD
HETATM   11  C23 UNL     1     -10.769 -40.819  30.268  1.00  0.00     0.100 A 
ENDROOT
BRANCH   2  12
HETATM   12  N1  UNL     1     -10.466 -38.538  27.370  1.00  0.00    -0.321 N 
HETATM   13  C8  UNL     1     -10.248 -38.631  26.022  1.00  0.00     0.234 C 
HETATM   14  O2  UNL     1      -9.922 -39.727  25.490  1.00  0.00    -0.272 OA
ATOM     15  H1  UNL     1     -10.840 -37.622  27.620  1.00  0.00     0.169 HD
BRANCH  13  16
HETATM   16  C9  UNL     1     -10.349 -37.428  25.112  1.00  0.00     0.053 C 
HETATM   17  C10 UNL     1     -11.744 -36.821  25.442  1.00  0.00     0.029 C 
HETATM   18  C11 UNL     1     -10.322 -37.993  23.701  1.00  0.00     0.029 C 
BRANCH  16  19
HETATM   19  C12 UNL     1      -9.421 -36.352  25.189  1.00  0.00     0.008 C 
BRANCH  19  20
HETATM   20  C13 UNL     1      -8.539 -36.070  24.251  1.00  0.00     0.082 C 
BRANCH  20  21
HETATM   21  N2  UNL     1      -7.884 -34.921  23.839  1.00  0.00    -0.390 N 
HETATM   22  C14 UNL     1      -7.045 -34.572  22.749  1.00  0.00     0.122 C 
HETATM   23  C15 UNL     1      -5.822 -33.944  23.443  1.00  0.00     0.021 C 
HETATM   24  C16 UNL     1      -6.473 -33.188  24.580  1.00  0.00     0.021 C 
HETATM   25  C17 UNL     1      -7.941 -33.620  24.604  1.00  0.00     0.122 C 
ENDBRANCH  20  21
ENDBRANCH  19  20
ENDBRANCH  16  19
ENDBRANCH  13  16
ENDBRANCH   2  12
BRANCH   1  26
HETATM   26  O1  UNL     1     -11.988 -41.077  28.307  1.00  0.00    -0.343 OA
BRANCH  26  27
HETATM   27  C5  UNL     1     -12.010 -42.116  27.412  1.00  0.00     0.204 C 
BRANCH  27  28
HETATM   28  C4  UNL     1     -12.623 -41.713  26.134  1.00  0.00     0.020 C 
HETATM   29  C3  UNL     1     -13.260 -42.400  25.265  1.00  0.00     0.028 C 
HETATM   30 CL2  UNL     1     -13.547 -44.142  25.490  1.00  0.00    -0.088 Cl
BRANCH  29  31
HETATM   31  C2  UNL     1     -13.764 -41.743  24.028  1.00  0.00     0.122 C 
HETATM   32  C1  UNL     1     -13.141 -40.454  23.685  1.00  0.00     0.032 C 
HETATM   33 CL1  UNL     1     -15.513 -41.439  24.324  1.00  0.00    -0.119 Cl
ENDBRANCH  29  31
ENDBRANCH  27  28
ENDBRANCH  26  27
ENDBRANCH   1  26
BRANCH   3  34
HETATM   34  O3  UNL     1      -8.600 -37.691  28.846  1.00  0.00    -0.356 OA
ATOM     35  H3  UNL     1      -8.258 -37.808  27.968  1.00  0.00     0.218 HD
ENDBRANCH   3  34
BRANCH   4  36
HETATM   36  O4  UNL     1      -8.139 -38.623  31.453  1.00  0.00    -0.356 OA
ATOM     37  H4  UNL     1      -7.313 -39.060  31.627  1.00  0.00     0.218 HD
ENDBRANCH   4  36
BRANCH   8  38
HETATM   38  C22 UNL     1     -11.221 -42.802  33.307  1.00  0.00     0.449 C 
HETATM   39  F1  UNL     1     -10.057 -43.457  33.718  1.00  0.00    -0.163 F 
HETATM   40  F2  UNL     1     -12.091 -43.760  32.814  1.00  0.00    -0.163 F 
HETATM   41  F3  UNL     1     -11.709 -42.080  34.363  1.00  0.00    -0.163 F 
ENDBRANCH   8  38
TORSDOF 12
ENDMDL
MODEL 5
REMARK VINA RESULT: -7.956927870      8.810     12.188
REMARK  12 active torsions:
REMARK  status: ('A' for Active; 'I' for Inactive)
REMARK    1  A    between atoms: C2_2  and  C3_4 
REMARK    2  A    between atoms: C4_6  and  C5_7 
REMARK    3  A    between atoms: C5_7  and  O1_8 
REMARK    4  A    between atoms: O1_8  and  C6_9 
REMARK    5  A    between atoms: C7_10  and  N1_11 
REMARK       I    between atoms: N1_11  and  C8_13 
REMARK    6  A    between atoms: C8_13  and  C9_15 
REMARK    7  A    between atoms: C9_15  and  C12_18 
REMARK    8  A    between atoms: C12_18  and  C13_19 
REMARK    9  A    between atoms: C13_19  and  N2_20 
REMARK   10  A    between atoms: C18_25  and  O3_26 
REMARK   11  A    between atoms: C19_28  and  O4_29 
REMARK   12  A    between atoms: C21_34  and  C22_35 
ROOT
HETATM    1  C6  UNL     1     -11.052 -40.331  28.941  1.00  0.00     0.128 A 
HETATM    2  C7  UNL     1     -10.305 -39.333  28.503  1.00  0.00     0.107 A 
HETATM    3  C18 UNL     1      -9.260 -38.759  29.364  1.00  0.00     0.131 A 
HETATM    4  C19 UNL     1      -9.045 -39.240  30.621  1.00  0.00     0.130 A 
HETATM    5  C20 UNL     1      -9.832 -40.283  31.081  1.00  0.00     0.100 A 
HETATM    6  N3  UNL     1      -9.846 -40.917  32.271  1.00  0.00    -0.334 N 
ATOM      7  H3  UNL     1      -9.232 -40.725  33.064  1.00  0.00     0.167 HD
HETATM    8  C21 UNL     1     -10.813 -41.846  32.225  1.00  0.00     0.191 A 
HETATM    9  N4  UNL     1     -11.372 -41.754  30.997  1.00  0.00    -0.334 N 
ATOM     10  H4  UNL     1     -12.139 -42.337  30.663  1.00  0.00     0.167 HD
HETATM   11  C23 UNL     1     -10.779 -40.792  30.280  1.00  0.00     0.100 A 
ENDROOT
BRANCH   2  12
HETATM   12  N1  UNL     1     -10.439 -38.521  27.379  1.00  0.00    -0.321 N 
HETATM   13  C8  UNL     1     -10.196 -38.604  26.034  1.00  0.00     0.234 C 
HETATM   14  O2  UNL     1      -9.850 -39.694  25.502  1.00  0.00    -0.272 OA
ATOM     15  H1  UNL     1     -10.827 -37.610  27.627  1.00  0.00     0.169 HD
BRANCH  13  16
HETATM   16  C9  UNL     1     -10.293 -37.397  25.129  1.00  0.00     0.053 C 
HETATM   17  C10 UNL     1     -11.678 -36.777  25.474  1.00  0.00     0.029 C 
HETATM   18  C11 UNL     1     -10.286 -37.957  23.716  1.00  0.00     0.029 C 
BRANCH  16  19
HETATM   19  C12 UNL     1      -9.354 -36.331  25.201  1.00  0.00     0.008 C 
BRANCH  19  20
HETATM   20  C13 UNL     1      -8.562 -35.976  24.208  1.00  0.00     0.082 C 
BRANCH  20  21
HETATM   21  N2  UNL     1      -7.903 -34.811  23.852  1.00  0.00    -0.390 N 
HETATM   22  C14 UNL     1      -7.066 -34.413  22.778  1.00  0.00     0.122 C 
HETATM   23  C15 UNL     1      -5.837 -33.826  23.498  1.00  0.00     0.021 C 
HETATM   24  C16 UNL     1      -6.482 -33.124  24.673  1.00  0.00     0.021 C 
HETATM   25  C17 UNL     1      -7.951 -33.550  24.681  1.00  0.00     0.122 C 
ENDBRANCH  20  21
ENDBRANCH  19  20
ENDBRANCH  16  19
ENDBRANCH  13  16
ENDBRANCH   2  12
BRANCH   1  26
HETATM   26  O1  UNL     1     -12.031 -41.010  28.333  1.00  0.00    -0.343 OA
BRANCH  26  27
HETATM   27  C5  UNL     1     -12.328 -41.358  27.041  1.00  0.00     0.204 C 
BRANCH  27  28
HETATM   28  C4  UNL     1     -12.916 -42.707  26.969  1.00  0.00     0.020 C 
HETATM   29  C3  UNL     1     -12.384 -43.856  27.143  1.00  0.00     0.028 C 
HETATM   30 CL2  UNL     1     -10.661 -44.026  27.554  1.00  0.00    -0.088 Cl
BRANCH  29  31
HETATM   31  C2  UNL     1     -13.209 -45.085  26.986  1.00  0.00     0.122 C 
HETATM   32  C1  UNL     1     -14.024 -45.161  25.763  1.00  0.00     0.032 C 
HETATM   33 CL1  UNL     1     -14.336 -45.089  28.390  1.00  0.00    -0.119 Cl
ENDBRANCH  29  31
ENDBRANCH  27  28
ENDBRANCH  26  27
ENDBRANCH   1  26
BRANCH   3  34
HETATM   34  O3  UNL     1      -8.529 -37.735  28.832  1.00  0.00    -0.356 OA
ATOM     35  H3  UNL     1      -7.859 -37.358  29.391  1.00  0.00     0.218 HD
ENDBRANCH   3  34
BRANCH   4  36
HETATM   36  O4  UNL     1      -8.065 -38.682  31.433  1.00  0.00    -0.356 OA
ATOM     37  H4  UNL     1      -7.440 -39.236  31.885  1.00  0.00     0.218 HD
ENDBRANCH   4  36
BRANCH   8  38
HETATM   38  C22 UNL     1     -11.257 -42.762  33.324  1.00  0.00     0.449 C 
HETATM   39  F1  UNL     1     -11.854 -41.936  34.280  1.00  0.00    -0.163 F 
HETATM   40  F2  UNL     1     -10.163 -43.370  33.917  1.00  0.00    -0.163 F 
HETATM   41  F3  UNL     1     -12.202 -43.631  32.849  1.00  0.00    -0.163 F 
ENDBRANCH   8  38
TORSDOF 12
ENDMDL
