MODEL 1
REMARK VINA RESULT: -7.203640851      0.000      0.000
REMARK  11 active torsions:
REMARK  status: ('A' for Active; 'I' for Inactive)
REMARK    1  A    between atoms: C6_6  and  C7_7 
REMARK    2  A    between atoms: C7_7  and  C8_9 
REMARK    3  A    between atoms: C11_13  and  O2_14 
REMARK    4  A    between atoms: C14_19  and  C15_20 
REMARK    5  A    between atoms: C15_20  and  O3_21 
REMARK    6  A    between atoms: N1_23  and  O4_25 
REMARK    7  A    between atoms: C19_31  and  C20_32 
REMARK    8  A    between atoms: C20_32  and  C21_33 
REMARK    9  A    between atoms: C21_33  and  C22_34 
REMARK   10  A    between atoms: C22_34  and  C23_35 
REMARK   11  A    between atoms: C23_35  and  C24_36 
ROOT
HETATM    1  C1  UNL     1     -13.275 -36.537  23.977  1.00  0.00     0.010 C 
HETATM    2  C2  UNL     1     -11.927 -36.751  24.526  1.00  0.00    -0.012 C 
HETATM    3  C3  UNL     1     -11.284 -35.338  24.598  1.00  0.00     0.029 C 
HETATM    4  C4  UNL     1      -9.866 -35.537  25.092  1.00  0.00     0.085 C 
HETATM    5  C5  UNL     1      -9.059 -34.315  24.628  1.00  0.00     0.040 C 
HETATM    6  C6  UNL     1      -7.668 -35.013  24.573  1.00  0.00     0.093 C 
HETATM    7  C14 UNL     1      -8.027 -36.290  23.842  1.00  0.00     0.172 C 
HETATM    8  N2  UNL     1      -9.320 -36.624  24.375  1.00  0.00    -0.375 N 
HETATM    9  C16 UNL     1      -9.449 -37.923  24.860  1.00  0.00     0.064 C 
HETATM   10  C17 UNL     1     -10.458 -38.245  25.876  1.00  0.00     0.024 C 
HETATM   11  C18 UNL     1      -9.860 -38.194  27.278  1.00  0.00     0.016 C 
HETATM   12  C19 UNL     1     -11.758 -37.450  25.811  1.00  0.00    -0.002 C 
ENDROOT
BRANCH   6  13
HETATM   13  C7  UNL     1      -6.766 -34.118  23.879  1.00  0.00     0.166 C 
HETATM   14  O1  UNL     1      -7.172 -33.368  22.931  1.00  0.00    -0.292 OA
BRANCH  13  15
HETATM   15  C8  UNL     1      -5.360 -34.036  24.227  1.00  0.00     0.014 A 
HETATM   16  C9  UNL     1      -4.935 -33.676  25.487  1.00  0.00     0.042 A 
HETATM   17  C10 UNL     1      -3.570 -33.617  25.789  1.00  0.00     0.069 A 
HETATM   18 CL1  UNL     1      -3.018 -33.160  27.388  1.00  0.00    -0.081 Cl
HETATM   19  C11 UNL     1      -2.648 -33.918  24.828  1.00  0.00     0.109 A 
HETATM   20  C12 UNL     1      -3.030 -34.282  23.557  1.00  0.00     0.069 A 
HETATM   21 CL2  UNL     1      -1.877 -34.674  22.305  1.00  0.00    -0.081 Cl
HETATM   22  C13 UNL     1      -4.370 -34.332  23.292  1.00  0.00     0.042 A 
BRANCH  19  23
HETATM   23  O2  UNL     1      -1.264 -33.879  25.065  1.00  0.00    -0.357 OA
ATOM     24  H2  UNL     1      -0.754 -34.657  25.258  1.00  0.00     0.217 HD
ENDBRANCH  19  23
ENDBRANCH  13  15
ENDBRANCH   6  13
BRANCH   7  25
HETATM   25  C15 UNL     1      -8.106 -36.130  22.372  1.00  0.00     0.159 C 
HETATM   26  N1  UNL     1      -9.242 -36.331  21.770  1.00  0.00    -0.249 N 
ATOM     27  H1  UNL     1     -10.056 -36.595  22.326  1.00  0.00     0.196 HD
BRANCH  25  28
HETATM   28  O3  UNL     1      -7.047 -35.775  21.560  1.00  0.00    -0.347 OA
ATOM     29  H3  UNL     1      -7.038 -35.025  20.977  1.00  0.00     0.219 HD
ENDBRANCH  25  28
BRANCH  26  30
HETATM   30  O4  UNL     1      -9.378 -36.199  20.414  1.00  0.00    -0.288 OA
ATOM     31  H4  UNL     1     -10.221 -36.033  20.007  1.00  0.00     0.244 HD
ENDBRANCH  26  30
ENDBRANCH   7  25
BRANCH  12  32
HETATM   32  C20 UNL     1     -12.857 -38.263  26.314  1.00  0.00     0.005 C 
BRANCH  32  33
HETATM   33  C21 UNL     1     -13.023 -39.685  25.952  1.00  0.00     0.001 C 
BRANCH  33  34
HETATM   34  C22 UNL     1     -12.838 -40.653  27.058  1.00  0.00     0.009 C 
BRANCH  34  35
HETATM   35  C23 UNL     1     -12.056 -41.850  26.644  1.00  0.00     0.117 C 
BRANCH  35  36
HETATM   36  C24 UNL     1     -10.604 -41.869  26.982  1.00  0.00     0.387 C 
HETATM   37  F1  UNL     1      -9.790 -41.463  25.930  1.00  0.00    -0.171 F 
HETATM   38  F2  UNL     1     -10.240 -43.255  27.109  1.00  0.00    -0.171 F 
HETATM   39  F3  UNL     1     -10.241 -41.352  28.191  1.00  0.00    -0.171 F 
ENDBRANCH  35  36
ENDBRANCH  34  35
ENDBRANCH  33  34
ENDBRANCH  32  33
ENDBRANCH  12  32
TORSDOF 11
ENDMDL
MODEL 2
REMARK VINA RESULT: -7.199463428      0.855      1.039
REMARK  11 active torsions:
REMARK  status: ('A' for Active; 'I' for Inactive)
REMARK    1  A    between atoms: C6_6  and  C7_7 
REMARK    2  A    between atoms: C7_7  and  C8_9 
REMARK    3  A    between atoms: C11_13  and  O2_14 
REMARK    4  A    between atoms: C14_19  and  C15_20 
REMARK    5  A    between atoms: C15_20  and  O3_21 
REMARK    6  A    between atoms: N1_23  and  O4_25 
REMARK    7  A    between atoms: C19_31  and  C20_32 
REMARK    8  A    between atoms: C20_32  and  C21_33 
REMARK    9  A    between atoms: C21_33  and  C22_34 
REMARK   10  A    between atoms: C22_34  and  C23_35 
REMARK   11  A    between atoms: C23_35  and  C24_36 
ROOT
HETATM    1  C1  UNL     1     -13.283 -36.550  23.961  1.00  0.00     0.010 C 
HETATM    2  C2  UNL     1     -11.934 -36.774  24.502  1.00  0.00    -0.012 C 
HETATM    3  C3  UNL     1     -11.286 -35.362  24.583  1.00  0.00     0.029 C 
HETATM    4  C4  UNL     1      -9.866 -35.571  25.069  1.00  0.00     0.085 C 
HETATM    5  C5  UNL     1      -9.057 -34.346  24.612  1.00  0.00     0.040 C 
HETATM    6  C6  UNL     1      -7.669 -35.048  24.545  1.00  0.00     0.093 C 
HETATM    7  C14 UNL     1      -8.035 -36.318  23.806  1.00  0.00     0.172 C 
HETATM    8  N2  UNL     1      -9.326 -36.652  24.340  1.00  0.00    -0.375 N 
HETATM    9  C16 UNL     1      -9.458 -37.956  24.815  1.00  0.00     0.064 C 
HETATM   10  C17 UNL     1     -10.463 -38.283  25.833  1.00  0.00     0.024 C 
HETATM   11  C18 UNL     1      -9.859 -38.246  27.233  1.00  0.00     0.016 C 
HETATM   12  C19 UNL     1     -11.761 -37.483  25.781  1.00  0.00    -0.002 C 
ENDROOT
BRANCH   6  13
HETATM   13  C7  UNL     1      -6.768 -34.150  23.855  1.00  0.00     0.166 C 
HETATM   14  O1  UNL     1      -7.172 -33.403  22.904  1.00  0.00    -0.292 OA
BRANCH  13  15
HETATM   15  C8  UNL     1      -5.363 -34.061  24.210  1.00  0.00     0.014 A 
HETATM   16  C9  UNL     1      -4.948 -33.715  25.478  1.00  0.00     0.042 A 
HETATM   17  C10 UNL     1      -3.585 -33.648  25.787  1.00  0.00     0.069 A 
HETATM   18 CL1  UNL     1      -3.045 -33.209  27.395  1.00  0.00    -0.081 Cl
HETATM   19  C11 UNL     1      -2.656 -33.928  24.826  1.00  0.00     0.109 A 
HETATM   20  C12 UNL     1      -3.028 -34.278  23.549  1.00  0.00     0.069 A 
HETATM   21 CL2  UNL     1      -1.867 -34.641  22.297  1.00  0.00    -0.081 Cl
HETATM   22  C13 UNL     1      -4.367 -34.335  23.277  1.00  0.00     0.042 A 
BRANCH  19  23
HETATM   23  O2  UNL     1      -1.274 -33.880  25.071  1.00  0.00    -0.357 OA
ATOM     24  H2  UNL     1      -0.716 -33.189  24.732  1.00  0.00     0.217 HD
ENDBRANCH  19  23
ENDBRANCH  13  15
ENDBRANCH   6  13
BRANCH   7  25
HETATM   25  C15 UNL     1      -8.119 -36.145  22.337  1.00  0.00     0.159 C 
HETATM   26  N1  UNL     1      -9.264 -36.317  21.741  1.00  0.00    -0.249 N 
ATOM     27  H1  UNL     1     -10.079 -36.567  22.300  1.00  0.00     0.196 HD
BRANCH  25  28
HETATM   28  O3  UNL     1      -7.058 -35.808  21.521  1.00  0.00    -0.347 OA
ATOM     29  H3  UNL     1      -6.796 -36.290  20.745  1.00  0.00     0.219 HD
ENDBRANCH  25  28
BRANCH  26  30
HETATM   30  O4  UNL     1      -9.406 -36.173  20.387  1.00  0.00    -0.288 OA
ATOM     31  H4  UNL     1      -9.189 -35.362  19.942  1.00  0.00     0.244 HD
ENDBRANCH  26  30
ENDBRANCH   7  25
BRANCH  12  32
HETATM   32  C20 UNL     1     -12.861 -38.297  26.281  1.00  0.00     0.005 C 
BRANCH  32  33
HETATM   33  C21 UNL     1     -12.850 -39.772  26.217  1.00  0.00     0.001 C 
BRANCH  33  34
HETATM   34  C22 UNL     1     -13.414 -40.365  24.982  1.00  0.00     0.009 C 
BRANCH  34  35
HETATM   35  C23 UNL     1     -12.443 -41.246  24.276  1.00  0.00     0.117 C 
BRANCH  35  36
HETATM   36  C24 UNL     1     -11.707 -42.249  25.097  1.00  0.00     0.387 C 
HETATM   37  F1  UNL     1     -10.444 -41.818  25.488  1.00  0.00    -0.171 F 
HETATM   38  F2  UNL     1     -11.379 -43.332  24.208  1.00  0.00    -0.171 F 
HETATM   39  F3  UNL     1     -12.406 -42.875  26.087  1.00  0.00    -0.171 F 
ENDBRANCH  35  36
ENDBRANCH  34  35
ENDBRANCH  33  34
ENDBRANCH  32  33
ENDBRANCH  12  32
TORSDOF 11
ENDMDL
MODEL 3
REMARK VINA RESULT: -7.181455459      0.064      1.526
REMARK  11 active torsions:
REMARK  status: ('A' for Active; 'I' for Inactive)
REMARK    1  A    between atoms: C6_6  and  C7_7 
REMARK    2  A    between atoms: C7_7  and  C8_9 
REMARK    3  A    between atoms: C11_13  and  O2_14 
REMARK    4  A    between atoms: C14_19  and  C15_20 
REMARK    5  A    between atoms: C15_20  and  O3_21 
REMARK    6  A    between atoms: N1_23  and  O4_25 
REMARK    7  A    between atoms: C19_31  and  C20_32 
REMARK    8  A    between atoms: C20_32  and  C21_33 
REMARK    9  A    between atoms: C21_33  and  C22_34 
REMARK   10  A    between atoms: C22_34  and  C23_35 
REMARK   11  A    between atoms: C23_35  and  C24_36 
ROOT
HETATM    1  C1  UNL     1     -13.244 -36.536  23.969  1.00  0.00     0.010 C 
HETATM    2  C2  UNL     1     -11.895 -36.748  24.517  1.00  0.00    -0.012 C 
HETATM    3  C3  UNL     1     -11.261 -35.331  24.604  1.00  0.00     0.029 C 
HETATM    4  C4  UNL     1      -9.842 -35.526  25.097  1.00  0.00     0.085 C 
HETATM    5  C5  UNL     1      -9.042 -34.294  24.646  1.00  0.00     0.040 C 
HETATM    6  C6  UNL     1      -7.647 -34.983  24.586  1.00  0.00     0.093 C 
HETATM    7  C14 UNL     1      -7.998 -36.254  23.842  1.00  0.00     0.172 C 
HETATM    8  N2  UNL     1      -9.288 -36.602  24.370  1.00  0.00    -0.375 N 
HETATM    9  C16 UNL     1      -9.410 -37.907  24.842  1.00  0.00     0.064 C 
HETATM   10  C17 UNL     1     -10.417 -38.246  25.854  1.00  0.00     0.024 C 
HETATM   11  C18 UNL     1      -9.822 -38.205  27.257  1.00  0.00     0.016 C 
HETATM   12  C19 UNL     1     -11.723 -37.458  25.795  1.00  0.00    -0.002 C 
ENDROOT
BRANCH   6  13
HETATM   13  C7  UNL     1      -6.750 -34.075  23.902  1.00  0.00     0.166 C 
HETATM   14  O1  UNL     1      -7.175 -33.263  23.016  1.00  0.00    -0.292 OA
BRANCH  13  15
HETATM   15  C8  UNL     1      -5.328 -34.051  24.190  1.00  0.00     0.014 A 
HETATM   16  C9  UNL     1      -4.382 -34.360  23.238  1.00  0.00     0.042 A 
HETATM   17  C10 UNL     1      -3.018 -34.317  23.549  1.00  0.00     0.069 A 
HETATM   18 CL1  UNL     1      -1.805 -34.708  22.346  1.00  0.00    -0.081 Cl
HETATM   19  C11 UNL     1      -2.619 -33.967  24.807  1.00  0.00     0.109 A 
HETATM   20  C12 UNL     1      -3.532 -33.651  25.787  1.00  0.00     0.069 A 
HETATM   21 CL2  UNL     1      -3.056 -33.198  27.405  1.00  0.00    -0.081 Cl
HETATM   22  C13 UNL     1      -4.856 -33.701  25.453  1.00  0.00     0.042 A 
BRANCH  19  23
HETATM   23  O2  UNL     1      -1.268 -33.904  25.184  1.00  0.00    -0.357 OA
ATOM     24  H2  UNL     1      -0.873 -33.121  25.550  1.00  0.00     0.217 HD
ENDBRANCH  19  23
ENDBRANCH  13  15
ENDBRANCH   6  13
BRANCH   7  25
HETATM   25  C15 UNL     1      -8.075 -36.080  22.373  1.00  0.00     0.159 C 
HETATM   26  N1  UNL     1      -9.198 -36.328  21.763  1.00  0.00    -0.249 N 
ATOM     27  H1  UNL     1     -10.001 -36.637  22.310  1.00  0.00     0.196 HD
BRANCH  25  28
HETATM   28  O3  UNL     1      -7.030 -35.666  21.572  1.00  0.00    -0.347 OA
ATOM     29  H3  UNL     1      -6.923 -35.897  20.657  1.00  0.00     0.219 HD
ENDBRANCH  25  28
BRANCH  26  30
HETATM   30  O4  UNL     1      -9.333 -36.186  20.407  1.00  0.00    -0.288 OA
ATOM     31  H4  UNL     1     -10.105 -36.489  19.945  1.00  0.00     0.244 HD
ENDBRANCH  26  30
ENDBRANCH   7  25
BRANCH  12  32
HETATM   32  C20 UNL     1     -12.817 -38.283  26.289  1.00  0.00     0.005 C 
BRANCH  32  33
HETATM   33  C21 UNL     1     -12.985 -39.697  25.897  1.00  0.00     0.001 C 
BRANCH  33  34
HETATM   34  C22 UNL     1     -12.839 -40.686  26.989  1.00  0.00     0.009 C 
BRANCH  34  35
HETATM   35  C23 UNL     1     -12.046 -41.878  26.579  1.00  0.00     0.117 C 
BRANCH  35  36
HETATM   36  C24 UNL     1     -10.595 -41.883  26.919  1.00  0.00     0.387 C 
HETATM   37  F1  UNL     1      -9.782 -41.480  25.865  1.00  0.00    -0.171 F 
HETATM   38  F2  UNL     1     -10.221 -43.266  27.057  1.00  0.00    -0.171 F 
HETATM   39  F3  UNL     1     -10.237 -41.355  28.125  1.00  0.00    -0.171 F 
ENDBRANCH  35  36
ENDBRANCH  34  35
ENDBRANCH  33  34
ENDBRANCH  32  33
ENDBRANCH  12  32
TORSDOF 11
ENDMDL
MODEL 4
REMARK VINA RESULT: -7.132660689      1.468      1.848
REMARK  11 active torsions:
REMARK  status: ('A' for Active; 'I' for Inactive)
REMARK    1  A    between atoms: C6_6  and  C7_7 
REMARK    2  A    between atoms: C7_7  and  C8_9 
REMARK    3  A    between atoms: C11_13  and  O2_14 
REMARK    4  A    between atoms: C14_19  and  C15_20 
REMARK    5  A    between atoms: C15_20  and  O3_21 
REMARK    6  A    between atoms: N1_23  and  O4_25 
REMARK    7  A    between atoms: C19_31  and  C20_32 
REMARK    8  A    between atoms: C20_32  and  C21_33 
REMARK    9  A    between atoms: C21_33  and  C22_34 
REMARK   10  A    between atoms: C22_34  and  C23_35 
REMARK   11  A    between atoms: C23_35  and  C24_36 
ROOT
HETATM    1  C1  UNL     1     -13.279 -36.460  24.015  1.00  0.00     0.010 C 
HETATM    2  C2  UNL     1     -11.931 -36.696  24.554  1.00  0.00    -0.012 C 
HETATM    3  C3  UNL     1     -11.262 -35.294  24.612  1.00  0.00     0.029 C 
HETATM    4  C4  UNL     1      -9.843 -35.516  25.095  1.00  0.00     0.085 C 
HETATM    5  C5  UNL     1      -9.018 -34.310  24.617  1.00  0.00     0.040 C 
HETATM    6  C6  UNL     1      -7.641 -35.033  24.553  1.00  0.00     0.093 C 
HETATM    7  C14 UNL     1      -8.030 -36.307  23.833  1.00  0.00     0.172 C 
HETATM    8  N2  UNL     1      -9.323 -36.616  24.378  1.00  0.00    -0.375 N 
HETATM    9  C16 UNL     1      -9.471 -37.910  24.871  1.00  0.00     0.064 C 
HETATM   10  C17 UNL     1     -10.476 -38.209  25.898  1.00  0.00     0.024 C 
HETATM   11  C18 UNL     1      -9.865 -38.162  27.295  1.00  0.00     0.016 C 
HETATM   12  C19 UNL     1     -11.763 -37.391  25.840  1.00  0.00    -0.002 C 
ENDROOT
BRANCH   6  13
HETATM   13  C7  UNL     1      -6.730 -34.158  23.847  1.00  0.00     0.166 C 
HETATM   14  O1  UNL     1      -7.120 -33.443  22.866  1.00  0.00    -0.292 OA
BRANCH  13  15
HETATM   15  C8  UNL     1      -5.331 -34.057  24.220  1.00  0.00     0.014 A 
HETATM   16  C9  UNL     1      -4.934 -33.715  25.494  1.00  0.00     0.042 A 
HETATM   17  C10 UNL     1      -3.574 -33.636  25.819  1.00  0.00     0.069 A 
HETATM   18 CL1  UNL     1      -3.058 -33.202  27.436  1.00  0.00    -0.081 Cl
HETATM   19  C11 UNL     1      -2.632 -33.900  24.868  1.00  0.00     0.109 A 
HETATM   20  C12 UNL     1      -2.986 -34.246  23.584  1.00  0.00     0.069 A 
HETATM   21 CL2  UNL     1      -1.806 -34.590  22.343  1.00  0.00    -0.081 Cl
HETATM   22  C13 UNL     1      -4.320 -34.315  23.296  1.00  0.00     0.042 A 
BRANCH  19  23
HETATM   23  O2  UNL     1      -1.253 -33.840  25.128  1.00  0.00    -0.357 OA
ATOM     24  H2  UNL     1      -0.814 -34.448  25.711  1.00  0.00     0.217 HD
ENDBRANCH  19  23
ENDBRANCH  13  15
ENDBRANCH   6  13
BRANCH   7  25
HETATM   25  C15 UNL     1      -8.118 -36.153  22.362  1.00  0.00     0.159 C 
HETATM   26  N1  UNL     1      -9.268 -36.317  21.774  1.00  0.00    -0.249 N 
ATOM     27  H1  UNL     1     -10.084 -36.548  22.340  1.00  0.00     0.196 HD
BRANCH  25  28
HETATM   28  O3  UNL     1      -7.056 -35.842  21.537  1.00  0.00    -0.347 OA
ATOM     29  H3  UNL     1      -6.894 -34.984  21.162  1.00  0.00     0.219 HD
ENDBRANCH  25  28
BRANCH  26  30
HETATM   30  O4  UNL     1      -9.414 -36.189  20.419  1.00  0.00    -0.288 OA
ATOM     31  H4  UNL     1     -10.268 -36.116  20.010  1.00  0.00     0.244 HD
ENDBRANCH  26  30
ENDBRANCH   7  25
BRANCH  12  32
HETATM   32  C20 UNL     1     -12.872 -38.182  26.357  1.00  0.00     0.005 C 
BRANCH  32  33
HETATM   33  C21 UNL     1     -12.912 -39.654  26.256  1.00  0.00     0.001 C 
BRANCH  33  34
HETATM   34  C22 UNL     1     -14.032 -40.212  25.463  1.00  0.00     0.009 C 
BRANCH  34  35
HETATM   35  C23 UNL     1     -13.891 -39.942  24.006  1.00  0.00     0.117 C 
BRANCH  35  36
HETATM   36  C24 UNL     1     -12.733 -40.565  23.304  1.00  0.00     0.387 C 
HETATM   37  F1  UNL     1     -11.625 -39.730  23.222  1.00  0.00    -0.171 F 
HETATM   38  F2  UNL     1     -13.114 -40.672  21.920  1.00  0.00    -0.171 F 
HETATM   39  F3  UNL     1     -12.428 -41.854  23.631  1.00  0.00    -0.171 F 
ENDBRANCH  35  36
ENDBRANCH  34  35
ENDBRANCH  33  34
ENDBRANCH  32  33
ENDBRANCH  12  32
TORSDOF 11
ENDMDL
MODEL 5
REMARK VINA RESULT: -7.086425746      1.767      2.585
REMARK  11 active torsions:
REMARK  status: ('A' for Active; 'I' for Inactive)
REMARK    1  A    between atoms: C6_6  and  C7_7 
REMARK    2  A    between atoms: C7_7  and  C8_9 
REMARK    3  A    between atoms: C11_13  and  O2_14 
REMARK    4  A    between atoms: C14_19  and  C15_20 
REMARK    5  A    between atoms: C15_20  and  O3_21 
REMARK    6  A    between atoms: N1_23  and  O4_25 
REMARK    7  A    between atoms: C19_31  and  C20_32 
REMARK    8  A    between atoms: C20_32  and  C21_33 
REMARK    9  A    between atoms: C21_33  and  C22_34 
REMARK   10  A    between atoms: C22_34  and  C23_35 
REMARK   11  A    between atoms: C23_35  and  C24_36 
ROOT
HETATM    1  C1  UNL     1     -13.254 -36.347  24.069  1.00  0.00     0.010 C 
HETATM    2  C2  UNL     1     -11.899 -36.608  24.579  1.00  0.00    -0.012 C 
HETATM    3  C3  UNL     1     -11.212 -35.215  24.647  1.00  0.00     0.029 C 
HETATM    4  C4  UNL     1      -9.787 -35.462  25.100  1.00  0.00     0.085 C 
HETATM    5  C5  UNL     1      -8.956 -34.259  24.626  1.00  0.00     0.040 C 
HETATM    6  C6  UNL     1      -7.589 -34.999  24.526  1.00  0.00     0.093 C 
HETATM    7  C14 UNL     1      -8.007 -36.256  23.794  1.00  0.00     0.172 C 
HETATM    8  N2  UNL     1      -9.294 -36.557  24.358  1.00  0.00    -0.375 N 
HETATM    9  C16 UNL     1      -9.449 -37.857  24.834  1.00  0.00     0.064 C 
HETATM   10  C17 UNL     1     -10.439 -38.159  25.874  1.00  0.00     0.024 C 
HETATM   11  C18 UNL     1      -9.803 -38.141  27.260  1.00  0.00     0.016 C 
HETATM   12  C19 UNL     1     -11.716 -37.324  25.852  1.00  0.00    -0.002 C 
ENDROOT
BRANCH   6  13
HETATM   13  C7  UNL     1      -6.680 -34.124  23.817  1.00  0.00     0.166 C 
HETATM   14  O1  UNL     1      -7.086 -33.363  22.878  1.00  0.00    -0.292 OA
BRANCH  13  15
HETATM   15  C8  UNL     1      -5.265 -34.076  24.138  1.00  0.00     0.014 A 
HETATM   16  C9  UNL     1      -4.292 -34.363  23.207  1.00  0.00     0.042 A 
HETATM   17  C10 UNL     1      -2.936 -34.297  23.550  1.00  0.00     0.069 A 
HETATM   18 CL1  UNL     1      -1.689 -34.659  22.374  1.00  0.00    -0.081 Cl
HETATM   19  C11 UNL     1      -2.573 -33.947  24.818  1.00  0.00     0.109 A 
HETATM   20  C12 UNL     1      -3.514 -33.653  25.778  1.00  0.00     0.069 A 
HETATM   21 CL2  UNL     1      -3.084 -33.202  27.410  1.00  0.00    -0.081 Cl
HETATM   22  C13 UNL     1      -4.829 -33.725  25.414  1.00  0.00     0.042 A 
BRANCH  19  23
HETATM   23  O2  UNL     1      -1.232 -33.862  25.228  1.00  0.00    -0.357 OA
ATOM     24  H2  UNL     1      -0.731 -33.057  25.180  1.00  0.00     0.217 HD
ENDBRANCH  19  23
ENDBRANCH  13  15
ENDBRANCH   6  13
BRANCH   7  25
HETATM   25  C15 UNL     1      -8.120 -36.079  22.327  1.00  0.00     0.159 C 
HETATM   26  N1  UNL     1      -9.262 -36.304  21.746  1.00  0.00    -0.249 N 
ATOM     27  H1  UNL     1     -10.056 -36.598  22.315  1.00  0.00     0.196 HD
BRANCH  25  28
HETATM   28  O3  UNL     1      -7.088 -35.684  21.499  1.00  0.00    -0.347 OA
ATOM     29  H3  UNL     1      -7.018 -34.829  21.091  1.00  0.00     0.219 HD
ENDBRANCH  25  28
BRANCH  26  30
HETATM   30  O4  UNL     1      -9.430 -36.158  20.395  1.00  0.00    -0.288 OA
ATOM     31  H4  UNL     1     -10.288 -36.193  19.988  1.00  0.00     0.244 HD
ENDBRANCH  26  30
ENDBRANCH   7  25
BRANCH  12  32
HETATM   32  C20 UNL     1     -12.826 -38.109  26.377  1.00  0.00     0.005 C 
BRANCH  32  33
HETATM   33  C21 UNL     1     -12.939 -39.566  26.163  1.00  0.00     0.001 C 
BRANCH  33  34
HETATM   34  C22 UNL     1     -13.789 -39.981  25.022  1.00  0.00     0.009 C 
BRANCH  34  35
HETATM   35  C23 UNL     1     -13.011 -40.652  23.945  1.00  0.00     0.117 C 
BRANCH  35  36
HETATM   36  C24 UNL     1     -12.642 -39.832  22.756  1.00  0.00     0.387 C 
HETATM   37  F1  UNL     1     -13.662 -38.986  22.333  1.00  0.00    -0.171 F 
HETATM   38  F2  UNL     1     -12.552 -40.748  21.650  1.00  0.00    -0.171 F 
HETATM   39  F3  UNL     1     -11.409 -39.248  22.763  1.00  0.00    -0.171 F 
ENDBRANCH  35  36
ENDBRANCH  34  35
ENDBRANCH  33  34
ENDBRANCH  32  33
ENDBRANCH  12  32
TORSDOF 11
ENDMDL
