MODEL 1
REMARK VINA RESULT: -9.324383198      0.000      0.000
REMARK  10 active torsions:
REMARK  status: ('A' for Active; 'I' for Inactive)
REMARK    1  A    between atoms: C2_2  and  C4_4 
REMARK    2  A    between atoms: C4_4  and  C6_6 
REMARK    3  A    between atoms: C4_4  and  C25_43 
REMARK    4  A    between atoms: C6_6  and  N1_7 
REMARK    5  A    between atoms: C6_6  and  C20_31 
REMARK    6  A    between atoms: N1_7  and  C7_10 
REMARK    7  A    between atoms: C10_13  and  C11_14 
REMARK    8  A    between atoms: C12_17  and  C13_18 
REMARK    9  A    between atoms: C22_35  and  O3_36 
REMARK   10  A    between atoms: C23_38  and  C24_39 
ROOT
HETATM    1  N1  UNL     1      -9.875 -38.119  23.977  1.00  0.00    -0.061 N 
ATOM      2  H11 UNL     1     -10.406 -38.205  23.110  1.00  0.00     0.278 HD
ATOM      3  H12 UNL     1      -9.437 -39.040  23.984  1.00  0.00     0.278 HD
ENDROOT
BRANCH   1   4
HETATM    4  C6  UNL     1     -10.784 -37.928  25.168  1.00  0.00     0.238 C 
BRANCH   4   5
HETATM    5  C4  UNL     1     -12.211 -37.693  24.715  1.00  0.00     0.089 C 
HETATM    6  C5  UNL     1     -12.979 -38.674  25.678  1.00  0.00     0.027 C 
BRANCH   5   7
HETATM    7  C2  UNL     1     -12.685 -38.011  23.388  1.00  0.00    -0.004 C 
HETATM    8  C1  UNL     1     -14.148 -38.558  23.451  1.00  0.00     0.011 C 
HETATM    9  C3  UNL     1     -12.855 -36.878  22.398  1.00  0.00     0.011 C 
ENDBRANCH   5   7
BRANCH   5  10
HETATM   10  C25 UNL     1     -12.703 -36.338  25.231  1.00  0.00     0.397 C 
HETATM   11  F4  UNL     1     -12.886 -36.371  26.600  1.00  0.00    -0.170 F 
HETATM   12  F5  UNL     1     -11.740 -35.413  24.957  1.00  0.00    -0.170 F 
HETATM   13  F6  UNL     1     -13.940 -36.032  24.677  1.00  0.00    -0.170 F 
ENDBRANCH   5  10
ENDBRANCH   4   5
BRANCH   4  14
HETATM   14  C20 UNL     1     -10.599 -39.249  25.850  1.00  0.00     0.008 A 
HETATM   15  C21 UNL     1     -10.419 -40.454  25.209  1.00  0.00     0.100 A 
HETATM   16  N5  UNL     1     -10.138 -41.373  26.180  1.00  0.00    -0.346 N 
HETATM   17  C22 UNL     1     -10.142 -40.777  27.360  1.00  0.00     0.155 A 
ATOM     18  H5  UNL     1      -9.954 -42.364  26.019  1.00  0.00     0.167 HD
HETATM   19  C23 UNL     1     -10.425 -39.423  27.225  1.00  0.00     0.108 A 
BRANCH  17  20
HETATM   20  O3  UNL     1      -9.883 -41.469  28.577  1.00  0.00    -0.345 OA
ATOM     21  H3  UNL     1     -10.573 -41.804  29.138  1.00  0.00     0.219 HD
ENDBRANCH  17  20
BRANCH  19  22
HETATM   22  C24 UNL     1     -10.462 -38.520  28.355  1.00  0.00     0.422 C 
HETATM   23  F1  UNL     1      -9.905 -38.899  29.540  1.00  0.00    -0.166 F 
HETATM   24  F2  UNL     1     -11.603 -37.807  28.578  1.00  0.00    -0.166 F 
HETATM   25  F3  UNL     1      -9.531 -37.443  28.008  1.00  0.00    -0.166 F 
ENDBRANCH  19  22
ENDBRANCH   4  14
ENDBRANCH   1   4
BRANCH   1  26
HETATM   26  C7  UNL     1      -8.894 -37.063  23.897  1.00  0.00     0.186 C 
HETATM   27  C8  UNL     1      -8.767 -36.149  25.057  1.00  0.00     0.034 C 
HETATM   28  C9  UNL     1      -8.810 -34.675  24.716  1.00  0.00     0.015 C 
HETATM   29  C10 UNL     1      -7.938 -34.299  23.528  1.00  0.00     0.063 C 
HETATM   30  C18 UNL     1      -7.772 -35.400  22.550  1.00  0.00     0.015 C 
HETATM   31  C19 UNL     1      -9.096 -36.201  22.642  1.00  0.00     0.034 C 
BRANCH  29  32
HETATM   32  C11 UNL     1      -6.667 -33.687  23.963  1.00  0.00     0.152 A 
HETATM   33  N2  UNL     1      -5.535 -34.332  24.275  1.00  0.00    -0.322 N 
HETATM   34  C12 UNL     1      -4.554 -33.442  24.640  1.00  0.00     0.143 A 
ATOM     35  H2  UNL     1      -5.417 -35.345  24.244  1.00  0.00     0.169 HD
HETATM   36  N4  UNL     1      -5.153 -32.250  24.532  1.00  0.00    -0.242 N 
HETATM   37  O2  UNL     1      -6.406 -32.421  24.126  1.00  0.00    -0.222 OA
ATOM     38  H4  UNL     1      -4.715 -31.350  24.731  1.00  0.00     0.196 HD
BRANCH  34  39
HETATM   39  C13 UNL     1      -3.195 -33.819  24.996  1.00  0.00     0.078 A 
HETATM   40  C14 UNL     1      -2.442 -34.521  24.061  1.00  0.00     0.022 A 
HETATM   41  C15 UNL     1      -1.130 -34.924  24.299  1.00  0.00     0.018 A 
HETATM   42  C16 UNL     1      -0.627 -34.577  25.530  1.00  0.00     0.091 A 
HETATM   43  N3  UNL     1      -1.340 -33.906  26.435  1.00  0.00    -0.333 N 
HETATM   44  C17 UNL     1      -2.629 -33.517  26.185  1.00  0.00     0.259 A 
ATOM     45  H3  UNL     1      -0.915 -33.677  27.334  1.00  0.00     0.168 HD
HETATM   46  O1  UNL     1      -3.284 -32.882  27.066  1.00  0.00    -0.267 OA
ENDBRANCH  34  39
ENDBRANCH  29  32
ENDBRANCH   1  26
TORSDOF 10
ENDMDL
MODEL 2
REMARK VINA RESULT: -9.272307615      0.824      1.060
REMARK  10 active torsions:
REMARK  status: ('A' for Active; 'I' for Inactive)
REMARK    1  A    between atoms: C2_2  and  C4_4 
REMARK    2  A    between atoms: C4_4  and  C6_6 
REMARK    3  A    between atoms: C4_4  and  C25_43 
REMARK    4  A    between atoms: C6_6  and  N1_7 
REMARK    5  A    between atoms: C6_6  and  C20_31 
REMARK    6  A    between atoms: N1_7  and  C7_10 
REMARK    7  A    between atoms: C10_13  and  C11_14 
REMARK    8  A    between atoms: C12_17  and  C13_18 
REMARK    9  A    between atoms: C22_35  and  O3_36 
REMARK   10  A    between atoms: C23_38  and  C24_39 
ROOT
HETATM    1  N1  UNL     1      -9.845 -38.172  24.040  1.00  0.00    -0.061 N 
ATOM      2  H11 UNL     1     -10.372 -38.295  23.176  1.00  0.00     0.278 HD
ATOM      3  H12 UNL     1      -9.383 -39.081  24.071  1.00  0.00     0.278 HD
ENDROOT
BRANCH   1   4
HETATM    4  C6  UNL     1     -10.760 -37.973  25.225  1.00  0.00     0.238 C 
BRANCH   4   5
HETATM    5  C4  UNL     1     -12.183 -37.733  24.763  1.00  0.00     0.089 C 
HETATM    6  C5  UNL     1     -12.957 -38.735  25.699  1.00  0.00     0.027 C 
BRANCH   5   7
HETATM    7  C2  UNL     1     -12.643 -38.026  23.426  1.00  0.00    -0.004 C 
HETATM    8  C1  UNL     1     -14.081 -38.637  23.468  1.00  0.00     0.011 C 
HETATM    9  C3  UNL     1     -12.863 -36.868  22.474  1.00  0.00     0.011 C 
ENDBRANCH   5   7
BRANCH   5  10
HETATM   10  C25 UNL     1     -12.684 -36.390  25.301  1.00  0.00     0.397 C 
HETATM   11  F4  UNL     1     -12.826 -36.434  26.675  1.00  0.00    -0.170 F 
HETATM   12  F5  UNL     1     -11.745 -35.446  25.006  1.00  0.00    -0.170 F 
HETATM   13  F6  UNL     1     -13.941 -36.104  24.784  1.00  0.00    -0.170 F 
ENDBRANCH   5  10
ENDBRANCH   4   5
BRANCH   4  14
HETATM   14  C20 UNL     1     -10.585 -39.293  25.912  1.00  0.00     0.008 A 
HETATM   15  C21 UNL     1     -10.404 -40.500  25.276  1.00  0.00     0.100 A 
HETATM   16  N5  UNL     1     -10.134 -41.417  26.252  1.00  0.00    -0.346 N 
HETATM   17  C22 UNL     1     -10.144 -40.818  27.431  1.00  0.00     0.155 A 
ATOM     18  H5  UNL     1      -9.952 -42.409  26.096  1.00  0.00     0.167 HD
HETATM   19  C23 UNL     1     -10.421 -39.463  27.289  1.00  0.00     0.108 A 
BRANCH  17  20
HETATM   20  O3  UNL     1      -9.897 -41.507  28.652  1.00  0.00    -0.345 OA
ATOM     21  H3  UNL     1     -10.083 -41.131  29.504  1.00  0.00     0.219 HD
ENDBRANCH  17  20
BRANCH  19  22
HETATM   22  C24 UNL     1     -10.463 -38.556  28.416  1.00  0.00     0.422 C 
HETATM   23  F1  UNL     1      -9.904 -38.928  29.602  1.00  0.00    -0.166 F 
HETATM   24  F2  UNL     1     -11.608 -37.849  28.637  1.00  0.00    -0.166 F 
HETATM   25  F3  UNL     1      -9.538 -37.475  28.065  1.00  0.00    -0.166 F 
ENDBRANCH  19  22
ENDBRANCH   4  14
ENDBRANCH   1   4
BRANCH   1  26
HETATM   26  C7  UNL     1      -8.890 -37.094  23.932  1.00  0.00     0.186 C 
HETATM   27  C8  UNL     1      -8.748 -36.179  25.090  1.00  0.00     0.034 C 
HETATM   28  C9  UNL     1      -8.835 -34.706  24.755  1.00  0.00     0.015 C 
HETATM   29  C10 UNL     1      -8.010 -34.308  23.542  1.00  0.00     0.063 C 
HETATM   30  C18 UNL     1      -7.850 -35.403  22.555  1.00  0.00     0.015 C 
HETATM   31  C19 UNL     1      -9.152 -36.234  22.687  1.00  0.00     0.034 C 
BRANCH  29  32
HETATM   32  C11 UNL     1      -6.740 -33.668  23.939  1.00  0.00     0.152 A 
HETATM   33  N2  UNL     1      -5.593 -34.290  24.242  1.00  0.00    -0.322 N 
HETATM   34  C12 UNL     1      -4.619 -33.377  24.569  1.00  0.00     0.143 A 
ATOM     35  H2  UNL     1      -5.461 -35.301  24.232  1.00  0.00     0.169 HD
HETATM   36  N4  UNL     1      -5.237 -32.197  24.446  1.00  0.00    -0.242 N 
HETATM   37  O2  UNL     1      -6.495 -32.395  24.068  1.00  0.00    -0.222 OA
ATOM     38  H4  UNL     1      -4.809 -31.287  24.617  1.00  0.00     0.196 HD
BRANCH  34  39
HETATM   39  C13 UNL     1      -3.248 -33.727  24.907  1.00  0.00     0.078 A 
HETATM   40  C14 UNL     1      -2.777 -33.393  26.172  1.00  0.00     0.022 A 
HETATM   41  C15 UNL     1      -1.484 -33.688  26.598  1.00  0.00     0.018 A 
HETATM   42  C16 UNL     1      -0.699 -34.337  25.674  1.00  0.00     0.091 A 
HETATM   43  N3  UNL     1      -1.139 -34.661  24.458  1.00  0.00    -0.333 N 
HETATM   44  C17 UNL     1      -2.414 -34.364  24.056  1.00  0.00     0.259 A 
ATOM     45  H3  UNL     1      -0.512 -35.142  23.813  1.00  0.00     0.168 HD
HETATM   46  O1  UNL     1      -2.804 -34.682  22.891  1.00  0.00    -0.267 OA
ENDBRANCH  34  39
ENDBRANCH  29  32
ENDBRANCH   1  26
TORSDOF 10
ENDMDL
MODEL 3
REMARK VINA RESULT: -9.054026783      0.958      1.414
REMARK  10 active torsions:
REMARK  status: ('A' for Active; 'I' for Inactive)
REMARK    1  A    between atoms: C2_2  and  C4_4 
REMARK    2  A    between atoms: C4_4  and  C6_6 
REMARK    3  A    between atoms: C4_4  and  C25_43 
REMARK    4  A    between atoms: C6_6  and  N1_7 
REMARK    5  A    between atoms: C6_6  and  C20_31 
REMARK    6  A    between atoms: N1_7  and  C7_10 
REMARK    7  A    between atoms: C10_13  and  C11_14 
REMARK    8  A    between atoms: C12_17  and  C13_18 
REMARK    9  A    between atoms: C22_35  and  O3_36 
REMARK   10  A    between atoms: C23_38  and  C24_39 
ROOT
HETATM    1  N1  UNL     1     -10.057 -38.016  24.001  1.00  0.00    -0.061 N 
ATOM      2  H11 UNL     1     -10.634 -37.970  23.161  1.00  0.00     0.278 HD
ATOM      3  H12 UNL     1      -9.678 -38.955  23.879  1.00  0.00     0.278 HD
ENDROOT
BRANCH   1   4
HETATM    4  C6  UNL     1     -10.892 -37.913  25.255  1.00  0.00     0.238 C 
BRANCH   4   5
HETATM    5  C4  UNL     1     -12.354 -37.724  24.905  1.00  0.00     0.089 C 
HETATM    6  C5  UNL     1     -12.526 -36.192  25.223  1.00  0.00     0.027 C 
BRANCH   5   7
HETATM    7  C2  UNL     1     -13.430 -38.384  25.607  1.00  0.00    -0.004 C 
HETATM    8  C1  UNL     1     -14.626 -37.399  25.816  1.00  0.00     0.011 C 
HETATM    9  C3  UNL     1     -14.136 -39.534  24.920  1.00  0.00     0.011 C 
ENDBRANCH   5   7
BRANCH   5  10
HETATM   10  C25 UNL     1     -12.528 -37.724  23.383  1.00  0.00     0.397 C 
HETATM   11  F4  UNL     1     -13.866 -37.790  23.043  1.00  0.00    -0.170 F 
HETATM   12  F5  UNL     1     -12.030 -36.547  22.907  1.00  0.00    -0.170 F 
HETATM   13  F6  UNL     1     -11.926 -38.846  22.830  1.00  0.00    -0.170 F 
ENDBRANCH   5  10
ENDBRANCH   4   5
BRANCH   4  14
HETATM   14  C20 UNL     1     -10.607 -39.250  25.867  1.00  0.00     0.008 A 
HETATM   15  C21 UNL     1     -10.281 -40.389  25.167  1.00  0.00     0.100 A 
HETATM   16  N5  UNL     1      -9.953 -41.336  26.095  1.00  0.00    -0.346 N 
HETATM   17  C22 UNL     1     -10.066 -40.818  27.307  1.00  0.00     0.155 A 
ATOM     18  H5  UNL     1      -9.665 -42.292  25.887  1.00  0.00     0.167 HD
HETATM   19  C23 UNL     1     -10.475 -39.492  27.236  1.00  0.00     0.108 A 
BRANCH  17  20
HETATM   20  O3  UNL     1      -9.793 -41.556  28.493  1.00  0.00    -0.345 OA
ATOM     21  H3  UNL     1      -8.913 -41.775  28.775  1.00  0.00     0.219 HD
ENDBRANCH  17  20
BRANCH  19  22
HETATM   22  C24 UNL     1     -10.650 -38.668  28.414  1.00  0.00     0.422 C 
HETATM   23  F1  UNL     1     -10.293 -39.154  29.636  1.00  0.00    -0.166 F 
HETATM   24  F2  UNL     1     -11.785 -37.919  28.519  1.00  0.00    -0.166 F 
HETATM   25  F3  UNL     1      -9.638 -37.615  28.291  1.00  0.00    -0.166 F 
ENDBRANCH  19  22
ENDBRANCH   4  14
ENDBRANCH   1   4
BRANCH   1  26
HETATM   26  C7  UNL     1      -9.015 -37.017  23.985  1.00  0.00     0.186 C 
HETATM   27  C8  UNL     1      -8.993 -36.024  25.087  1.00  0.00     0.034 C 
HETATM   28  C9  UNL     1      -8.906 -34.580  24.644  1.00  0.00     0.015 C 
HETATM   29  C10 UNL     1      -7.862 -34.335  23.565  1.00  0.00     0.063 C 
HETATM   30  C18 UNL     1      -7.629 -35.514  22.697  1.00  0.00     0.015 C 
HETATM   31  C19 UNL     1      -8.997 -36.243  22.659  1.00  0.00     0.034 C 
BRANCH  29  32
HETATM   32  C11 UNL     1      -6.629 -33.753  24.130  1.00  0.00     0.152 A 
HETATM   33  N2  UNL     1      -5.451 -34.372  24.283  1.00  0.00    -0.322 N 
HETATM   34  C12 UNL     1      -4.527 -33.524  24.844  1.00  0.00     0.143 A 
ATOM     35  H2  UNL     1      -5.265 -35.340  24.020  1.00  0.00     0.169 HD
HETATM   36  N4  UNL     1      -5.207 -32.384  25.014  1.00  0.00    -0.242 N 
HETATM   37  O2  UNL     1      -6.451 -32.544  24.580  1.00  0.00    -0.222 OA
ATOM     38  H4  UNL     1      -4.828 -31.526  25.416  1.00  0.00     0.196 HD
BRANCH  34  39
HETATM   39  C13 UNL     1      -3.140 -33.877  25.102  1.00  0.00     0.078 A 
HETATM   40  C14 UNL     1      -2.445 -34.575  24.121  1.00  0.00     0.022 A 
HETATM   41  C15 UNL     1      -1.113 -34.956  24.265  1.00  0.00     0.018 A 
HETATM   42  C16 UNL     1      -0.528 -34.591  25.454  1.00  0.00     0.091 A 
HETATM   43  N3  UNL     1      -1.183 -33.923  26.403  1.00  0.00    -0.333 N 
HETATM   44  C17 UNL     1      -2.493 -33.556  26.245  1.00  0.00     0.259 A 
ATOM     45  H3  UNL     1      -0.698 -33.679  27.267  1.00  0.00     0.168 HD
HETATM   46  O1  UNL     1      -3.093 -32.923  27.167  1.00  0.00    -0.267 OA
ENDBRANCH  34  39
ENDBRANCH  29  32
ENDBRANCH   1  26
TORSDOF 10
ENDMDL
MODEL 4
REMARK VINA RESULT: -8.930672396      2.244      2.920
REMARK  10 active torsions:
REMARK  status: ('A' for Active; 'I' for Inactive)
REMARK    1  A    between atoms: C2_2  and  C4_4 
REMARK    2  A    between atoms: C4_4  and  C6_6 
REMARK    3  A    between atoms: C4_4  and  C25_43 
REMARK    4  A    between atoms: C6_6  and  N1_7 
REMARK    5  A    between atoms: C6_6  and  C20_31 
REMARK    6  A    between atoms: N1_7  and  C7_10 
REMARK    7  A    between atoms: C10_13  and  C11_14 
REMARK    8  A    between atoms: C12_17  and  C13_18 
REMARK    9  A    between atoms: C22_35  and  O3_36 
REMARK   10  A    between atoms: C23_38  and  C24_39 
ROOT
HETATM    1  N1  UNL     1     -10.281 -38.277  24.796  1.00  0.00    -0.061 N 
ATOM      2  H11 UNL     1     -10.219 -39.177  24.320  1.00  0.00     0.278 HD
ATOM      3  H12 UNL     1     -10.070 -38.588  25.744  1.00  0.00     0.278 HD
ENDROOT
BRANCH   1   4
HETATM    4  C6  UNL     1     -11.670 -37.692  24.700  1.00  0.00     0.238 C 
BRANCH   4   5
HETATM    5  C4  UNL     1     -12.507 -38.473  23.707  1.00  0.00     0.089 C 
HETATM    6  C5  UNL     1     -13.733 -38.863  24.614  1.00  0.00     0.027 C 
BRANCH   5   7
HETATM    7  C2  UNL     1     -12.071 -39.709  23.100  1.00  0.00    -0.004 C 
HETATM    8  C1  UNL     1     -12.397 -40.917  24.036  1.00  0.00     0.011 C 
HETATM    9  C3  UNL     1     -12.749 -40.158  21.822  1.00  0.00     0.011 C 
ENDBRANCH   5   7
BRANCH   5  10
HETATM   10  C25 UNL     1     -13.174 -37.510  22.720  1.00  0.00     0.397 C 
HETATM   11  F4  UNL     1     -13.101 -36.209  23.178  1.00  0.00    -0.170 F 
HETATM   12  F5  UNL     1     -12.490 -37.580  21.542  1.00  0.00    -0.170 F 
HETATM   13  F6  UNL     1     -14.525 -37.808  22.596  1.00  0.00    -0.170 F 
ENDBRANCH   5  10
ENDBRANCH   4   5
BRANCH   4  14
HETATM   14  C20 UNL     1     -12.126 -37.873  26.115  1.00  0.00     0.008 A 
HETATM   15  C21 UNL     1     -11.662 -38.837  26.981  1.00  0.00     0.100 A 
HETATM   16  N5  UNL     1     -12.213 -38.563  28.201  1.00  0.00    -0.346 N 
HETATM   17  C22 UNL     1     -12.977 -37.487  28.104  1.00  0.00     0.155 A 
ATOM     18  H5  UNL     1     -12.059 -39.102  29.053  1.00  0.00     0.167 HD
HETATM   19  C23 UNL     1     -12.965 -36.994  26.804  1.00  0.00     0.108 A 
BRANCH  17  20
HETATM   20  O3  UNL     1     -13.694 -36.945  29.208  1.00  0.00    -0.345 OA
ATOM     21  H3  UNL     1     -14.518 -36.482  29.112  1.00  0.00     0.219 HD
ENDBRANCH  17  20
BRANCH  19  22
HETATM   22  C24 UNL     1     -13.691 -35.803  26.419  1.00  0.00     0.422 C 
HETATM   23  F1  UNL     1     -13.975 -34.853  27.354  1.00  0.00    -0.166 F 
HETATM   24  F2  UNL     1     -14.734 -35.932  25.549  1.00  0.00    -0.166 F 
HETATM   25  F3  UNL     1     -12.748 -35.034  25.602  1.00  0.00    -0.166 F 
ENDBRANCH  19  22
ENDBRANCH   4  14
ENDBRANCH   1   4
BRANCH   1  26
HETATM   26  C7  UNL     1      -9.289 -37.348  24.308  1.00  0.00     0.186 C 
HETATM   27  C8  UNL     1      -8.837 -36.275  25.227  1.00  0.00     0.034 C 
HETATM   28  C9  UNL     1      -8.878 -34.879  24.646  1.00  0.00     0.015 C 
HETATM   29  C10 UNL     1      -8.295 -34.784  23.244  1.00  0.00     0.063 C 
HETATM   30  C18 UNL     1      -8.431 -36.039  22.468  1.00  0.00     0.015 C 
HETATM   31  C19 UNL     1      -9.737 -36.683  22.999  1.00  0.00     0.034 C 
BRANCH  29  32
HETATM   32  C11 UNL     1      -6.925 -34.236  23.264  1.00  0.00     0.152 A 
HETATM   33  N2  UNL     1      -6.028 -34.364  24.251  1.00  0.00    -0.322 N 
HETATM   34  C12 UNL     1      -4.856 -33.722  23.927  1.00  0.00     0.143 A 
ATOM     35  H2  UNL     1      -6.192 -34.867  25.123  1.00  0.00     0.169 HD
HETATM   36  N4  UNL     1      -5.100 -33.213  22.714  1.00  0.00    -0.242 N 
HETATM   37  O2  UNL     1      -6.333 -33.534  22.340  1.00  0.00    -0.222 OA
ATOM     38  H4  UNL     1      -4.441 -32.664  22.162  1.00  0.00     0.196 HD
BRANCH  34  39
HETATM   39  C13 UNL     1      -3.670 -33.708  24.768  1.00  0.00     0.078 A 
HETATM   40  C14 UNL     1      -3.783 -33.199  26.057  1.00  0.00     0.022 A 
HETATM   41  C15 UNL     1      -2.711 -33.145  26.944  1.00  0.00     0.018 A 
HETATM   42  C16 UNL     1      -1.524 -33.635  26.454  1.00  0.00     0.091 A 
HETATM   43  N3  UNL     1      -1.402 -34.125  25.221  1.00  0.00    -0.333 N 
HETATM   44  C17 UNL     1      -2.467 -34.169  24.361  1.00  0.00     0.259 A 
ATOM     45  H3  UNL     1      -0.495 -34.473  24.910  1.00  0.00     0.168 HD
HETATM   46  O1  UNL     1      -2.321 -34.638  23.191  1.00  0.00    -0.267 OA
ENDBRANCH  34  39
ENDBRANCH  29  32
ENDBRANCH   1  26
TORSDOF 10
ENDMDL
MODEL 5
REMARK VINA RESULT: -8.754534918      0.983      1.527
REMARK  10 active torsions:
REMARK  status: ('A' for Active; 'I' for Inactive)
REMARK    1  A    between atoms: C2_2  and  C4_4 
REMARK    2  A    between atoms: C4_4  and  C6_6 
REMARK    3  A    between atoms: C4_4  and  C25_43 
REMARK    4  A    between atoms: C6_6  and  N1_7 
REMARK    5  A    between atoms: C6_6  and  C20_31 
REMARK    6  A    between atoms: N1_7  and  C7_10 
REMARK    7  A    between atoms: C10_13  and  C11_14 
REMARK    8  A    between atoms: C12_17  and  C13_18 
REMARK    9  A    between atoms: C22_35  and  O3_36 
REMARK   10  A    between atoms: C23_38  and  C24_39 
ROOT
HETATM    1  N1  UNL     1     -10.095 -38.148  24.229  1.00  0.00    -0.061 N 
ATOM      2  H11 UNL     1     -10.740 -38.096  23.440  1.00  0.00     0.278 HD
ATOM      3  H12 UNL     1      -9.700 -39.071  24.048  1.00  0.00     0.278 HD
ENDROOT
BRANCH   1   4
HETATM    4  C6  UNL     1     -10.828 -38.107  25.549  1.00  0.00     0.238 C 
BRANCH   4   5
HETATM    5  C4  UNL     1     -12.253 -37.630  25.350  1.00  0.00     0.089 C 
HETATM    6  C5  UNL     1     -12.799 -38.758  24.397  1.00  0.00     0.027 C 
BRANCH   5   7
HETATM    7  C2  UNL     1     -12.589 -36.385  24.702  1.00  0.00    -0.004 C 
HETATM    8  C1  UNL     1     -13.669 -36.623  23.596  1.00  0.00     0.011 C 
HETATM    9  C3  UNL     1     -13.268 -35.309  25.523  1.00  0.00     0.011 C 
ENDBRANCH   5   7
BRANCH   5  10
HETATM   10  C25 UNL     1     -13.072 -37.900  26.616  1.00  0.00     0.397 C 
HETATM   11  F4  UNL     1     -14.315 -37.301  26.533  1.00  0.00    -0.170 F 
HETATM   12  F5  UNL     1     -13.261 -39.247  26.710  1.00  0.00    -0.170 F 
HETATM   13  F6  UNL     1     -12.443 -37.348  27.724  1.00  0.00    -0.170 F 
ENDBRANCH   5  10
ENDBRANCH   4   5
BRANCH   4  14
HETATM   14  C20 UNL     1     -10.746 -39.552  25.936  1.00  0.00     0.008 A 
HETATM   15  C21 UNL     1     -10.888 -40.614  25.072  1.00  0.00     0.100 A 
HETATM   16  N5  UNL     1     -10.593 -41.740  25.788  1.00  0.00    -0.346 N 
HETATM   17  C22 UNL     1     -10.284 -41.401  27.028  1.00  0.00     0.155 A 
ATOM     18  H5  UNL     1     -10.609 -42.692  25.422  1.00  0.00     0.167 HD
HETATM   19  C23 UNL     1     -10.357 -40.023  27.192  1.00  0.00     0.108 A 
BRANCH  17  20
HETATM   20  O3  UNL     1      -9.929 -42.354  28.025  1.00  0.00    -0.345 OA
ATOM     21  H3  UNL     1      -9.058 -42.410  28.400  1.00  0.00     0.219 HD
ENDBRANCH  17  20
BRANCH  19  22
HETATM   22  C24 UNL     1     -10.038 -39.372  28.445  1.00  0.00     0.422 C 
HETATM   23  F1  UNL     1      -9.935 -38.013  28.492  1.00  0.00    -0.166 F 
HETATM   24  F2  UNL     1      -9.099 -39.943  29.252  1.00  0.00    -0.166 F 
HETATM   25  F3  UNL     1     -11.240 -39.530  29.269  1.00  0.00    -0.166 F 
ENDBRANCH  19  22
ENDBRANCH   4  14
ENDBRANCH   1   4
BRANCH   1  26
HETATM   26  C7  UNL     1      -9.087 -37.117  24.161  1.00  0.00     0.186 C 
HETATM   27  C8  UNL     1      -9.030 -36.133  25.269  1.00  0.00     0.034 C 
HETATM   28  C9  UNL     1      -9.014 -34.683  24.835  1.00  0.00     0.015 C 
HETATM   29  C10 UNL     1      -8.044 -34.398  23.699  1.00  0.00     0.063 C 
HETATM   30  C18 UNL     1      -7.828 -35.562  22.806  1.00  0.00     0.015 C 
HETATM   31  C19 UNL     1      -9.172 -36.333  22.844  1.00  0.00     0.034 C 
BRANCH  29  32
HETATM   32  C11 UNL     1      -6.797 -33.782  24.194  1.00  0.00     0.152 A 
HETATM   33  N2  UNL     1      -5.616 -34.391  24.360  1.00  0.00    -0.322 N 
HETATM   34  C12 UNL     1      -4.679 -33.509  24.841  1.00  0.00     0.143 A 
ATOM     35  H2  UNL     1      -5.437 -35.375  24.157  1.00  0.00     0.169 HD
HETATM   36  N4  UNL     1      -5.355 -32.360  24.953  1.00  0.00    -0.242 N 
HETATM   37  O2  UNL     1      -6.609 -32.546  24.560  1.00  0.00    -0.222 OA
ATOM     38  H4  UNL     1      -4.966 -31.478  25.288  1.00  0.00     0.196 HD
BRANCH  34  39
HETATM   39  C13 UNL     1      -3.286 -33.847  25.090  1.00  0.00     0.078 A 
HETATM   40  C14 UNL     1      -2.586 -34.520  24.095  1.00  0.00     0.022 A 
HETATM   41  C15 UNL     1      -1.248 -34.885  24.228  1.00  0.00     0.018 A 
HETATM   42  C16 UNL     1      -0.663 -34.530  25.421  1.00  0.00     0.091 A 
HETATM   43  N3  UNL     1      -1.325 -33.886  26.383  1.00  0.00    -0.333 N 
HETATM   44  C17 UNL     1      -2.640 -33.535  26.235  1.00  0.00     0.259 A 
ATOM     45  H3  UNL     1      -0.840 -33.649  27.249  1.00  0.00     0.168 HD
HETATM   46  O1  UNL     1      -3.245 -32.925  27.168  1.00  0.00    -0.267 OA
ENDBRANCH  34  39
ENDBRANCH  29  32
ENDBRANCH   1  26
TORSDOF 10
ENDMDL
