MODEL 1
REMARK VINA RESULT: -5.855711930      0.000      0.000
REMARK  3 active torsions:
REMARK  status: ('A' for Active; 'I' for Inactive)
REMARK    1  A    between atoms: C2_2  and  C4_4 
REMARK    2  A    between atoms: C6_6  and  N1_7 
REMARK    3  A    between atoms: N2_9  and  N3_11 
ROOT
HETATM    1  N1  UNL     1       6.481  10.689   1.772  1.00  0.00    -0.297 N 
ATOM      2  H1  UNL     1       7.110   9.891   1.699  1.00  0.00     0.187 HD
HETATM    3  N2  UNL     1       6.508  11.609   0.894  1.00  0.00    -0.245 N 
ATOM      4  H2  UNL     1       5.872  12.402   0.981  1.00  0.00     0.208 HD
ENDROOT
BRANCH   1   5
HETATM    5  C6  UNL     1       5.577  10.782   2.842  1.00  0.00     0.115 C 
HETATM    6  C4  UNL     1       5.962  10.662   4.083  1.00  0.00    -0.040 C 
HETATM    7  C5  UNL     1       4.882  10.783   5.152  1.00  0.00     0.050 C 
BRANCH   6   8
HETATM    8  C2  UNL     1       7.320  10.428   4.495  1.00  0.00    -0.064 C 
HETATM    9  C1  UNL     1       7.984  11.452   5.059  1.00  0.00     0.019 C 
HETATM   10  C3  UNL     1       8.004   9.144   4.331  1.00  0.00     0.048 C 
ENDBRANCH   6   8
ENDBRANCH   1   5
BRANCH   3  11
HETATM   11  N3  UNL     1       7.384  11.555  -0.177  1.00  0.00    -0.310 N 
HETATM   12  C7  UNL     1       8.815  11.519  -0.027  1.00  0.00     0.170 C 
HETATM   13  C8  UNL     1       9.310  10.216  -0.606  1.00  0.00     0.189 C 
HETATM   14  O1  UNL     1       8.518   9.835  -1.674  1.00  0.00    -0.388 OA
HETATM   15  C9  UNL     1       7.950  10.885  -2.372  1.00  0.00     0.189 C 
HETATM   16  C10 UNL     1       6.852  11.531  -1.518  1.00  0.00     0.170 C 
ENDBRANCH   3  11
TORSDOF 3
ENDMDL
MODEL 2
REMARK VINA RESULT: -5.711842219      2.300      3.532
REMARK  3 active torsions:
REMARK  status: ('A' for Active; 'I' for Inactive)
REMARK    1  A    between atoms: C2_2  and  C4_4 
REMARK    2  A    between atoms: C6_6  and  N1_7 
REMARK    3  A    between atoms: N2_9  and  N3_11 
ROOT
HETATM    1  N1  UNL     1       7.931   9.994   2.717  1.00  0.00    -0.297 N 
ATOM      2  H1  UNL     1       7.740   9.380   1.927  1.00  0.00     0.187 HD
HETATM    3  N2  UNL     1       9.077  10.529   2.850  1.00  0.00    -0.245 N 
ATOM      4  H2  UNL     1       9.253  11.142   3.646  1.00  0.00     0.208 HD
ENDROOT
BRANCH   1   5
HETATM    5  C6  UNL     1       6.931  10.256   3.668  1.00  0.00     0.115 C 
HETATM    6  C4  UNL     1       5.738  10.657   3.322  1.00  0.00    -0.040 C 
HETATM    7  C5  UNL     1       4.745  10.906   4.451  1.00  0.00     0.050 C 
BRANCH   6   8
HETATM    8  C2  UNL     1       5.313  10.873   1.966  1.00  0.00    -0.064 C 
HETATM    9  C1  UNL     1       4.208  10.229   1.551  1.00  0.00     0.019 C 
HETATM   10  C3  UNL     1       6.018  11.749   1.028  1.00  0.00     0.048 C 
ENDBRANCH   6   8
ENDBRANCH   1   5
BRANCH   3  11
HETATM   11  N3  UNL     1      10.089  10.296   1.934  1.00  0.00    -0.310 N 
HETATM   12  C7  UNL     1       9.885   9.605   0.689  1.00  0.00     0.170 C 
HETATM   13  C8  UNL     1      10.203  10.566  -0.432  1.00  0.00     0.189 C 
HETATM   14  O1  UNL     1      11.213  11.431  -0.049  1.00  0.00    -0.388 OA
HETATM   15  C9  UNL     1      12.107  10.902   0.863  1.00  0.00     0.189 C 
HETATM   16  C10 UNL     1      11.422  10.765   2.228  1.00  0.00     0.170 C 
ENDBRANCH   3  11
TORSDOF 3
ENDMDL
MODEL 3
REMARK VINA RESULT: -5.482029226      3.309      4.249
REMARK  3 active torsions:
REMARK  status: ('A' for Active; 'I' for Inactive)
REMARK    1  A    between atoms: C2_2  and  C4_4 
REMARK    2  A    between atoms: C6_6  and  N1_7 
REMARK    3  A    between atoms: N2_9  and  N3_11 
ROOT
HETATM    1  N1  UNL     1       8.702  10.816   2.291  1.00  0.00    -0.297 N 
ATOM      2  H1  UNL     1       8.922  11.514   3.001  1.00  0.00     0.187 HD
HETATM    3  N2  UNL     1       9.612  10.050   1.843  1.00  0.00    -0.245 N 
ATOM      4  H2  UNL     1       9.377   9.357   1.132  1.00  0.00     0.208 HD
ENDROOT
BRANCH   1   5
HETATM    5  C6  UNL     1       7.392  10.695   1.801  1.00  0.00     0.115 C 
HETATM    6  C4  UNL     1       6.367  10.557   2.597  1.00  0.00    -0.040 C 
HETATM    7  C5  UNL     1       4.999  10.436   1.938  1.00  0.00     0.050 C 
BRANCH   6   8
HETATM    8  C2  UNL     1       6.451  10.514   4.032  1.00  0.00    -0.064 C 
HETATM    9  C1  UNL     1       5.672  11.363   4.726  1.00  0.00     0.019 C 
HETATM   10  C3  UNL     1       7.333   9.603   4.763  1.00  0.00     0.048 C 
ENDBRANCH   6   8
ENDBRANCH   1   5
BRANCH   3  11
HETATM   11  N3  UNL     1      10.917  10.138   2.301  1.00  0.00    -0.310 N 
HETATM   12  C7  UNL     1      12.024  10.521   1.466  1.00  0.00     0.170 C 
HETATM   13  C8  UNL     1      12.605  11.798   2.022  1.00  0.00     0.189 C 
HETATM   14  O1  UNL     1      12.480  11.820   3.400  1.00  0.00    -0.388 OA
HETATM   15  C9  UNL     1      12.501  10.574   3.999  1.00  0.00     0.189 C 
HETATM   16  C10 UNL     1      11.196   9.834   3.683  1.00  0.00     0.170 C 
ENDBRANCH   3  11
TORSDOF 3
ENDMDL
MODEL 4
REMARK VINA RESULT: -5.438808454      3.763      4.874
REMARK  3 active torsions:
REMARK  status: ('A' for Active; 'I' for Inactive)
REMARK    1  A    between atoms: C2_2  and  C4_4 
REMARK    2  A    between atoms: C6_6  and  N1_7 
REMARK    3  A    between atoms: N2_9  and  N3_11 
ROOT
HETATM    1  N1  UNL     1       9.030  11.346   4.769  1.00  0.00    -0.297 N 
ATOM      2  H1  UNL     1       9.266  12.070   4.091  1.00  0.00     0.187 HD
HETATM    3  N2  UNL     1       9.912  10.514   5.151  1.00  0.00    -0.245 N 
ATOM      4  H2  UNL     1       9.660   9.795   5.830  1.00  0.00     0.208 HD
ENDROOT
BRANCH   1   5
HETATM    5  C6  UNL     1       7.728  11.261   5.288  1.00  0.00     0.115 C 
HETATM    6  C4  UNL     1       6.714  10.892   4.553  1.00  0.00    -0.040 C 
HETATM    7  C5  UNL     1       5.354  10.840   5.237  1.00  0.00     0.050 C 
BRANCH   6   8
HETATM    8  C2  UNL     1       6.803  10.539   3.162  1.00  0.00    -0.064 C 
HETATM    9  C1  UNL     1       5.978  11.169   2.307  1.00  0.00     0.019 C 
HETATM   10  C3  UNL     1       7.736   9.537   2.641  1.00  0.00     0.048 C 
ENDBRANCH   6   8
ENDBRANCH   1   5
BRANCH   3  11
HETATM   11  N3  UNL     1      11.207  10.565   4.663  1.00  0.00    -0.310 N 
HETATM   12  C7  UNL     1      12.311   9.879   5.279  1.00  0.00     0.170 C 
HETATM   13  C8  UNL     1      12.845   8.874   4.287  1.00  0.00     0.189 C 
HETATM   14  O1  UNL     1      12.704   9.354   2.997  1.00  0.00    -0.388 OA
HETATM   15  C9  UNL     1      12.757  10.731   2.887  1.00  0.00     0.189 C 
HETATM   16  C10 UNL     1      11.480  11.339   3.477  1.00  0.00     0.170 C 
ENDBRANCH   3  11
TORSDOF 3
ENDMDL
MODEL 5
REMARK VINA RESULT: -5.380254426      2.819      4.122
REMARK  3 active torsions:
REMARK  status: ('A' for Active; 'I' for Inactive)
REMARK    1  A    between atoms: C2_2  and  C4_4 
REMARK    2  A    between atoms: C6_6  and  N1_7 
REMARK    3  A    between atoms: N2_9  and  N3_11 
ROOT
HETATM    1  N1  UNL     1       7.958   9.917   2.826  1.00  0.00    -0.297 N 
ATOM      2  H1  UNL     1       7.828  10.073   1.827  1.00  0.00     0.187 HD
HETATM    3  N2  UNL     1       9.046   9.423   3.261  1.00  0.00    -0.245 N 
ATOM      4  H2  UNL     1       9.161   9.272   4.263  1.00  0.00     0.208 HD
ENDROOT
BRANCH   1   5
HETATM    5  C6  UNL     1       6.937  10.246   3.733  1.00  0.00     0.115 C 
HETATM    6  C4  UNL     1       5.774  10.681   3.333  1.00  0.00    -0.040 C 
HETATM    7  C5  UNL     1       4.752  11.002   4.417  1.00  0.00     0.050 C 
BRANCH   6   8
HETATM    8  C2  UNL     1       5.404  10.872   1.957  1.00  0.00    -0.064 C 
HETATM    9  C1  UNL     1       4.342  10.188   1.497  1.00  0.00     0.019 C 
HETATM   10  C3  UNL     1       6.122  11.765   1.044  1.00  0.00     0.048 C 
ENDBRANCH   6   8
ENDBRANCH   1   5
BRANCH   3  11
HETATM   11  N3  UNL     1      10.077   9.086   2.400  1.00  0.00    -0.310 N 
HETATM   12  C7  UNL     1      10.199   9.614   1.067  1.00  0.00     0.170 C 
HETATM   13  C8  UNL     1      11.486  10.399   0.995  1.00  0.00     0.189 C 
HETATM   14  O1  UNL     1      12.442   9.829   1.817  1.00  0.00    -0.388 OA
HETATM   15  C9  UNL     1      12.317   8.461   1.980  1.00  0.00     0.189 C 
HETATM   16  C10 UNL     1      11.090   8.161   2.847  1.00  0.00     0.170 C 
ENDBRANCH   3  11
TORSDOF 3
ENDMDL
