MODEL 1
REMARK VINA RESULT: -5.089609163      0.000      0.000
REMARK  5 active torsions:
REMARK  status: ('A' for Active; 'I' for Inactive)
REMARK    1  A    between atoms: C2_2  and  C3_3 
REMARK    2  A    between atoms: C3_3  and  O1_5 
REMARK    3  A    between atoms: O1_5  and  N1_6 
REMARK       I    between atoms: N1_6  and  C5_8 
REMARK    4  A    between atoms: C5_8  and  O3_10 
REMARK    5  A    between atoms: O3_10  and  C6_11 
ROOT
HETATM    1  N1  UNL     1       8.423  11.430   5.163  1.00  0.00    -0.210 N 
ATOM      2  H1  UNL     1       8.814  12.368   5.078  1.00  0.00     0.200 HD
HETATM    3  C5  UNL     1       9.253  10.231   5.172  1.00  0.00     0.385 C 
HETATM    4  O2  UNL     1       8.595   9.136   5.287  1.00  0.00    -0.236 OA
ENDROOT
BRANCH   1   5
HETATM    5  O1  UNL     1       7.193  11.222   5.267  1.00  0.00    -0.271 OA
BRANCH   5   6
HETATM    6  C3  UNL     1       6.088  11.275   4.631  1.00  0.00     0.148 C 
HETATM    7  C4  UNL     1       5.960  10.856   3.178  1.00  0.00     0.042 C 
BRANCH   6   8
HETATM    8  C2  UNL     1       4.905  10.674   5.379  1.00  0.00     0.029 C 
HETATM    9  C1  UNL     1       3.647  10.624   4.558  1.00  0.00     0.007 C 
ENDBRANCH   6   8
ENDBRANCH   5   6
ENDBRANCH   1   5
BRANCH   3  10
HETATM   10  O3  UNL     1      10.589  10.186   5.069  1.00  0.00    -0.292 OA
BRANCH  10  11
HETATM   11  C6  UNL     1      11.161  10.029   3.782  1.00  0.00     0.061 C 
HETATM   12  C7  UNL     1      11.701   8.624   3.574  1.00  0.00     0.046 C 
HETATM   13  C8  UNL     1      12.410  10.923   3.745  1.00  0.00     0.046 C 
HETATM   14  C9  UNL     1      10.258  10.385   2.648  1.00  0.00     0.046 C 
ENDBRANCH  10  11
ENDBRANCH   3  10
TORSDOF 5
ENDMDL
MODEL 2
REMARK VINA RESULT: -5.043734036      3.442      4.875
REMARK  5 active torsions:
REMARK  status: ('A' for Active; 'I' for Inactive)
REMARK    1  A    between atoms: C2_2  and  C3_3 
REMARK    2  A    between atoms: C3_3  and  O1_5 
REMARK    3  A    between atoms: O1_5  and  N1_6 
REMARK       I    between atoms: N1_6  and  C5_8 
REMARK    4  A    between atoms: C5_8  and  O3_10 
REMARK    5  A    between atoms: O3_10  and  C6_11 
ROOT
HETATM    1  N1  UNL     1       6.634  10.619   2.277  1.00  0.00    -0.210 N 
ATOM      2  H1  UNL     1       7.621  10.385   2.174  1.00  0.00     0.200 HD
HETATM    3  C5  UNL     1       5.744  10.787   1.134  1.00  0.00     0.385 C 
HETATM    4  O2  UNL     1       4.535  11.080   1.448  1.00  0.00    -0.236 OA
ENDROOT
BRANCH   1   5
HETATM    5  O1  UNL     1       6.096  10.785   3.395  1.00  0.00    -0.271 OA
BRANCH   5   6
HETATM    6  C3  UNL     1       6.265  10.612   4.649  1.00  0.00     0.148 C 
HETATM    7  C4  UNL     1       7.534  11.027   5.369  1.00  0.00     0.042 C 
BRANCH   6   8
HETATM    8  C2  UNL     1       5.091  11.066   5.507  1.00  0.00     0.029 C 
HETATM    9  C1  UNL     1       3.783  10.452   5.096  1.00  0.00     0.007 C 
ENDBRANCH   6   8
ENDBRANCH   5   6
ENDBRANCH   1   5
BRANCH   3  10
HETATM   10  O3  UNL     1       6.076  10.669  -0.159  1.00  0.00    -0.292 OA
BRANCH  10  11
HETATM   11  C6  UNL     1       7.121  11.482  -0.663  1.00  0.00     0.061 C 
HETATM   12  C7  UNL     1       6.897  12.951  -0.341  1.00  0.00     0.046 C 
HETATM   13  C8  UNL     1       7.031  11.415  -2.196  1.00  0.00     0.046 C 
HETATM   14  C9  UNL     1       8.492  11.084  -0.226  1.00  0.00     0.046 C 
ENDBRANCH  10  11
ENDBRANCH   3  10
TORSDOF 5
ENDMDL
MODEL 3
REMARK VINA RESULT: -5.003638345      2.356      3.006
REMARK  5 active torsions:
REMARK  status: ('A' for Active; 'I' for Inactive)
REMARK    1  A    between atoms: C2_2  and  C3_3 
REMARK    2  A    between atoms: C3_3  and  O1_5 
REMARK    3  A    between atoms: O1_5  and  N1_6 
REMARK       I    between atoms: N1_6  and  C5_8 
REMARK    4  A    between atoms: C5_8  and  O3_10 
REMARK    5  A    between atoms: O3_10  and  C6_11 
ROOT
HETATM    1  N1  UNL     1       7.594   9.356   3.007  1.00  0.00    -0.210 N 
ATOM      2  H1  UNL     1       8.118   8.502   3.196  1.00  0.00     0.200 HD
HETATM    3  C5  UNL     1       7.843  10.185   1.833  1.00  0.00     0.385 C 
HETATM    4  O2  UNL     1       7.091  11.222   1.752  1.00  0.00    -0.236 OA
ENDROOT
BRANCH   1   5
HETATM    5  O1  UNL     1       6.688   9.771   3.765  1.00  0.00    -0.271 OA
BRANCH   5   6
HETATM    6  C3  UNL     1       6.473  10.393   4.858  1.00  0.00     0.148 C 
HETATM    7  C4  UNL     1       7.544  11.205   5.562  1.00  0.00     0.042 C 
BRANCH   6   8
HETATM    8  C2  UNL     1       5.200  11.228   4.863  1.00  0.00     0.029 C 
HETATM    9  C1  UNL     1       3.966  10.429   5.175  1.00  0.00     0.007 C 
ENDBRANCH   6   8
ENDBRANCH   5   6
ENDBRANCH   1   5
BRANCH   3  10
HETATM   10  O3  UNL     1       8.757   9.962   0.879  1.00  0.00    -0.292 OA
BRANCH  10  11
HETATM   11  C6  UNL     1      10.128  10.089   1.216  1.00  0.00     0.061 C 
HETATM   12  C7  UNL     1      10.904  10.835   0.143  1.00  0.00     0.046 C 
HETATM   13  C8  UNL     1      10.720   8.671   1.192  1.00  0.00     0.046 C 
HETATM   14  C9  UNL     1      10.391  10.718   2.544  1.00  0.00     0.046 C 
ENDBRANCH  10  11
ENDBRANCH   3  10
TORSDOF 5
ENDMDL
MODEL 4
REMARK VINA RESULT: -4.998434198      2.000      2.465
REMARK  5 active torsions:
REMARK  status: ('A' for Active; 'I' for Inactive)
REMARK    1  A    between atoms: C2_2  and  C3_3 
REMARK    2  A    between atoms: C3_3  and  O1_5 
REMARK    3  A    between atoms: O1_5  and  N1_6 
REMARK       I    between atoms: N1_6  and  C5_8 
REMARK    4  A    between atoms: C5_8  and  O3_10 
REMARK    5  A    between atoms: O3_10  and  C6_11 
ROOT
HETATM    1  N1  UNL     1       7.776  10.285   1.794  1.00  0.00    -0.210 N 
ATOM      2  H1  UNL     1       8.064  10.905   1.037  1.00  0.00     0.200 HD
HETATM    3  C5  UNL     1       8.734   9.572   2.632  1.00  0.00     0.385 C 
HETATM    4  O2  UNL     1       8.197   8.837   3.536  1.00  0.00    -0.236 OA
ENDROOT
BRANCH   1   5
HETATM    5  O1  UNL     1       6.573  10.079   2.073  1.00  0.00    -0.271 OA
BRANCH   5   6
HETATM    6  C3  UNL     1       5.455  10.659   2.276  1.00  0.00     0.148 C 
HETATM    7  C4  UNL     1       4.225  10.382   1.433  1.00  0.00     0.042 C 
BRANCH   6   8
HETATM    8  C2  UNL     1       5.010  10.669   3.732  1.00  0.00     0.029 C 
HETATM    9  C1  UNL     1       6.018  11.291   4.657  1.00  0.00     0.007 C 
ENDBRANCH   6   8
ENDBRANCH   5   6
ENDBRANCH   1   5
BRANCH   3  10
HETATM   10  O3  UNL     1      10.070   9.620   2.534  1.00  0.00    -0.292 OA
BRANCH  10  11
HETATM   11  C6  UNL     1      10.783  10.441   3.441  1.00  0.00     0.061 C 
HETATM   12  C7  UNL     1      11.786  11.331   2.726  1.00  0.00     0.046 C 
HETATM   13  C8  UNL     1      11.653   9.502   4.292  1.00  0.00     0.046 C 
HETATM   14  C9  UNL     1       9.929  11.277   4.335  1.00  0.00     0.046 C 
ENDBRANCH  10  11
ENDBRANCH   3  10
TORSDOF 5
ENDMDL
MODEL 5
REMARK VINA RESULT: -4.991152478      1.528      1.881
REMARK  5 active torsions:
REMARK  status: ('A' for Active; 'I' for Inactive)
REMARK    1  A    between atoms: C2_2  and  C3_3 
REMARK    2  A    between atoms: C3_3  and  O1_5 
REMARK    3  A    between atoms: O1_5  and  N1_6 
REMARK       I    between atoms: N1_6  and  C5_8 
REMARK    4  A    between atoms: C5_8  and  O3_10 
REMARK    5  A    between atoms: O3_10  and  C6_11 
ROOT
HETATM    1  N1  UNL     1       7.972   9.319   3.272  1.00  0.00    -0.210 N 
ATOM      2  H1  UNL     1       7.999   9.289   2.253  1.00  0.00     0.200 HD
HETATM    3  C5  UNL     1       8.950   8.627   4.103  1.00  0.00     0.385 C 
HETATM    4  O2  UNL     1       8.765   8.772   5.364  1.00  0.00    -0.236 OA
ENDROOT
BRANCH   1   5
HETATM    5  O1  UNL     1       7.096   9.952   3.902  1.00  0.00    -0.271 OA
BRANCH   5   6
HETATM    6  C3  UNL     1       6.150  10.799   3.771  1.00  0.00     0.148 C 
HETATM    7  C4  UNL     1       5.192  10.779   2.595  1.00  0.00     0.042 C 
BRANCH   6   8
HETATM    8  C2  UNL     1       5.315  11.007   5.028  1.00  0.00     0.029 C 
HETATM    9  C1  UNL     1       3.891  10.553   4.877  1.00  0.00     0.007 C 
ENDBRANCH   6   8
ENDBRANCH   5   6
ENDBRANCH   1   5
BRANCH   3  10
HETATM   10  O3  UNL     1       9.977   7.881   3.672  1.00  0.00    -0.292 OA
BRANCH  10  11
HETATM   11  C6  UNL     1      11.080   8.536   3.073  1.00  0.00     0.061 C 
HETATM   12  C7  UNL     1      10.979   8.535   1.556  1.00  0.00     0.046 C 
HETATM   13  C8  UNL     1      12.318   7.673   3.368  1.00  0.00     0.046 C 
HETATM   14  C9  UNL     1      11.318   9.929   3.551  1.00  0.00     0.046 C 
ENDBRANCH  10  11
ENDBRANCH   3  10
TORSDOF 5
ENDMDL
