MODEL 1
REMARK VINA RESULT: -6.339929501      0.000      0.000
REMARK  2 active torsions:
REMARK  status: ('A' for Active; 'I' for Inactive)
REMARK    1  A    between atoms: N1_2  and  C2_3 
REMARK    2  A    between atoms: N1_2  and  C4_6 
ROOT
HETATM    1  C2  UNL     1      12.293  11.748   2.372  1.00  0.00     0.395 C 
HETATM    2  C3  UNL     1      12.554  11.551   0.922  1.00  0.00     0.089 C 
HETATM    3  N2  UNL     1      12.758  11.376  -0.203  1.00  0.00    -0.195 NA
ENDROOT
BRANCH   1   4
HETATM    4  N1  UNL     1      11.662  10.576   2.835  1.00  0.00     0.105 N 
HETATM    5  C1  UNL     1      12.415   9.716   3.683  1.00  0.00     0.312 C 
BRANCH   4   6
HETATM    6  C4  UNL     1      10.272  10.794   3.342  1.00  0.00     0.246 C 
HETATM    7  C5  UNL     1      10.368  10.374   4.734  1.00  0.00     0.040 C 
HETATM    8  C6  UNL     1       9.369  11.031   5.750  1.00  0.00     0.002 C 
HETATM    9  C7  UNL     1       8.154  10.988   5.030  1.00  0.00     0.000 C 
HETATM   10  C8  UNL     1       6.743  11.136   4.975  1.00  0.00     0.004 C 
HETATM   11  C9  UNL     1       6.455  10.797   3.470  1.00  0.00     0.027 C 
HETATM   12  C10 UNL     1       7.021   9.535   2.992  1.00  0.00    -0.027 C 
HETATM   13  C11 UNL     1       8.329   9.356   2.361  1.00  0.00    -0.006 C 
HETATM   14  C12 UNL     1       9.369  10.388   2.296  1.00  0.00     0.008 C 
ENDBRANCH   4   6
ENDBRANCH   1   4
TORSDOF 2
ENDMDL
MODEL 2
REMARK VINA RESULT: -6.211000575      1.635      2.754
REMARK  2 active torsions:
REMARK  status: ('A' for Active; 'I' for Inactive)
REMARK    1  A    between atoms: N1_2  and  C2_3 
REMARK    2  A    between atoms: N1_2  and  C4_6 
ROOT
HETATM    1  C2  UNL     1      11.545  10.714   2.994  1.00  0.00     0.395 C 
HETATM    2  C3  UNL     1      12.935  10.200   3.110  1.00  0.00     0.089 C 
HETATM    3  N2  UNL     1      14.013   9.796   3.222  1.00  0.00    -0.195 NA
ENDROOT
BRANCH   1   4
HETATM    4  N1  UNL     1      10.771  10.013   3.942  1.00  0.00     0.105 N 
HETATM    5  C1  UNL     1      11.026  10.274   5.318  1.00  0.00     0.312 C 
BRANCH   4   6
HETATM    6  C4  UNL     1       9.309   9.987   3.633  1.00  0.00     0.246 C 
HETATM    7  C5  UNL     1       9.222  10.785   2.417  1.00  0.00     0.040 C 
HETATM    8  C6  UNL     1       8.035  10.474   1.440  1.00  0.00     0.002 C 
HETATM    9  C7  UNL     1       6.950  10.341   2.335  1.00  0.00     0.000 C 
HETATM   10  C8  UNL     1       5.557  10.221   2.580  1.00  0.00     0.004 C 
HETATM   11  C9  UNL     1       5.526  10.122   4.146  1.00  0.00     0.027 C 
HETATM   12  C10 UNL     1       6.249  11.178   4.855  1.00  0.00    -0.027 C 
HETATM   13  C11 UNL     1       7.647  11.134   5.285  1.00  0.00    -0.006 C 
HETATM   14  C12 UNL     1       8.607  10.099   4.885  1.00  0.00     0.008 C 
ENDBRANCH   4   6
ENDBRANCH   1   4
TORSDOF 2
ENDMDL
MODEL 3
REMARK VINA RESULT: -6.185788170      1.494      2.625
REMARK  2 active torsions:
REMARK  status: ('A' for Active; 'I' for Inactive)
REMARK    1  A    between atoms: N1_2  and  C2_3 
REMARK    2  A    between atoms: N1_2  and  C4_6 
ROOT
HETATM    1  C2  UNL     1      11.417  11.416   4.182  1.00  0.00     0.395 C 
HETATM    2  C3  UNL     1      12.588  11.959   3.446  1.00  0.00     0.089 C 
HETATM    3  N2  UNL     1      13.505  12.362   2.866  1.00  0.00    -0.195 NA
ENDROOT
BRANCH   1   4
HETATM    4  N1  UNL     1      10.983  10.277   3.471  1.00  0.00     0.105 N 
HETATM    5  C1  UNL     1      11.605   9.035   3.779  1.00  0.00     0.312 C 
BRANCH   4   6
HETATM    6  C4  UNL     1       9.496  10.155   3.370  1.00  0.00     0.246 C 
HETATM    7  C5  UNL     1       9.190  10.933   2.177  1.00  0.00     0.040 C 
HETATM    8  C6  UNL     1       7.901  10.537   1.375  1.00  0.00     0.002 C 
HETATM    9  C7  UNL     1       6.962  10.346   2.414  1.00  0.00     0.000 C 
HETATM   10  C8  UNL     1       5.627  10.140   2.851  1.00  0.00     0.004 C 
HETATM   11  C9  UNL     1       5.821  10.056   4.407  1.00  0.00     0.027 C 
HETATM   12  C10 UNL     1       6.566  11.164   5.006  1.00  0.00    -0.027 C 
HETATM   13  C11 UNL     1       8.010  11.213   5.236  1.00  0.00    -0.006 C 
HETATM   14  C12 UNL     1       8.970  10.237   4.708  1.00  0.00     0.008 C 
ENDBRANCH   4   6
ENDBRANCH   1   4
TORSDOF 2
ENDMDL
MODEL 4
REMARK VINA RESULT: -6.119199894      2.861      5.383
REMARK  2 active torsions:
REMARK  status: ('A' for Active; 'I' for Inactive)
REMARK    1  A    between atoms: N1_2  and  C2_3 
REMARK    2  A    between atoms: N1_2  and  C4_6 
ROOT
HETATM    1  C2  UNL     1       5.836  10.842   4.650  1.00  0.00     0.395 C 
HETATM    2  C3  UNL     1       4.456  10.291   4.668  1.00  0.00     0.089 C 
HETATM    3  N2  UNL     1       3.383   9.856   4.662  1.00  0.00    -0.195 NA
ENDROOT
BRANCH   1   4
HETATM    4  N1  UNL     1       6.576  10.054   3.744  1.00  0.00     0.105 N 
HETATM    5  C1  UNL     1       6.318  10.233   2.356  1.00  0.00     0.312 C 
BRANCH   4   6
HETATM    6  C4  UNL     1       8.040   9.996   4.044  1.00  0.00     0.246 C 
HETATM    7  C5  UNL     1       8.197  11.012   5.077  1.00  0.00     0.040 C 
HETATM    8  C6  UNL     1       9.379  10.826   6.090  1.00  0.00     0.002 C 
HETATM    9  C7  UNL     1      10.438  10.449   5.233  1.00  0.00     0.000 C 
HETATM   10  C8  UNL     1      11.817  10.194   5.009  1.00  0.00     0.004 C 
HETATM   11  C9  UNL     1      11.813   9.785   3.494  1.00  0.00     0.027 C 
HETATM   12  C10 UNL     1      11.144  10.724   2.593  1.00  0.00    -0.027 C 
HETATM   13  C11 UNL     1       9.739  10.685   2.188  1.00  0.00    -0.006 C 
HETATM   14  C12 UNL     1       8.724   9.813   2.791  1.00  0.00     0.008 C 
ENDBRANCH   4   6
ENDBRANCH   1   4
TORSDOF 2
ENDMDL
MODEL 5
REMARK VINA RESULT: -6.093886991      2.389      4.042
REMARK  2 active torsions:
REMARK  status: ('A' for Active; 'I' for Inactive)
REMARK    1  A    between atoms: N1_2  and  C2_3 
REMARK    2  A    between atoms: N1_2  and  C4_6 
ROOT
HETATM    1  C2  UNL     1       9.250  10.533   2.568  1.00  0.00     0.395 C 
HETATM    2  C3  UNL     1       9.951  10.981   3.799  1.00  0.00     0.089 C 
HETATM    3  N2  UNL     1      10.481  11.319   4.770  1.00  0.00    -0.195 NA
ENDROOT
BRANCH   1   4
HETATM    4  N1  UNL     1       8.603   9.321   2.886  1.00  0.00     0.105 N 
HETATM    5  C1  UNL     1       9.241   8.463   3.824  1.00  0.00     0.312 C 
BRANCH   4   6
HETATM    6  C4  UNL     1       7.139   9.466   3.157  1.00  0.00     0.246 C 
HETATM    7  C5  UNL     1       6.668  10.202   1.991  1.00  0.00     0.040 C 
HETATM    8  C6  UNL     1       5.171   9.994   1.571  1.00  0.00     0.002 C 
HETATM    9  C7  UNL     1       4.509  10.050   2.818  1.00  0.00     0.000 C 
HETATM   10  C8  UNL     1       3.315  10.123   3.582  1.00  0.00     0.004 C 
HETATM   11  C9  UNL     1       3.883  10.113   5.045  1.00  0.00     0.027 C 
HETATM   12  C10 UNL     1       4.924  11.104   5.320  1.00  0.00    -0.027 C 
HETATM   13  C11 UNL     1       6.367  10.904   5.192  1.00  0.00    -0.006 C 
HETATM   14  C12 UNL     1       6.991   9.735   4.563  1.00  0.00     0.008 C 
ENDBRANCH   4   6
ENDBRANCH   1   4
TORSDOF 2
ENDMDL
