MODEL 1
REMARK VINA RESULT: -5.186315025      0.000      0.000
REMARK  4 active torsions:
REMARK  status: ('A' for Active; 'I' for Inactive)
REMARK    1  A    between atoms: C2_2  and  O1_5 
REMARK    2  A    between atoms: O1_5  and  C5_6 
REMARK    3  A    between atoms: C5_6  and  N1_8 
REMARK    4  A    between atoms: N1_8  and  C6_10 
ROOT
HETATM    1  C5  UNL     1       8.028   9.837   3.116  1.00  0.00     0.211 C 
HETATM    2  S1  UNL     1       8.401  10.554   1.706  1.00  0.00    -0.033 SA
ENDROOT
BRANCH   1   3
HETATM    3  O1  UNL     1       8.977   9.630   4.069  1.00  0.00    -0.317 OA
BRANCH   3   4
HETATM    4  C2  UNL     1       9.498  10.592   4.942  1.00  0.00     0.059 C 
HETATM    5  C1  UNL     1      10.669  11.350   4.380  1.00  0.00     0.045 C 
HETATM    6  C3  UNL     1      10.011   9.845   6.175  1.00  0.00     0.045 C 
HETATM    7  C4  UNL     1       8.398  11.532   5.393  1.00  0.00     0.045 C 
ENDBRANCH   3   4
ENDBRANCH   1   3
BRANCH   1   8
HETATM    8  N1  UNL     1       6.695   9.426   3.348  1.00  0.00    -0.357 N 
ATOM      9  H1  UNL     1       6.473   8.430   3.387  1.00  0.00     0.162 HD
BRANCH   8  10
HETATM   10  C6  UNL     1       5.631  10.413   3.534  1.00  0.00     0.084 C 
HETATM   11  C7  UNL     1       4.691  10.340   2.366  1.00  0.00     0.025 C 
HETATM   12  C8  UNL     1       3.461   9.635   2.957  1.00  0.00     0.002 C 
HETATM   13  C9  UNL     1       3.397  10.303   4.315  1.00  0.00     0.002 C 
HETATM   14  C10 UNL     1       4.832  10.163   4.778  1.00  0.00     0.025 C 
ENDBRANCH   8  10
ENDBRANCH   1   8
TORSDOF 4
ENDMDL
MODEL 2
REMARK VINA RESULT: -5.180599563      3.446      6.430
REMARK  4 active torsions:
REMARK  status: ('A' for Active; 'I' for Inactive)
REMARK    1  A    between atoms: C2_2  and  O1_5 
REMARK    2  A    between atoms: O1_5  and  C5_6 
REMARK    3  A    between atoms: C5_6  and  N1_8 
REMARK    4  A    between atoms: N1_8  and  C6_10 
ROOT
HETATM    1  C5  UNL     1      11.094  10.517   3.098  1.00  0.00     0.211 C 
HETATM    2  S1  UNL     1      12.085   9.508   3.900  1.00  0.00    -0.033 SA
ENDROOT
BRANCH   1   3
HETATM    3  O1  UNL     1       9.916  10.924   3.647  1.00  0.00    -0.317 OA
BRANCH   3   4
HETATM    4  C2  UNL     1       8.672  10.303   3.491  1.00  0.00     0.059 C 
HETATM    5  C1  UNL     1       8.012  10.591   2.171  1.00  0.00     0.045 C 
HETATM    6  C3  UNL     1       7.751  10.869   4.574  1.00  0.00     0.045 C 
HETATM    7  C4  UNL     1       8.803   8.812   3.726  1.00  0.00     0.045 C 
ENDBRANCH   3   4
ENDBRANCH   1   3
BRANCH   1   8
HETATM    8  N1  UNL     1      11.468  10.974   1.813  1.00  0.00    -0.357 N 
ATOM      9  H1  UNL     1      10.814  10.886   1.035  1.00  0.00     0.162 HD
BRANCH   8  10
HETATM   10  C6  UNL     1      12.784  11.574   1.589  1.00  0.00     0.084 C 
HETATM   11  C7  UNL     1      12.892  11.987   0.150  1.00  0.00     0.025 C 
HETATM   12  C8  UNL     1      12.755  13.515   0.218  1.00  0.00     0.002 C 
HETATM   13  C9  UNL     1      13.579  13.802   1.456  1.00  0.00     0.002 C 
HETATM   14  C10 UNL     1      13.004  12.796   2.431  1.00  0.00     0.025 C 
ENDBRANCH   8  10
ENDBRANCH   1   8
TORSDOF 4
ENDMDL
MODEL 3
REMARK VINA RESULT: -5.169337906      1.075      1.902
REMARK  4 active torsions:
REMARK  status: ('A' for Active; 'I' for Inactive)
REMARK    1  A    between atoms: C2_2  and  O1_5 
REMARK    2  A    between atoms: O1_5  and  C5_6 
REMARK    3  A    between atoms: C5_6  and  N1_8 
REMARK    4  A    between atoms: N1_8  and  C6_10 
ROOT
HETATM    1  C5  UNL     1       7.894  10.872   3.088  1.00  0.00     0.211 C 
HETATM    2  S1  UNL     1       8.206  10.584   1.519  1.00  0.00    -0.033 SA
ENDROOT
BRANCH   1   3
HETATM    3  O1  UNL     1       8.899  10.918   4.005  1.00  0.00    -0.317 OA
BRANCH   3   4
HETATM    4  C2  UNL     1       9.560   9.819   4.566  1.00  0.00     0.059 C 
HETATM    5  C1  UNL     1       8.725   8.569   4.612  1.00  0.00     0.045 C 
HETATM    6  C3  UNL     1       9.881  10.185   6.017  1.00  0.00     0.045 C 
HETATM    7  C4  UNL     1      10.871   9.580   3.847  1.00  0.00     0.045 C 
ENDBRANCH   3   4
ENDBRANCH   1   3
BRANCH   1   8
HETATM    8  N1  UNL     1       6.556  11.077   3.499  1.00  0.00    -0.357 N 
ATOM      9  H1  UNL     1       6.271  11.990   3.853  1.00  0.00     0.162 HD
BRANCH   8  10
HETATM   10  C6  UNL     1       5.578   9.992   3.420  1.00  0.00     0.084 C 
HETATM   11  C7  UNL     1       4.942   9.811   4.767  1.00  0.00     0.025 C 
HETATM   12  C8  UNL     1       3.545  10.420   4.576  1.00  0.00     0.002 C 
HETATM   13  C9  UNL     1       3.221   9.911   3.187  1.00  0.00     0.002 C 
HETATM   14  C10 UNL     1       4.483  10.282   2.436  1.00  0.00     0.025 C 
ENDBRANCH   8  10
ENDBRANCH   1   8
TORSDOF 4
ENDMDL
MODEL 4
REMARK VINA RESULT: -5.145015999      3.460      6.443
REMARK  4 active torsions:
REMARK  status: ('A' for Active; 'I' for Inactive)
REMARK    1  A    between atoms: C2_2  and  O1_5 
REMARK    2  A    between atoms: O1_5  and  C5_6 
REMARK    3  A    between atoms: C5_6  and  N1_8 
REMARK    4  A    between atoms: N1_8  and  C6_10 
ROOT
HETATM    1  C5  UNL     1      11.110  10.538   3.080  1.00  0.00     0.211 C 
HETATM    2  S1  UNL     1      12.074   9.526   3.909  1.00  0.00    -0.033 SA
ENDROOT
BRANCH   1   3
HETATM    3  O1  UNL     1       9.936  10.978   3.611  1.00  0.00    -0.317 OA
BRANCH   3   4
HETATM    4  C2  UNL     1       8.712  10.299   3.592  1.00  0.00     0.059 C 
HETATM    5  C1  UNL     1       8.848   8.804   3.686  1.00  0.00     0.045 C 
HETATM    6  C3  UNL     1       8.057  10.596   2.242  1.00  0.00     0.045 C 
HETATM    7  C4  UNL     1       7.804  10.839   4.678  1.00  0.00     0.045 C 
ENDBRANCH   3   4
ENDBRANCH   1   3
BRANCH   1   8
HETATM    8  N1  UNL     1      11.503  10.964   1.790  1.00  0.00    -0.357 N 
ATOM      9  H1  UNL     1      10.867  10.840   1.002  1.00  0.00     0.162 HD
BRANCH   8  10
HETATM   10  C6  UNL     1      12.814  11.579   1.575  1.00  0.00     0.084 C 
HETATM   11  C7  UNL     1      12.926  11.995   0.138  1.00  0.00     0.025 C 
HETATM   12  C8  UNL     1      12.771  13.522   0.207  1.00  0.00     0.002 C 
HETATM   13  C9  UNL     1      13.584  13.816   1.450  1.00  0.00     0.002 C 
HETATM   14  C10 UNL     1      13.014  12.802   2.420  1.00  0.00     0.025 C 
ENDBRANCH   8  10
ENDBRANCH   1   8
TORSDOF 4
ENDMDL
MODEL 5
REMARK VINA RESULT: -5.086376767      8.864     10.223
REMARK  4 active torsions:
REMARK  status: ('A' for Active; 'I' for Inactive)
REMARK    1  A    between atoms: C2_2  and  O1_5 
REMARK    2  A    between atoms: O1_5  and  C5_6 
REMARK    3  A    between atoms: C5_6  and  N1_8 
REMARK    4  A    between atoms: N1_8  and  C6_10 
ROOT
HETATM    1  C5  UNL     1      14.393  10.451  -0.539  1.00  0.00     0.211 C 
HETATM    2  S1  UNL     1      14.614  10.214   1.054  1.00  0.00    -0.033 SA
ENDROOT
BRANCH   1   3
HETATM    3  O1  UNL     1      13.592  11.453  -0.993  1.00  0.00    -0.317 OA
BRANCH   3   4
HETATM    4  C2  UNL     1      14.016  12.678  -1.522  1.00  0.00     0.059 C 
HETATM    5  C1  UNL     1      15.484  12.943  -1.334  1.00  0.00     0.045 C 
HETATM    6  C3  UNL     1      13.271  13.775  -0.760  1.00  0.00     0.045 C 
HETATM    7  C4  UNL     1      13.622  12.776  -2.982  1.00  0.00     0.045 C 
ENDBRANCH   3   4
ENDBRANCH   1   3
BRANCH   1   8
HETATM    8  N1  UNL     1      15.048   9.600  -1.459  1.00  0.00    -0.357 N 
ATOM      9  H1  UNL     1      16.043   9.406  -1.348  1.00  0.00     0.162 HD
BRANCH   8  10
HETATM   10  C6  UNL     1      14.311   8.994  -2.569  1.00  0.00     0.084 C 
HETATM   11  C7  UNL     1      14.870   9.510  -3.863  1.00  0.00     0.025 C 
HETATM   12  C8  UNL     1      15.673   8.313  -4.393  1.00  0.00     0.002 C 
HETATM   13  C9  UNL     1      14.734   7.180  -4.034  1.00  0.00     0.002 C 
HETATM   14  C10 UNL     1      14.432   7.499  -2.585  1.00  0.00     0.025 C 
ENDBRANCH   8  10
ENDBRANCH   1   8
TORSDOF 4
ENDMDL
