MODEL 1
REMARK VINA RESULT: -6.906321121      0.000      0.000
REMARK  7 active torsions:
REMARK  status: ('A' for Active; 'I' for Inactive)
REMARK    1  A    between atoms: N1_1  and  N2_4 
REMARK    2  A    between atoms: N2_4  and  N3_5 
REMARK    3  A    between atoms: N3_5  and  C1_7 
REMARK    4  A    between atoms: C3_9  and  O1_10 
REMARK    5  A    between atoms: C4_12  and  O2_13 
REMARK    6  A    between atoms: C5_15  and  N4_16 
REMARK    7  A    between atoms: N4_16  and  C6_18 
ROOT
HETATM    1  C1  UNL     1      22.957  20.021  15.665  1.00  0.00     0.142 C 
HETATM    2  C2  UNL     1      23.468  18.622  15.654  1.00  0.00     0.064 C 
HETATM    3  C3  UNL     1      22.250  17.736  15.442  1.00  0.00     0.151 C 
HETATM    4  C4  UNL     1      21.142  18.553  16.022  1.00  0.00     0.171 C 
HETATM    5  C5  UNL     1      21.460  19.981  15.628  1.00  0.00     0.140 C 
ENDROOT
BRANCH   1   6
HETATM    6  N3  UNL     1      23.486  20.831  16.731  1.00  0.00    -0.246 N 
ATOM      7  H3  UNL     1      23.769  20.404  17.613  1.00  0.00     0.197 HD
BRANCH   6   8
HETATM    8  N2  UNL     1      23.592  22.031  16.566  1.00  0.00    -0.248 NA
BRANCH   8   9
HETATM    9  N1  UNL     1      23.462  23.161  16.093  1.00  0.00    -0.261 N 
ATOM     10  H12 UNL     1      23.242  22.852  15.147  1.00  0.00     0.193 HD
ATOM     11  H11 UNL     1      23.426  24.178  16.011  1.00  0.00     0.193 HD
ENDBRANCH   8   9
ENDBRANCH   6   8
ENDBRANCH   1   6
BRANCH   5  12
HETATM   12  N4  UNL     1      20.939  20.275  14.307  1.00  0.00    -0.359 N 
ATOM     13  H4  UNL     1      21.602  20.405  13.544  1.00  0.00     0.162 HD
BRANCH  12  14
HETATM   14  C6  UNL     1      19.563  20.389  14.024  1.00  0.00     0.349 C 
HETATM   15  O3  UNL     1      18.919  19.507  13.400  1.00  0.00    -0.284 OA
ENDBRANCH  12  14
ENDBRANCH   5  12
BRANCH   3  16
HETATM   16  O1  UNL     1      22.096  17.445  14.109  1.00  0.00    -0.393 OA
ATOM     17  H1  UNL     1      22.514  16.618  13.900  1.00  0.00     0.210 HD
ENDBRANCH   3  16
BRANCH   4  18
HETATM   18  O2  UNL     1      19.901  18.148  15.521  1.00  0.00    -0.391 OA
ATOM     19  H2  UNL     1      19.503  18.833  14.997  1.00  0.00     0.210 HD
ENDBRANCH   4  18
TORSDOF 7
ENDMDL
MODEL 2
REMARK VINA RESULT: -6.753033977      0.805      1.131
REMARK  7 active torsions:
REMARK  status: ('A' for Active; 'I' for Inactive)
REMARK    1  A    between atoms: N1_1  and  N2_4 
REMARK    2  A    between atoms: N2_4  and  N3_5 
REMARK    3  A    between atoms: N3_5  and  C1_7 
REMARK    4  A    between atoms: C3_9  and  O1_10 
REMARK    5  A    between atoms: C4_12  and  O2_13 
REMARK    6  A    between atoms: C5_15  and  N4_16 
REMARK    7  A    between atoms: N4_16  and  C6_18 
ROOT
HETATM    1  C1  UNL     1      22.902  19.829  15.509  1.00  0.00     0.142 C 
HETATM    2  C2  UNL     1      23.323  18.416  15.717  1.00  0.00     0.064 C 
HETATM    3  C3  UNL     1      22.050  17.587  15.639  1.00  0.00     0.151 C 
HETATM    4  C4  UNL     1      21.000  18.552  16.080  1.00  0.00     0.171 C 
HETATM    5  C5  UNL     1      21.406  19.879  15.472  1.00  0.00     0.140 C 
ENDROOT
BRANCH   1   6
HETATM    6  N3  UNL     1      23.487  20.760  16.439  1.00  0.00    -0.246 N 
ATOM      7  H3  UNL     1      22.940  21.541  16.802  1.00  0.00     0.197 HD
BRANCH   6   8
HETATM    8  N2  UNL     1      24.642  20.603  16.786  1.00  0.00    -0.248 NA
BRANCH   8   9
HETATM    9  N1  UNL     1      25.872  20.664  16.814  1.00  0.00    -0.261 N 
ATOM     10  H12 UNL     1      25.953  20.625  17.830  1.00  0.00     0.193 HD
ATOM     11  H11 UNL     1      26.845  20.727  16.513  1.00  0.00     0.193 HD
ENDBRANCH   8   9
ENDBRANCH   6   8
ENDBRANCH   1   6
BRANCH   5  12
HETATM   12  N4  UNL     1      20.898  19.997  14.119  1.00  0.00    -0.359 N 
ATOM     13  H4  UNL     1      21.552  19.882  13.345  1.00  0.00     0.162 HD
BRANCH  12  14
HETATM   14  C6  UNL     1      19.546  20.264  13.817  1.00  0.00     0.349 C 
HETATM   15  O3  UNL     1      18.745  19.374  13.433  1.00  0.00    -0.284 OA
ENDBRANCH  12  14
ENDBRANCH   5  12
BRANCH   3  16
HETATM   16  O1  UNL     1      21.871  17.103  14.367  1.00  0.00    -0.393 OA
ATOM     17  H1  UNL     1      22.425  16.345  14.219  1.00  0.00     0.210 HD
ENDBRANCH   3  16
BRANCH   4  18
HETATM   18  O2  UNL     1      19.732  18.154  15.642  1.00  0.00    -0.391 OA
ATOM     19  H2  UNL     1      19.054  18.716  15.999  1.00  0.00     0.210 HD
ENDBRANCH   4  18
TORSDOF 7
ENDMDL
MODEL 3
REMARK VINA RESULT: -6.276232974      1.521      2.109
REMARK  7 active torsions:
REMARK  status: ('A' for Active; 'I' for Inactive)
REMARK    1  A    between atoms: N1_1  and  N2_4 
REMARK    2  A    between atoms: N2_4  and  N3_5 
REMARK    3  A    between atoms: N3_5  and  C1_7 
REMARK    4  A    between atoms: C3_9  and  O1_10 
REMARK    5  A    between atoms: C4_12  and  O2_13 
REMARK    6  A    between atoms: C5_15  and  N4_16 
REMARK    7  A    between atoms: N4_16  and  C6_18 
ROOT
HETATM    1  C1  UNL     1      23.912  20.765  15.801  1.00  0.00     0.142 C 
HETATM    2  C2  UNL     1      25.253  20.118  15.794  1.00  0.00     0.064 C 
HETATM    3  C3  UNL     1      24.992  18.621  15.729  1.00  0.00     0.151 C 
HETATM    4  C4  UNL     1      23.654  18.491  16.380  1.00  0.00     0.171 C 
HETATM    5  C5  UNL     1      22.868  19.696  15.906  1.00  0.00     0.140 C 
ENDROOT
BRANCH   1   6
HETATM    6  N3  UNL     1      23.768  21.810  16.782  1.00  0.00    -0.246 N 
ATOM      7  H3  UNL     1      23.819  21.593  17.778  1.00  0.00     0.197 HD
BRANCH   6   8
HETATM    8  N2  UNL     1      23.586  22.952  16.408  1.00  0.00    -0.248 NA
BRANCH   8   9
HETATM    9  N1  UNL     1      23.354  23.921  15.684  1.00  0.00    -0.261 N 
ATOM     10  H12 UNL     1      22.386  24.041  15.980  1.00  0.00     0.193 HD
ATOM     11  H11 UNL     1      23.475  24.670  15.002  1.00  0.00     0.193 HD
ENDBRANCH   8   9
ENDBRANCH   6   8
ENDBRANCH   1   6
BRANCH   5  12
HETATM   12  N4  UNL     1      22.236  19.424  14.629  1.00  0.00    -0.359 N 
ATOM     13  H4  UNL     1      22.827  19.361  13.801  1.00  0.00     0.162 HD
BRANCH  12  14
HETATM   14  C6  UNL     1      20.847  19.242  14.474  1.00  0.00     0.349 C 
HETATM   15  O3  UNL     1      20.253  18.190  14.825  1.00  0.00    -0.284 OA
ENDBRANCH  12  14
ENDBRANCH   5  12
BRANCH   3  16
HETATM   16  O1  UNL     1      25.030  18.184  14.429  1.00  0.00    -0.393 OA
ATOM     17  H1  UNL     1      24.776  17.269  14.379  1.00  0.00     0.210 HD
ENDBRANCH   3  16
BRANCH   4  18
HETATM   18  O2  UNL     1      23.029  17.295  16.012  1.00  0.00    -0.391 OA
ATOM     19  H2  UNL     1      22.083  17.374  16.059  1.00  0.00     0.210 HD
ENDBRANCH   4  18
TORSDOF 7
ENDMDL
MODEL 4
REMARK VINA RESULT: -6.258220881      1.802      3.542
REMARK  7 active torsions:
REMARK  status: ('A' for Active; 'I' for Inactive)
REMARK    1  A    between atoms: N1_1  and  N2_4 
REMARK    2  A    between atoms: N2_4  and  N3_5 
REMARK    3  A    between atoms: N3_5  and  C1_7 
REMARK    4  A    between atoms: C3_9  and  O1_10 
REMARK    5  A    between atoms: C4_12  and  O2_13 
REMARK    6  A    between atoms: C5_15  and  N4_16 
REMARK    7  A    between atoms: N4_16  and  C6_18 
ROOT
HETATM    1  C1  UNL     1      23.122  20.098  15.799  1.00  0.00     0.142 C 
HETATM    2  C2  UNL     1      21.649  20.289  15.903  1.00  0.00     0.064 C 
HETATM    3  C3  UNL     1      21.025  18.987  15.425  1.00  0.00     0.151 C 
HETATM    4  C4  UNL     1      22.053  18.456  14.482  1.00  0.00     0.171 C 
HETATM    5  C5  UNL     1      23.384  18.787  15.124  1.00  0.00     0.140 C 
ENDROOT
BRANCH   1   6
HETATM    6  N3  UNL     1      23.818  21.206  15.198  1.00  0.00    -0.246 N 
ATOM      7  H3  UNL     1      24.559  21.041  14.517  1.00  0.00     0.197 HD
BRANCH   6   8
HETATM    8  N2  UNL     1      23.510  22.339  15.512  1.00  0.00    -0.248 NA
BRANCH   8   9
HETATM    9  N1  UNL     1      23.489  23.426  16.092  1.00  0.00    -0.261 N 
ATOM     10  H12 UNL     1      23.604  23.992  15.252  1.00  0.00     0.193 HD
ATOM     11  H11 UNL     1      23.435  24.128  16.830  1.00  0.00     0.193 HD
ENDBRANCH   8   9
ENDBRANCH   6   8
ENDBRANCH   1   6
BRANCH   5  12
HETATM   12  N4  UNL     1      23.767  17.754  16.068  1.00  0.00    -0.359 N 
ATOM     13  H4  UNL     1      23.029  17.219  16.525  1.00  0.00     0.162 HD
BRANCH  12  14
HETATM   14  C6  UNL     1      25.107  17.451  16.387  1.00  0.00     0.349 C 
HETATM   15  O3  UNL     1      25.495  16.288  16.668  1.00  0.00    -0.284 OA
ENDBRANCH  12  14
ENDBRANCH   5  12
BRANCH   3  16
HETATM   16  O1  UNL     1      20.760  18.163  16.491  1.00  0.00    -0.393 OA
ATOM     17  H1  UNL     1      19.823  18.036  16.587  1.00  0.00     0.210 HD
ENDBRANCH   3  16
BRANCH   4  18
HETATM   18  O2  UNL     1      21.903  17.077  14.295  1.00  0.00    -0.391 OA
ATOM     19  H2  UNL     1      22.635  16.600  14.667  1.00  0.00     0.210 HD
ENDBRANCH   4  18
TORSDOF 7
ENDMDL
MODEL 5
REMARK VINA RESULT: -6.165720926      2.396      4.279
REMARK  7 active torsions:
REMARK  status: ('A' for Active; 'I' for Inactive)
REMARK    1  A    between atoms: N1_1  and  N2_4 
REMARK    2  A    between atoms: N2_4  and  N3_5 
REMARK    3  A    between atoms: N3_5  and  C1_7 
REMARK    4  A    between atoms: C3_9  and  O1_10 
REMARK    5  A    between atoms: C4_12  and  O2_13 
REMARK    6  A    between atoms: C5_15  and  N4_16 
REMARK    7  A    between atoms: N4_16  and  C6_18 
ROOT
HETATM    1  C1  UNL     1      23.501  20.895  16.776  1.00  0.00     0.142 C 
HETATM    2  C2  UNL     1      22.386  20.399  15.921  1.00  0.00     0.064 C 
HETATM    3  C3  UNL     1      22.908  19.140  15.247  1.00  0.00     0.151 C 
HETATM    4  C4  UNL     1      24.381  19.380  15.193  1.00  0.00     0.171 C 
HETATM    5  C5  UNL     1      24.715  20.062  16.503  1.00  0.00     0.140 C 
ENDROOT
BRANCH   1   6
HETATM    6  N3  UNL     1      23.737  22.312  16.670  1.00  0.00    -0.246 N 
ATOM      7  H3  UNL     1      24.175  22.821  17.437  1.00  0.00     0.197 HD
BRANCH   6   8
HETATM    8  N2  UNL     1      23.407  22.892  15.654  1.00  0.00    -0.248 NA
BRANCH   8   9
HETATM    9  N1  UNL     1      23.423  23.338  14.505  1.00  0.00    -0.261 N 
ATOM     10  H12 UNL     1      24.351  22.985  14.271  1.00  0.00     0.193 HD
ATOM     11  H11 UNL     1      23.141  23.813  13.648  1.00  0.00     0.193 HD
ENDBRANCH   8   9
ENDBRANCH   6   8
ENDBRANCH   1   6
BRANCH   5  12
HETATM   12  N4  UNL     1      24.948  19.081  17.546  1.00  0.00    -0.359 N 
ATOM     13  H4  UNL     1      24.169  18.827  18.153  1.00  0.00     0.162 HD
BRANCH  12  14
HETATM   14  C6  UNL     1      26.195  18.459  17.762  1.00  0.00     0.349 C 
HETATM   15  O3  UNL     1      26.378  17.225  17.607  1.00  0.00    -0.284 OA
ENDBRANCH  12  14
ENDBRANCH   5  12
BRANCH   3  16
HETATM   16  O1  UNL     1      22.545  18.027  15.964  1.00  0.00    -0.393 OA
ATOM     17  H1  UNL     1      22.144  18.279  16.787  1.00  0.00     0.210 HD
ENDBRANCH   3  16
BRANCH   4  18
HETATM   18  O2  UNL     1      25.083  18.179  15.046  1.00  0.00    -0.391 OA
ATOM     19  H2  UNL     1      25.414  18.082  14.161  1.00  0.00     0.210 HD
ENDBRANCH   4  18
TORSDOF 7
ENDMDL
