MODEL 1
REMARK VINA RESULT: -5.787486065      0.000      0.000
REMARK  5 active torsions:
REMARK  status: ('A' for Active; 'I' for Inactive)
REMARK    1  A    between atoms: N2_5  and  C4_6 
REMARK    2  A    between atoms: C4_6  and  C5_7 
REMARK    3  A    between atoms: C5_7  and  C6_8 
REMARK    4  A    between atoms: C6_8  and  N5_13 
REMARK    5  A    between atoms: N5_13  and  N6_15 
ROOT
HETATM    1  C6  UNL     1      24.443  20.356  16.753  1.00  0.00     0.105 C 
HETATM    2  N3  UNL     1      24.036  21.533  17.091  1.00  0.00    -0.282 N 
ATOM      3  H3  UNL     1      24.069  21.844  18.062  1.00  0.00     0.179 HD
HETATM    4  C7  UNL     1      23.547  22.369  16.077  1.00  0.00     0.183 C 
HETATM    5  N4  UNL     1      23.156  23.071  15.227  1.00  0.00    -0.172 NA
ENDROOT
BRANCH   1   6
HETATM    6  C5  UNL     1      24.417  19.858  15.349  1.00  0.00     0.099 C 
BRANCH   6   7
HETATM    7  C4  UNL     1      23.803  18.465  15.388  1.00  0.00     0.136 C 
BRANCH   7   8
HETATM    8  N2  UNL     1      22.339  18.566  15.357  1.00  0.00    -0.351 N 
HETATM    9  C3  UNL     1      21.472  17.844  16.091  1.00  0.00     0.109 A 
HETATM   10  C2  UNL     1      20.179  18.254  15.755  1.00  0.00     0.108 A 
HETATM   11  N1  UNL     1      20.289  19.218  14.823  1.00  0.00    -0.356 N 
HETATM   12  C1  UNL     1      19.246  19.972  14.147  1.00  0.00     0.156 C 
HETATM   13  C8  UNL     1      21.606  19.395  14.593  1.00  0.00     0.184 A 
ENDBRANCH   7   8
ENDBRANCH   6   7
ENDBRANCH   1   6
BRANCH   1  14
HETATM   14  N5  UNL     1      24.955  19.447  17.734  1.00  0.00    -0.295 N 
ATOM     15  H5  UNL     1      24.295  18.910  18.296  1.00  0.00     0.187 HD
BRANCH  14  16
HETATM   16  N6  UNL     1      26.308  19.270  17.950  1.00  0.00    -0.344 N 
ATOM     17  H62 UNL     1      26.602  18.942  18.871  1.00  0.00     0.176 HD
ATOM     18  H61 UNL     1      27.007  19.453  17.231  1.00  0.00     0.176 HD
ENDBRANCH  14  16
ENDBRANCH   1  14
TORSDOF 5
ENDMDL
MODEL 2
REMARK VINA RESULT: -5.759346390      1.623      4.790
REMARK  5 active torsions:
REMARK  status: ('A' for Active; 'I' for Inactive)
REMARK    1  A    between atoms: N2_5  and  C4_6 
REMARK    2  A    between atoms: C4_6  and  C5_7 
REMARK    3  A    between atoms: C5_7  and  C6_8 
REMARK    4  A    between atoms: C6_8  and  N5_13 
REMARK    5  A    between atoms: N5_13  and  N6_15 
ROOT
HETATM    1  C6  UNL     1      21.579  20.677  15.042  1.00  0.00     0.105 C 
HETATM    2  N3  UNL     1      20.601  20.833  14.215  1.00  0.00    -0.282 N 
ATOM      3  H3  UNL     1      20.518  21.678  13.649  1.00  0.00     0.179 HD
HETATM    4  C7  UNL     1      19.656  19.799  14.121  1.00  0.00     0.183 C 
HETATM    5  N4  UNL     1      18.880  18.930  14.031  1.00  0.00    -0.172 NA
ENDROOT
BRANCH   1   6
HETATM    6  C5  UNL     1      21.744  19.460  15.887  1.00  0.00     0.099 C 
BRANCH   6   7
HETATM    7  C4  UNL     1      22.683  18.527  15.134  1.00  0.00     0.136 C 
BRANCH   7   8
HETATM    8  N2  UNL     1      23.890  18.285  15.934  1.00  0.00    -0.351 N 
HETATM    9  C3  UNL     1      24.510  17.103  16.107  1.00  0.00     0.109 A 
HETATM   10  C2  UNL     1      25.615  17.315  16.937  1.00  0.00     0.108 A 
HETATM   11  N1  UNL     1      25.641  18.623  17.249  1.00  0.00    -0.356 N 
HETATM   12  C1  UNL     1      26.585  19.355  18.079  1.00  0.00     0.156 C 
HETATM   13  C8  UNL     1      24.588  19.197  16.632  1.00  0.00     0.184 A 
ENDBRANCH   7   8
ENDBRANCH   6   7
ENDBRANCH   1   6
BRANCH   1  14
HETATM   14  N5  UNL     1      22.581  21.689  15.192  1.00  0.00    -0.295 N 
ATOM     15  H5  UNL     1      23.295  21.569  15.910  1.00  0.00     0.187 HD
BRANCH  14  16
HETATM   16  N6  UNL     1      22.617  22.822  14.403  1.00  0.00    -0.344 N 
ATOM     17  H62 UNL     1      22.044  22.831  13.559  1.00  0.00     0.176 HD
ATOM     18  H61 UNL     1      23.189  23.635  14.635  1.00  0.00     0.176 HD
ENDBRANCH  14  16
ENDBRANCH   1  14
TORSDOF 5
ENDMDL
MODEL 3
REMARK VINA RESULT: -5.552402839      1.605      5.436
REMARK  5 active torsions:
REMARK  status: ('A' for Active; 'I' for Inactive)
REMARK    1  A    between atoms: N2_5  and  C4_6 
REMARK    2  A    between atoms: C4_6  and  C5_7 
REMARK    3  A    between atoms: C5_7  and  C6_8 
REMARK    4  A    between atoms: C6_8  and  N5_13 
REMARK    5  A    between atoms: N5_13  and  N6_15 
ROOT
HETATM    1  C6  UNL     1      21.148  19.018  14.659  1.00  0.00     0.105 C 
HETATM    2  N3  UNL     1      21.398  17.761  14.504  1.00  0.00    -0.282 N 
ATOM      3  H3  UNL     1      21.228  17.295  13.612  1.00  0.00     0.179 HD
HETATM    4  C7  UNL     1      21.911  17.057  15.604  1.00  0.00     0.183 C 
HETATM    5  N4  UNL     1      22.355  16.477  16.516  1.00  0.00    -0.172 NA
ENDROOT
BRANCH   1   6
HETATM    6  C5  UNL     1      21.382  19.741  15.940  1.00  0.00     0.099 C 
BRANCH   6   7
HETATM    7  C4  UNL     1      22.329  20.892  15.629  1.00  0.00     0.136 C 
BRANCH   7   8
HETATM    8  N2  UNL     1      23.705  20.509  15.964  1.00  0.00    -0.351 N 
HETATM    9  C3  UNL     1      24.829  20.987  15.397  1.00  0.00     0.109 A 
HETATM   10  C2  UNL     1      25.918  20.360  16.006  1.00  0.00     0.108 A 
HETATM   11  N1  UNL     1      25.432  19.514  16.932  1.00  0.00    -0.356 N 
HETATM   12  C1  UNL     1      26.146  18.628  17.837  1.00  0.00     0.156 C 
HETATM   13  C8  UNL     1      24.088  19.617  16.893  1.00  0.00     0.184 A 
ENDBRANCH   7   8
ENDBRANCH   6   7
ENDBRANCH   1   6
BRANCH   1  14
HETATM   14  N5  UNL     1      20.623  19.799  13.581  1.00  0.00    -0.295 N 
ATOM     15  H5  UNL     1      21.165  19.875  12.721  1.00  0.00     0.187 HD
BRANCH  14  16
HETATM   16  N6  UNL     1      19.409  20.456  13.661  1.00  0.00    -0.344 N 
ATOM     17  H62 UNL     1      18.976  20.541  14.580  1.00  0.00     0.176 HD
ATOM     18  H61 UNL     1      18.943  20.850  12.843  1.00  0.00     0.176 HD
ENDBRANCH  14  16
ENDBRANCH   1  14
TORSDOF 5
ENDMDL
MODEL 4
REMARK VINA RESULT: -5.346497594      1.559      4.539
REMARK  5 active torsions:
REMARK  status: ('A' for Active; 'I' for Inactive)
REMARK    1  A    between atoms: N2_5  and  C4_6 
REMARK    2  A    between atoms: C4_6  and  C5_7 
REMARK    3  A    between atoms: C5_7  and  C6_8 
REMARK    4  A    between atoms: C6_8  and  N5_13 
REMARK    5  A    between atoms: N5_13  and  N6_15 
ROOT
HETATM    1  C6  UNL     1      21.440  20.875  14.620  1.00  0.00     0.105 C 
HETATM    2  N3  UNL     1      21.981  22.044  14.530  1.00  0.00    -0.282 N 
ATOM      3  H3  UNL     1      21.744  22.678  13.766  1.00  0.00     0.179 HD
HETATM    4  C7  UNL     1      22.907  22.412  15.518  1.00  0.00     0.183 C 
HETATM    5  N4  UNL     1      23.665  22.723  16.352  1.00  0.00    -0.172 NA
ENDROOT
BRANCH   1   6
HETATM    6  C5  UNL     1      21.753  19.917  15.717  1.00  0.00     0.099 C 
BRANCH   6   7
HETATM    7  C4  UNL     1      22.477  18.739  15.078  1.00  0.00     0.136 C 
BRANCH   7   8
HETATM    8  N2  UNL     1      23.688  18.424  15.844  1.00  0.00    -0.351 N 
HETATM    9  C3  UNL     1      24.266  17.214  15.965  1.00  0.00     0.109 A 
HETATM   10  C2  UNL     1      25.393  17.356  16.778  1.00  0.00     0.108 A 
HETATM   11  N1  UNL     1      25.477  18.650  17.133  1.00  0.00    -0.356 N 
HETATM   12  C1  UNL     1      26.463  19.317  17.967  1.00  0.00     0.156 C 
HETATM   13  C8  UNL     1      24.435  19.285  16.558  1.00  0.00     0.184 A 
ENDBRANCH   7   8
ENDBRANCH   6   7
ENDBRANCH   1   6
BRANCH   1  14
HETATM   14  N5  UNL     1      20.488  20.432  13.649  1.00  0.00    -0.295 N 
ATOM     15  H5  UNL     1      20.609  20.717  12.677  1.00  0.00     0.187 HD
BRANCH  14  16
HETATM   16  N6  UNL     1      19.410  19.632  13.975  1.00  0.00    -0.344 N 
ATOM     17  H62 UNL     1      19.210  19.486  14.965  1.00  0.00     0.176 HD
ATOM     18  H61 UNL     1      18.819  19.191  13.269  1.00  0.00     0.176 HD
ENDBRANCH  14  16
ENDBRANCH   1  14
TORSDOF 5
ENDMDL
MODEL 5
REMARK VINA RESULT: -5.310902424      1.578      4.955
REMARK  5 active torsions:
REMARK  status: ('A' for Active; 'I' for Inactive)
REMARK    1  A    between atoms: N2_5  and  C4_6 
REMARK    2  A    between atoms: C4_6  and  C5_7 
REMARK    3  A    between atoms: C5_7  and  C6_8 
REMARK    4  A    between atoms: C6_8  and  N5_13 
REMARK    5  A    between atoms: N5_13  and  N6_15 
ROOT
HETATM    1  C6  UNL     1      21.436  20.714  14.942  1.00  0.00     0.105 C 
HETATM    2  N3  UNL     1      20.469  20.930  14.115  1.00  0.00    -0.282 N 
ATOM      3  H3  UNL     1      20.361  21.833  13.653  1.00  0.00     0.179 HD
HETATM    4  C7  UNL     1      19.571  19.879  13.873  1.00  0.00     0.183 C 
HETATM    5  N4  UNL     1      18.835  18.996  13.660  1.00  0.00    -0.172 NA
ENDROOT
BRANCH   1   6
HETATM    6  C5  UNL     1      21.635  19.412  15.638  1.00  0.00     0.099 C 
BRANCH   6   7
HETATM    7  C4  UNL     1      22.838  18.745  14.986  1.00  0.00     0.136 C 
BRANCH   7   8
HETATM    8  N2  UNL     1      24.064  19.125  15.697  1.00  0.00    -0.351 N 
HETATM    9  C3  UNL     1      24.931  20.090  15.336  1.00  0.00     0.109 A 
HETATM   10  C2  UNL     1      25.956  20.123  16.285  1.00  0.00     0.108 A 
HETATM   11  N1  UNL     1      25.688  19.178  17.204  1.00  0.00    -0.356 N 
HETATM   12  C1  UNL     1      26.439  18.808  18.393  1.00  0.00     0.156 C 
HETATM   13  C8  UNL     1      24.537  18.582  16.832  1.00  0.00     0.184 A 
ENDBRANCH   7   8
ENDBRANCH   6   7
ENDBRANCH   1   6
BRANCH   1  14
HETATM   14  N5  UNL     1      22.389  21.739  15.238  1.00  0.00    -0.295 N 
ATOM     15  H5  UNL     1      22.951  21.656  16.085  1.00  0.00     0.187 HD
BRANCH  14  16
HETATM   16  N6  UNL     1      22.579  22.837  14.421  1.00  0.00    -0.344 N 
ATOM     17  H62 UNL     1      21.987  22.921  13.595  1.00  0.00     0.176 HD
ATOM     18  H61 UNL     1      23.280  23.552  14.616  1.00  0.00     0.176 HD
ENDBRANCH  14  16
ENDBRANCH   1  14
TORSDOF 5
ENDMDL
