MODEL 1
REMARK VINA RESULT: -6.468431723      0.000      0.000
REMARK  7 active torsions:
REMARK  status: ('A' for Active; 'I' for Inactive)
REMARK    1  A    between atoms: N1_1  and  C1_4 
REMARK    2  A    between atoms: C2_5  and  C3_6 
REMARK    3  A    between atoms: C3_6  and  O1_7 
REMARK    4  A    between atoms: C3_6  and  C4_9 
REMARK    5  A    between atoms: C3_6  and  C5_12 
REMARK    6  A    between atoms: C4_9  and  O2_10 
REMARK    7  A    between atoms: C5_12  and  N2_13 
ROOT
HETATM    1  C3  UNL     1      23.472  21.553  15.857  1.00  0.00     0.160 C 
ENDROOT
BRANCH   1   2
HETATM    2  C2  UNL     1      22.321  20.646  15.683  1.00  0.00    -0.042 C 
HETATM    3  C1  UNL     1      21.382  19.907  15.524  1.00  0.00     0.006 C 
BRANCH   3   4
HETATM    4  N1  UNL     1      20.302  19.035  15.360  1.00  0.00    -0.359 N 
ATOM      5  H12 UNL     1      21.065  19.146  16.028  1.00  0.00     0.166 HD
ATOM      6  H11 UNL     1      19.509  18.408  15.226  1.00  0.00     0.166 HD
ENDBRANCH   3   4
ENDBRANCH   1   2
BRANCH   1   7
HETATM    7  O1  UNL     1      23.608  21.748  17.267  1.00  0.00    -0.373 OA
ATOM      8  H1  UNL     1      24.521  21.966  17.413  1.00  0.00     0.212 HD
ENDBRANCH   1   7
BRANCH   1   9
HETATM    9  C4  UNL     1      23.115  22.862  15.263  1.00  0.00     0.217 C 
BRANCH   9  10
HETATM   10  O2  UNL     1      22.359  22.856  14.128  1.00  0.00    -0.397 OA
ATOM     11  H2  UNL     1      22.793  23.067  13.310  1.00  0.00     0.209 HD
ENDBRANCH   9  10
ENDBRANCH   1   9
BRANCH   1  12
HETATM   12  C5  UNL     1      24.751  20.929  15.441  1.00  0.00     0.181 C 
BRANCH  12  13
HETATM   13  N2  UNL     1      25.129  19.709  16.071  1.00  0.00    -0.363 N 
HETATM   14  C6  UNL     1      24.853  18.536  15.473  1.00  0.00     0.090 A 
HETATM   15  C7  UNL     1      25.221  17.373  16.095  1.00  0.00     0.017 A 
HETATM   16  C8  UNL     1      25.862  17.348  17.311  1.00  0.00     0.003 A 
HETATM   17  C9  UNL     1      26.141  18.543  17.912  1.00  0.00     0.017 A 
HETATM   18  C10 UNL     1      25.767  19.702  17.280  1.00  0.00     0.090 A 
ENDBRANCH  12  13
ENDBRANCH   1  12
TORSDOF 7
ENDMDL
MODEL 2
REMARK VINA RESULT: -6.432241514      0.042      1.252
REMARK  7 active torsions:
REMARK  status: ('A' for Active; 'I' for Inactive)
REMARK    1  A    between atoms: N1_1  and  C1_4 
REMARK    2  A    between atoms: C2_5  and  C3_6 
REMARK    3  A    between atoms: C3_6  and  O1_7 
REMARK    4  A    between atoms: C3_6  and  C4_9 
REMARK    5  A    between atoms: C3_6  and  C5_12 
REMARK    6  A    between atoms: C4_9  and  O2_10 
REMARK    7  A    between atoms: C5_12  and  N2_13 
ROOT
HETATM    1  C3  UNL     1      23.476  21.546  15.861  1.00  0.00     0.160 C 
ENDROOT
BRANCH   1   2
HETATM    2  C2  UNL     1      22.325  20.641  15.682  1.00  0.00    -0.042 C 
HETATM    3  C1  UNL     1      21.389  19.899  15.520  1.00  0.00     0.006 C 
BRANCH   3   4
HETATM    4  N1  UNL     1      20.307  19.029  15.356  1.00  0.00    -0.359 N 
ATOM      5  H12 UNL     1      21.160  19.250  14.842  1.00  0.00     0.166 HD
ATOM      6  H11 UNL     1      19.511  18.400  15.252  1.00  0.00     0.166 HD
ENDBRANCH   3   4
ENDBRANCH   1   2
BRANCH   1   7
HETATM    7  O1  UNL     1      23.607  21.740  17.272  1.00  0.00    -0.373 OA
ATOM      8  H1  UNL     1      23.976  22.608  17.382  1.00  0.00     0.212 HD
ENDBRANCH   1   7
BRANCH   1   9
HETATM    9  C4  UNL     1      23.123  22.856  15.266  1.00  0.00     0.217 C 
BRANCH   9  10
HETATM   10  O2  UNL     1      22.368  22.852  14.131  1.00  0.00    -0.397 OA
ATOM     11  H2  UNL     1      22.165  22.010  13.741  1.00  0.00     0.209 HD
ENDBRANCH   9  10
ENDBRANCH   1   9
BRANCH   1  12
HETATM   12  C5  UNL     1      24.756  20.921  15.449  1.00  0.00     0.181 C 
BRANCH  12  13
HETATM   13  N2  UNL     1      25.142  19.713  16.097  1.00  0.00    -0.363 N 
HETATM   14  C6  UNL     1      25.790  19.765  17.275  1.00  0.00     0.090 A 
HETATM   15  C7  UNL     1      26.156  18.593  17.881  1.00  0.00     0.017 A 
HETATM   16  C8  UNL     1      25.891  17.358  17.338  1.00  0.00     0.003 A 
HETATM   17  C9  UNL     1      25.232  17.312  16.143  1.00  0.00     0.017 A 
HETATM   18  C10 UNL     1      24.871  18.492  15.544  1.00  0.00     0.090 A 
ENDBRANCH  12  13
ENDBRANCH   1  12
TORSDOF 7
ENDMDL
MODEL 3
REMARK VINA RESULT: -5.504406258      2.634      3.474
REMARK  7 active torsions:
REMARK  status: ('A' for Active; 'I' for Inactive)
REMARK    1  A    between atoms: N1_1  and  C1_4 
REMARK    2  A    between atoms: C2_5  and  C3_6 
REMARK    3  A    between atoms: C3_6  and  O1_7 
REMARK    4  A    between atoms: C3_6  and  C4_9 
REMARK    5  A    between atoms: C3_6  and  C5_12 
REMARK    6  A    between atoms: C4_9  and  O2_10 
REMARK    7  A    between atoms: C5_12  and  N2_13 
ROOT
HETATM    1  C3  UNL     1      22.009  18.383  14.959  1.00  0.00     0.160 C 
ENDROOT
BRANCH   1   2
HETATM    2  C2  UNL     1      20.787  19.150  14.646  1.00  0.00    -0.042 C 
HETATM    3  C1  UNL     1      19.791  19.772  14.374  1.00  0.00     0.006 C 
BRANCH   3   4
HETATM    4  N1  UNL     1      18.625  20.483  14.080  1.00  0.00    -0.359 N 
ATOM      5  H12 UNL     1      18.853  19.542  14.398  1.00  0.00     0.166 HD
ATOM      6  H11 UNL     1      17.784  21.017  13.862  1.00  0.00     0.166 HD
ENDBRANCH   3   4
ENDBRANCH   1   2
BRANCH   1   7
HETATM    7  O1  UNL     1      22.255  17.556  13.819  1.00  0.00    -0.373 OA
ATOM      8  H1  UNL     1      21.405  17.391  13.428  1.00  0.00     0.212 HD
ENDBRANCH   1   7
BRANCH   1   9
HETATM    9  C4  UNL     1      21.704  17.486  16.098  1.00  0.00     0.217 C 
BRANCH   9  10
HETATM   10  O2  UNL     1      21.834  16.143  15.896  1.00  0.00    -0.397 OA
ATOM     11  H2  UNL     1      21.161  15.708  15.386  1.00  0.00     0.209 HD
ENDBRANCH   9  10
ENDBRANCH   1   9
BRANCH   1  12
HETATM   12  C5  UNL     1      23.209  19.248  15.059  1.00  0.00     0.181 C 
BRANCH  12  13
HETATM   13  N2  UNL     1      24.219  18.873  15.989  1.00  0.00    -0.363 N 
HETATM   14  C6  UNL     1      24.601  19.738  16.946  1.00  0.00     0.090 A 
HETATM   15  C7  UNL     1      25.577  19.361  17.829  1.00  0.00     0.017 A 
HETATM   16  C8  UNL     1      26.190  18.131  17.782  1.00  0.00     0.003 A 
HETATM   17  C9  UNL     1      25.798  17.257  16.809  1.00  0.00     0.017 A 
HETATM   18  C10 UNL     1      24.820  17.646  15.929  1.00  0.00     0.090 A 
ENDBRANCH  12  13
ENDBRANCH   1  12
TORSDOF 7
ENDMDL
MODEL 4
REMARK VINA RESULT: -5.353648276      1.857      4.653
REMARK  7 active torsions:
REMARK  status: ('A' for Active; 'I' for Inactive)
REMARK    1  A    between atoms: N1_1  and  C1_4 
REMARK    2  A    between atoms: C2_5  and  C3_6 
REMARK    3  A    between atoms: C3_6  and  O1_7 
REMARK    4  A    between atoms: C3_6  and  C4_9 
REMARK    5  A    between atoms: C3_6  and  C5_12 
REMARK    6  A    between atoms: C4_9  and  O2_10 
REMARK    7  A    between atoms: C5_12  and  N2_13 
ROOT
HETATM    1  C3  UNL     1      24.058  20.117  15.758  1.00  0.00     0.160 C 
ENDROOT
BRANCH   1   2
HETATM    2  C2  UNL     1      24.872  19.588  16.870  1.00  0.00    -0.042 C 
HETATM    3  C1  UNL     1      25.549  19.166  17.774  1.00  0.00     0.006 C 
BRANCH   3   4
HETATM    4  N1  UNL     1      26.313  18.677  18.837  1.00  0.00    -0.359 N 
ATOM      5  H12 UNL     1      25.341  18.950  18.692  1.00  0.00     0.166 HD
ATOM      6  H11 UNL     1      26.885  18.319  19.602  1.00  0.00     0.166 HD
ENDBRANCH   3   4
ENDBRANCH   1   2
BRANCH   1   7
HETATM    7  O1  UNL     1      24.985  20.692  14.833  1.00  0.00    -0.373 OA
ATOM      8  H1  UNL     1      25.602  20.002  14.621  1.00  0.00     0.212 HD
ENDBRANCH   1   7
BRANCH   1   9
HETATM    9  C4  UNL     1      23.223  21.219  16.289  1.00  0.00     0.217 C 
BRANCH   9  10
HETATM   10  O2  UNL     1      23.847  22.194  17.010  1.00  0.00    -0.397 OA
ATOM     11  H2  UNL     1      23.330  22.946  17.273  1.00  0.00     0.209 HD
ENDBRANCH   9  10
ENDBRANCH   1   9
BRANCH   1  12
HETATM   12  C5  UNL     1      23.382  19.043  14.991  1.00  0.00     0.181 C 
BRANCH  12  13
HETATM   13  N2  UNL     1      21.959  19.026  14.989  1.00  0.00    -0.363 N 
HETATM   14  C6  UNL     1      21.300  18.152  15.773  1.00  0.00     0.090 A 
HETATM   15  C7  UNL     1      19.931  18.148  15.754  1.00  0.00     0.017 A 
HETATM   16  C8  UNL     1      19.193  19.001  14.967  1.00  0.00     0.003 A 
HETATM   17  C9  UNL     1      19.867  19.886  14.175  1.00  0.00     0.017 A 
HETATM   18  C10 UNL     1      21.239  19.881  14.201  1.00  0.00     0.090 A 
ENDBRANCH  12  13
ENDBRANCH   1  12
TORSDOF 7
ENDMDL
MODEL 5
REMARK VINA RESULT: -5.300633043      2.051      4.814
REMARK  7 active torsions:
REMARK  status: ('A' for Active; 'I' for Inactive)
REMARK    1  A    between atoms: N1_1  and  C1_4 
REMARK    2  A    between atoms: C2_5  and  C3_6 
REMARK    3  A    between atoms: C3_6  and  O1_7 
REMARK    4  A    between atoms: C3_6  and  C4_9 
REMARK    5  A    between atoms: C3_6  and  C5_12 
REMARK    6  A    between atoms: C4_9  and  O2_10 
REMARK    7  A    between atoms: C5_12  and  N2_13 
ROOT
HETATM    1  C3  UNL     1      24.104  19.575  15.659  1.00  0.00     0.160 C 
ENDROOT
BRANCH   1   2
HETATM    2  C2  UNL     1      24.960  18.619  16.388  1.00  0.00    -0.042 C 
HETATM    3  C1  UNL     1      25.653  17.826  16.974  1.00  0.00     0.006 C 
BRANCH   3   4
HETATM    4  N1  UNL     1      26.477  16.924  17.654  1.00  0.00    -0.359 N 
ATOM      5  H12 UNL     1      25.884  16.900  16.824  1.00  0.00     0.166 HD
ATOM      6  H11 UNL     1      27.082  16.279  18.161  1.00  0.00     0.166 HD
ENDBRANCH   3   4
ENDBRANCH   1   2
BRANCH   1   7
HETATM    7  O1  UNL     1      23.668  18.891  14.482  1.00  0.00    -0.373 OA
ATOM      8  H1  UNL     1      22.767  18.639  14.646  1.00  0.00     0.212 HD
ENDBRANCH   1   7
BRANCH   1   9
HETATM    9  C4  UNL     1      24.955  20.707  15.223  1.00  0.00     0.217 C 
BRANCH   9  10
HETATM   10  O2  UNL     1      24.333  21.789  14.673  1.00  0.00    -0.397 OA
ATOM     11  H2  UNL     1      23.974  21.693  13.799  1.00  0.00     0.209 HD
ENDBRANCH   9  10
ENDBRANCH   1   9
BRANCH   1  12
HETATM   12  C5  UNL     1      22.855  19.889  16.393  1.00  0.00     0.181 C 
BRANCH  12  13
HETATM   13  N2  UNL     1      21.620  19.684  15.716  1.00  0.00    -0.363 N 
HETATM   14  C6  UNL     1      20.881  18.593  15.992  1.00  0.00     0.090 A 
HETATM   15  C7  UNL     1      19.697  18.411  15.329  1.00  0.00     0.017 A 
HETATM   16  C8  UNL     1      19.225  19.295  14.388  1.00  0.00     0.003 A 
HETATM   17  C9  UNL     1      19.979  20.401  14.113  1.00  0.00     0.017 A 
HETATM   18  C10 UNL     1      21.164  20.573  14.783  1.00  0.00     0.090 A 
ENDBRANCH  12  13
ENDBRANCH   1  12
TORSDOF 7
ENDMDL
