MODEL 1
REMARK VINA RESULT: -8.126759766      0.000      0.000
REMARK  7 active torsions:
REMARK  status: ('A' for Active; 'I' for Inactive)
REMARK    1  A    between atoms: N1_2  and  C2_4 
REMARK    2  A    between atoms: C2_4  and  N2_5 
REMARK    3  A    between atoms: C2_4  and  C5_10 
REMARK       I    between atoms: N2_5  and  C3_7 
REMARK       I    between atoms: C5_10  and  N3_12 
REMARK    4  A    between atoms: N3_12  and  C6_14 
REMARK    5  A    between atoms: C6_14  and  C8_16 
REMARK       I    between atoms: C8_16  and  N4_18 
REMARK    6  A    between atoms: N4_18  and  C9_20 
REMARK    7  A    between atoms: C12_23  and  N5_24 
ROOT
HETATM    1  C6  UNL     1      -2.089   1.751   5.553  1.00  0.00     0.076 C 
HETATM    2  C7  UNL     1      -1.412   2.455   6.703  1.00  0.00     0.074 C 
ENDROOT
BRANCH   1   3
HETATM    3  N3  UNL     1      -2.214   0.364   5.645  1.00  0.00    -0.319 N 
HETATM    4  C5  UNL     1      -3.024  -0.378   6.590  1.00  0.00     0.289 C 
HETATM    5  O2  UNL     1      -3.664   0.196   7.473  1.00  0.00    -0.264 OA
ATOM      6  H3  UNL     1      -1.677  -0.187   4.974  1.00  0.00     0.169 HD
BRANCH   4   7
HETATM    7  C2  UNL     1      -3.104  -1.858   6.476  1.00  0.00     0.172 C 
BRANCH   7   8
HETATM    8  N1  UNL     1      -4.395  -2.404   6.300  1.00  0.00    -0.376 N 
HETATM    9  C1  UNL     1      -5.267  -1.697   5.419  1.00  0.00     0.148 C 
ATOM     10  H1  UNL     1      -4.687  -3.257   6.776  1.00  0.00     0.160 HD
ENDBRANCH   7   8
BRANCH   7  11
HETATM   11  N2  UNL     1      -2.117  -2.532   5.780  1.00  0.00    -0.309 N 
HETATM   12  C3  UNL     1      -2.383  -3.891   5.327  1.00  0.00     0.219 C 
HETATM   13  C4  UNL     1      -1.402  -4.656   4.514  1.00  0.00     0.117 C 
HETATM   14  O1  UNL     1      -3.454  -4.425   5.629  1.00  0.00    -0.274 OA
ATOM     15  H2  UNL     1      -1.220  -2.086   5.588  1.00  0.00     0.170 HD
ENDBRANCH   7  11
ENDBRANCH   4   7
ENDBRANCH   1   3
BRANCH   1  16
HETATM   16  C8  UNL     1      -1.677   2.334   4.255  1.00  0.00     0.268 C 
HETATM   17  O3  UNL     1      -1.056   1.611   3.460  1.00  0.00    -0.266 OA
HETATM   18  N4  UNL     1      -1.997   3.679   3.969  1.00  0.00    -0.322 N 
ATOM     19  H4  UNL     1      -2.551   4.178   4.666  1.00  0.00     0.169 HD
BRANCH  18  20
HETATM   20  C9  UNL     1      -1.624   4.407   2.807  1.00  0.00     0.035 A 
HETATM   21  C10 UNL     1      -0.327   4.753   2.510  1.00  0.00     0.032 A 
HETATM   22  C11 UNL     1      -0.019   5.527   1.402  1.00  0.00     0.038 A 
HETATM   23  C12 UNL     1      -1.022   5.988   0.530  1.00  0.00     0.103 A 
HETATM   24  C13 UNL     1      -2.331   5.648   0.805  1.00  0.00     0.038 A 
HETATM   25  C14 UNL     1      -2.583   4.866   1.937  1.00  0.00     0.032 A 
BRANCH  23  26
HETATM   26  N5  UNL     1      -0.661   6.765  -0.580  1.00  0.00    -0.116 N 
HETATM   27  O4  UNL     1       0.238   7.615  -0.530  1.00  0.00    -0.532 OA
HETATM   28  O5  UNL     1      -1.310   6.605  -1.796  1.00  0.00    -0.532 OA
ENDBRANCH  23  26
ENDBRANCH  18  20
ENDBRANCH   1  16
TORSDOF 7
ENDMDL
MODEL 2
REMARK VINA RESULT: -7.670212155      1.835      2.650
REMARK  7 active torsions:
REMARK  status: ('A' for Active; 'I' for Inactive)
REMARK    1  A    between atoms: N1_2  and  C2_4 
REMARK    2  A    between atoms: C2_4  and  N2_5 
REMARK    3  A    between atoms: C2_4  and  C5_10 
REMARK       I    between atoms: N2_5  and  C3_7 
REMARK       I    between atoms: C5_10  and  N3_12 
REMARK    4  A    between atoms: N3_12  and  C6_14 
REMARK    5  A    between atoms: C6_14  and  C8_16 
REMARK       I    between atoms: C8_16  and  N4_18 
REMARK    6  A    between atoms: N4_18  and  C9_20 
REMARK    7  A    between atoms: C12_23  and  N5_24 
ROOT
HETATM    1  C6  UNL     1      -2.323   0.317   6.483  1.00  0.00     0.076 C 
HETATM    2  C7  UNL     1      -2.223   0.439   7.984  1.00  0.00     0.074 C 
ENDROOT
BRANCH   1   3
HETATM    3  N3  UNL     1      -1.970  -0.912   5.924  1.00  0.00    -0.319 N 
HETATM    4  C5  UNL     1      -2.721  -2.149   5.993  1.00  0.00     0.289 C 
HETATM    5  O2  UNL     1      -3.770  -2.227   6.635  1.00  0.00    -0.264 OA
ATOM      6  H3  UNL     1      -1.088  -0.943   5.411  1.00  0.00     0.169 HD
BRANCH   4   7
HETATM    7  C2  UNL     1      -2.230  -3.342   5.252  1.00  0.00     0.172 C 
BRANCH   7   8
HETATM    8  N1  UNL     1      -0.852  -3.629   5.370  1.00  0.00    -0.376 N 
HETATM    9  C1  UNL     1      -0.510  -4.978   5.688  1.00  0.00     0.148 C 
ATOM     10  H1  UNL     1      -0.140  -2.912   5.235  1.00  0.00     0.160 HD
ENDBRANCH   7   8
BRANCH   7  11
HETATM   11  N2  UNL     1      -3.028  -4.469   5.191  1.00  0.00    -0.309 N 
HETATM   12  C3  UNL     1      -3.195  -5.141   3.909  1.00  0.00     0.219 C 
HETATM   13  C4  UNL     1      -3.979  -6.396   3.774  1.00  0.00     0.117 C 
HETATM   14  O1  UNL     1      -2.672  -4.653   2.904  1.00  0.00    -0.274 OA
ATOM     15  H2  UNL     1      -3.492  -4.824   6.028  1.00  0.00     0.170 HD
ENDBRANCH   7  11
ENDBRANCH   4   7
ENDBRANCH   1   3
BRANCH   1  16
HETATM   16  C8  UNL     1      -1.852   1.553   5.816  1.00  0.00     0.268 C 
HETATM   17  O3  UNL     1      -1.644   2.554   6.520  1.00  0.00    -0.266 OA
HETATM   18  N4  UNL     1      -1.659   1.553   4.418  1.00  0.00    -0.322 N 
ATOM     19  H4  UNL     1      -1.811   0.668   3.933  1.00  0.00     0.169 HD
BRANCH  18  20
HETATM   20  C9  UNL     1      -1.274   2.663   3.618  1.00  0.00     0.035 A 
HETATM   21  C10 UNL     1       0.012   2.877   3.184  1.00  0.00     0.032 A 
HETATM   22  C11 UNL     1       0.355   4.012   2.466  1.00  0.00     0.038 A 
HETATM   23  C12 UNL     1      -0.602   4.993   2.149  1.00  0.00     0.103 A 
HETATM   24  C13 UNL     1      -1.901   4.796   2.568  1.00  0.00     0.038 A 
HETATM   25  C14 UNL     1      -2.190   3.632   3.290  1.00  0.00     0.032 A 
BRANCH  23  26
HETATM   26  N5  UNL     1      -0.207   6.124   1.417  1.00  0.00    -0.116 N 
HETATM   27  O4  UNL     1      -0.410   6.231   0.201  1.00  0.00    -0.532 OA
HETATM   28  O5  UNL     1       0.435   7.181   2.045  1.00  0.00    -0.532 OA
ENDBRANCH  23  26
ENDBRANCH  18  20
ENDBRANCH   1  16
TORSDOF 7
ENDMDL
MODEL 3
REMARK VINA RESULT: -7.639851319      2.683      8.956
REMARK  7 active torsions:
REMARK  status: ('A' for Active; 'I' for Inactive)
REMARK    1  A    between atoms: N1_2  and  C2_4 
REMARK    2  A    between atoms: C2_4  and  N2_5 
REMARK    3  A    between atoms: C2_4  and  C5_10 
REMARK       I    between atoms: N2_5  and  C3_7 
REMARK       I    between atoms: C5_10  and  N3_12 
REMARK    4  A    between atoms: N3_12  and  C6_14 
REMARK    5  A    between atoms: C6_14  and  C8_16 
REMARK       I    between atoms: C8_16  and  N4_18 
REMARK    6  A    between atoms: N4_18  and  C9_20 
REMARK    7  A    between atoms: C12_23  and  N5_24 
ROOT
HETATM    1  C6  UNL     1      -0.970   4.744   1.796  1.00  0.00     0.076 C 
HETATM    2  C7  UNL     1       0.301   5.554   1.731  1.00  0.00     0.074 C 
ENDROOT
BRANCH   1   3
HETATM    3  N3  UNL     1      -2.172   5.443   1.676  1.00  0.00    -0.319 N 
HETATM    4  C5  UNL     1      -2.650   6.162   0.513  1.00  0.00     0.289 C 
HETATM    5  O2  UNL     1      -1.963   6.261  -0.506  1.00  0.00    -0.264 OA
ATOM      6  H3  UNL     1      -2.780   5.447   2.496  1.00  0.00     0.169 HD
BRANCH   4   7
HETATM    7  C2  UNL     1      -4.007   6.772   0.540  1.00  0.00     0.172 C 
BRANCH   7   8
HETATM    8  N1  UNL     1      -4.158   7.994  -0.152  1.00  0.00    -0.376 N 
HETATM    9  C1  UNL     1      -3.675   9.162   0.510  1.00  0.00     0.148 C 
ATOM     10  H1  UNL     1      -4.588   8.039  -1.075  1.00  0.00     0.160 HD
ENDBRANCH   7   8
BRANCH   7  11
HETATM   11  N2  UNL     1      -5.114   5.948   0.459  1.00  0.00    -0.309 N 
HETATM   12  C3  UNL     1      -6.300   6.291   1.233  1.00  0.00     0.219 C 
HETATM   13  C4  UNL     1      -7.553   5.497   1.146  1.00  0.00     0.117 C 
HETATM   14  O1  UNL     1      -6.264   7.269   1.984  1.00  0.00    -0.274 OA
ATOM     15  H2  UNL     1      -5.101   5.116  -0.130  1.00  0.00     0.170 HD
ENDBRANCH   7  11
ENDBRANCH   4   7
ENDBRANCH   1   3
BRANCH   1  16
HETATM   16  C8  UNL     1      -0.874   3.685   2.827  1.00  0.00     0.268 C 
HETATM   17  O3  UNL     1       0.118   2.938   2.808  1.00  0.00    -0.266 OA
HETATM   18  N4  UNL     1      -1.902   3.559   3.786  1.00  0.00    -0.322 N 
ATOM     19  H4  UNL     1      -2.652   4.249   3.749  1.00  0.00     0.169 HD
BRANCH  18  20
HETATM   20  C9  UNL     1      -1.996   2.565   4.798  1.00  0.00     0.035 A 
HETATM   21  C10 UNL     1      -2.490   1.301   4.578  1.00  0.00     0.032 A 
HETATM   22  C11 UNL     1      -2.630   0.388   5.612  1.00  0.00     0.038 A 
HETATM   23  C12 UNL     1      -2.270   0.717   6.931  1.00  0.00     0.103 A 
HETATM   24  C13 UNL     1      -1.767   1.978   7.175  1.00  0.00     0.038 A 
HETATM   25  C14 UNL     1      -1.648   2.859   6.093  1.00  0.00     0.032 A 
BRANCH  23  26
HETATM   26  N5  UNL     1      -2.428  -0.242   7.943  1.00  0.00    -0.116 N 
HETATM   27  O4  UNL     1      -1.744  -1.272   7.993  1.00  0.00    -0.532 OA
HETATM   28  O5  UNL     1      -3.374  -0.064   8.943  1.00  0.00    -0.532 OA
ENDBRANCH  23  26
ENDBRANCH  18  20
ENDBRANCH   1  16
TORSDOF 7
ENDMDL
MODEL 4
REMARK VINA RESULT: -7.630462002      2.516      8.844
REMARK  7 active torsions:
REMARK  status: ('A' for Active; 'I' for Inactive)
REMARK    1  A    between atoms: N1_2  and  C2_4 
REMARK    2  A    between atoms: C2_4  and  N2_5 
REMARK    3  A    between atoms: C2_4  and  C5_10 
REMARK       I    between atoms: N2_5  and  C3_7 
REMARK       I    between atoms: C5_10  and  N3_12 
REMARK    4  A    between atoms: N3_12  and  C6_14 
REMARK    5  A    between atoms: C6_14  and  C8_16 
REMARK       I    between atoms: C8_16  and  N4_18 
REMARK    6  A    between atoms: N4_18  and  C9_20 
REMARK    7  A    between atoms: C12_23  and  N5_24 
ROOT
HETATM    1  C6  UNL     1      -0.839   4.757   1.831  1.00  0.00     0.076 C 
HETATM    2  C7  UNL     1       0.122   5.881   2.134  1.00  0.00     0.074 C 
ENDROOT
BRANCH   1   3
HETATM    3  N3  UNL     1      -2.096   5.115   1.341  1.00  0.00    -0.319 N 
HETATM    4  C5  UNL     1      -2.378   5.916   0.167  1.00  0.00     0.289 C 
HETATM    5  O2  UNL     1      -1.470   6.417  -0.500  1.00  0.00    -0.264 OA
ATOM      6  H3  UNL     1      -2.902   4.776   1.866  1.00  0.00     0.169 HD
BRANCH   4   7
HETATM    7  C2  UNL     1      -3.790   6.117  -0.256  1.00  0.00     0.172 C 
BRANCH   7   8
HETATM    8  N1  UNL     1      -4.538   7.058   0.485  1.00  0.00    -0.376 N 
HETATM    9  C1  UNL     1      -5.290   6.548   1.585  1.00  0.00     0.148 C 
ATOM     10  H1  UNL     1      -4.540   8.050   0.246  1.00  0.00     0.160 HD
ENDBRANCH   7   8
BRANCH   7  11
HETATM   11  N2  UNL     1      -4.094   6.103  -1.604  1.00  0.00    -0.309 N 
HETATM   12  C3  UNL     1      -5.222   5.302  -2.060  1.00  0.00     0.219 C 
HETATM   13  C4  UNL     1      -5.656   5.291  -3.482  1.00  0.00     0.117 C 
HETATM   14  O1  UNL     1      -5.836   4.611  -1.243  1.00  0.00    -0.274 OA
ATOM     15  H2  UNL     1      -3.539   6.644  -2.268  1.00  0.00     0.170 HD
ENDBRANCH   7  11
ENDBRANCH   4   7
ENDBRANCH   1   3
BRANCH   1  16
HETATM   16  C8  UNL     1      -0.764   3.700   2.866  1.00  0.00     0.268 C 
HETATM   17  O3  UNL     1       0.231   2.958   2.872  1.00  0.00    -0.266 OA
HETATM   18  N4  UNL     1      -1.816   3.570   3.799  1.00  0.00    -0.322 N 
ATOM     19  H4  UNL     1      -2.568   4.258   3.742  1.00  0.00     0.169 HD
BRANCH  18  20
HETATM   20  C9  UNL     1      -1.931   2.577   4.809  1.00  0.00     0.035 A 
HETATM   21  C10 UNL     1      -2.397   1.305   4.575  1.00  0.00     0.032 A 
HETATM   22  C11 UNL     1      -2.560   0.392   5.605  1.00  0.00     0.038 A 
HETATM   23  C12 UNL     1      -2.253   0.730   6.936  1.00  0.00     0.103 A 
HETATM   24  C13 UNL     1      -1.779   1.999   7.194  1.00  0.00     0.038 A 
HETATM   25  C14 UNL     1      -1.634   2.879   6.116  1.00  0.00     0.032 A 
BRANCH  23  26
HETATM   26  N5  UNL     1      -2.433  -0.230   7.944  1.00  0.00    -0.116 N 
HETATM   27  O4  UNL     1      -1.699  -1.220   8.055  1.00  0.00    -0.532 OA
HETATM   28  O5  UNL     1      -3.459  -0.097   8.870  1.00  0.00    -0.532 OA
ENDBRANCH  23  26
ENDBRANCH  18  20
ENDBRANCH   1  16
TORSDOF 7
ENDMDL
MODEL 5
REMARK VINA RESULT: -7.558820569      2.004      2.812
REMARK  7 active torsions:
REMARK  status: ('A' for Active; 'I' for Inactive)
REMARK    1  A    between atoms: N1_2  and  C2_4 
REMARK    2  A    between atoms: C2_4  and  N2_5 
REMARK    3  A    between atoms: C2_4  and  C5_10 
REMARK       I    between atoms: N2_5  and  C3_7 
REMARK       I    between atoms: C5_10  and  N3_12 
REMARK    4  A    between atoms: N3_12  and  C6_14 
REMARK    5  A    between atoms: C6_14  and  C8_16 
REMARK       I    between atoms: C8_16  and  N4_18 
REMARK    6  A    between atoms: N4_18  and  C9_20 
REMARK    7  A    between atoms: C12_23  and  N5_24 
ROOT
HETATM    1  C6  UNL     1      -0.455   2.629   4.284  1.00  0.00     0.076 C 
HETATM    2  C7  UNL     1       1.016   2.491   3.977  1.00  0.00     0.074 C 
ENDROOT
BRANCH   1   3
HETATM    3  N3  UNL     1      -1.067   1.558   4.938  1.00  0.00    -0.319 N 
HETATM    4  C5  UNL     1      -1.572   1.540   6.296  1.00  0.00     0.289 C 
HETATM    5  O2  UNL     1      -1.443   2.514   7.040  1.00  0.00    -0.264 OA
ATOM      6  H3  UNL     1      -1.171   0.697   4.402  1.00  0.00     0.169 HD
BRANCH   4   7
HETATM    7  C2  UNL     1      -2.281   0.331   6.793  1.00  0.00     0.172 C 
BRANCH   7   8
HETATM    8  N1  UNL     1      -2.252   0.117   8.189  1.00  0.00    -0.376 N 
HETATM    9  C1  UNL     1      -3.390   0.567   8.923  1.00  0.00     0.148 C 
ATOM     10  H1  UNL     1      -1.461  -0.334   8.647  1.00  0.00     0.160 HD
ENDBRANCH   7   8
BRANCH   7  11
HETATM   11  N2  UNL     1      -3.475  -0.037   6.200  1.00  0.00    -0.309 N 
HETATM   12  C3  UNL     1      -3.744  -1.454   5.989  1.00  0.00     0.219 C 
HETATM   13  C4  UNL     1      -5.032  -1.934   5.423  1.00  0.00     0.117 C 
HETATM   14  O1  UNL     1      -2.878  -2.279   6.286  1.00  0.00    -0.274 OA
ATOM     15  H2  UNL     1      -4.154   0.669   5.916  1.00  0.00     0.170 HD
ENDBRANCH   7  11
ENDBRANCH   4   7
ENDBRANCH   1   3
BRANCH   1  16
HETATM   16  C8  UNL     1      -1.176   3.269   3.160  1.00  0.00     0.268 C 
HETATM   17  O3  UNL     1      -2.105   2.642   2.628  1.00  0.00    -0.266 OA
HETATM   18  N4  UNL     1      -0.786   4.557   2.733  1.00  0.00    -0.322 N 
ATOM     19  H4  UNL     1      -0.042   5.011   3.263  1.00  0.00     0.169 HD
BRANCH  18  20
HETATM   20  C9  UNL     1      -1.325   5.284   1.637  1.00  0.00     0.035 A 
HETATM   21  C10 UNL     1      -2.664   5.302   1.323  1.00  0.00     0.032 A 
HETATM   22  C11 UNL     1      -3.135   5.966   0.201  1.00  0.00     0.038 A 
HETATM   23  C12 UNL     1      -2.263   6.654  -0.662  1.00  0.00     0.103 A 
HETATM   24  C13 UNL     1      -0.916   6.654  -0.363  1.00  0.00     0.038 A 
HETATM   25  C14 UNL     1      -0.497   5.967   0.781  1.00  0.00     0.032 A 
BRANCH  23  26
HETATM   26  N5  UNL     1      -2.789   7.314  -1.783  1.00  0.00    -0.116 N 
HETATM   27  O4  UNL     1      -2.512   8.490  -2.050  1.00  0.00    -0.532 OA
HETATM   28  O5  UNL     1      -3.652   6.657  -2.648  1.00  0.00    -0.532 OA
ENDBRANCH  23  26
ENDBRANCH  18  20
ENDBRANCH   1  16
TORSDOF 7
ENDMDL
