MODEL 1
REMARK VINA RESULT: -5.816495350      0.000      0.000
REMARK  12 active torsions:
REMARK  status: ('A' for Active; 'I' for Inactive)
REMARK    1  A    between atoms: C2_2  and  O1_4 
REMARK    2  A    between atoms: O1_4  and  C4_5 
REMARK    3  A    between atoms: C4_5  and  O2_6 
REMARK    4  A    between atoms: N1_8  and  C5_10 
REMARK    5  A    between atoms: C5_10  and  C6_11 
REMARK    6  A    between atoms: C6_11  and  C7_12 
REMARK    7  A    between atoms: C7_12  and  C8_13 
REMARK    8  A    between atoms: C8_13  and  O3_14 
REMARK    9  A    between atoms: C8_13  and  N2_16 
REMARK   10  A    between atoms: C9_18  and  C10_19 
REMARK   11  A    between atoms: C11_22  and  O6_23 
REMARK   12  A    between atoms: C11_22  and  N3_25 
ROOT
HETATM    1  C5  UNL     1      -0.988   5.512   1.716  1.00  0.00     0.064 C 
HETATM    2  C11 UNL     1      -0.527   6.859   1.856  1.00  0.00     0.161 C 
ENDROOT
BRANCH   1   3
HETATM    3  N1  UNL     1      -2.419   5.348   1.713  1.00  0.00    -0.316 N 
HETATM    4  C4  UNL     1      -3.284   5.693   0.723  1.00  0.00     0.263 C 
ATOM      5  H1  UNL     1      -2.829   4.924   2.545  1.00  0.00     0.170 HD
BRANCH   4   6
HETATM    6  O1  UNL     1      -4.606   5.582   0.680  1.00  0.00    -0.312 OA
BRANCH   6   7
HETATM    7  C2  UNL     1      -5.578   5.902  -0.247  1.00  0.00     0.124 C 
HETATM    8  C1  UNL     1      -6.917   6.028   0.446  1.00  0.00     0.040 C 
HETATM    9  C3  UNL     1      -5.737   4.799  -1.299  1.00  0.00     0.040 C 
ENDBRANCH   6   7
ENDBRANCH   4   6
BRANCH   4  10
HETATM   10  O2  UNL     1      -2.755   6.251  -0.377  1.00  0.00    -0.327 OA
ATOM     11  H2  UNL     1      -1.806   6.205  -0.409  1.00  0.00     0.221 HD
ENDBRANCH   4  10
ENDBRANCH   1   3
BRANCH   1  12
HETATM   12  C6  UNL     1      -0.176   4.394   2.207  1.00  0.00     0.066 C 
BRANCH  12  13
HETATM   13  C7  UNL     1      -0.931   3.261   2.787  1.00  0.00     0.059 C 
BRANCH  13  14
HETATM   14  C8  UNL     1      -0.468   2.843   4.141  1.00  0.00     0.217 C 
BRANCH  14  15
HETATM   15  O3  UNL     1       0.810   2.258   4.000  1.00  0.00    -0.377 OA
ATOM     16  H3  UNL     1       1.390   2.671   4.628  1.00  0.00     0.212 HD
ENDBRANCH  14  15
BRANCH  14  17
HETATM   17  N2  UNL     1      -1.314   1.912   4.854  1.00  0.00    -0.367 N 
HETATM   18  C9  UNL     1      -1.495   2.121   6.135  1.00  0.00     0.170 C 
ATOM     19  H2  UNL     1      -1.754   1.123   4.379  1.00  0.00     0.161 HD
BRANCH  18  20
HETATM   20  C10 UNL     1      -2.310   1.276   6.963  1.00  0.00     0.214 C 
HETATM   21  O4  UNL     1      -1.783   0.392   7.746  1.00  0.00    -0.644 OA
HETATM   22  O5  UNL     1      -3.690   1.286   7.022  1.00  0.00    -0.644 OA
ENDBRANCH  18  20
ENDBRANCH  14  17
ENDBRANCH  13  14
ENDBRANCH  12  13
ENDBRANCH   1  12
BRANCH   2  23
HETATM   23  O6  UNL     1      -0.067   7.385   0.697  1.00  0.00    -0.345 OA
ATOM     24  H6  UNL     1       0.841   7.166   0.523  1.00  0.00     0.219 HD
ENDBRANCH   2  23
BRANCH   2  25
HETATM   25  N3  UNL     1      -0.463   7.759   2.893  1.00  0.00    -0.360 N 
HETATM   26  C12 UNL     1      -1.475   8.637   3.523  1.00  0.00     0.125 C 
HETATM   27  C13 UNL     1      -0.807   9.971   3.152  1.00  0.00     0.021 C 
HETATM   28  C14 UNL     1       0.636   9.711   3.531  1.00  0.00     0.021 C 
HETATM   29  C15 UNL     1       0.738   8.174   3.629  1.00  0.00     0.125 C 
ENDBRANCH   2  25
TORSDOF 12
ENDMDL
MODEL 2
REMARK VINA RESULT: -5.783413007      0.821      1.110
REMARK  12 active torsions:
REMARK  status: ('A' for Active; 'I' for Inactive)
REMARK    1  A    between atoms: C2_2  and  O1_4 
REMARK    2  A    between atoms: O1_4  and  C4_5 
REMARK    3  A    between atoms: C4_5  and  O2_6 
REMARK    4  A    between atoms: N1_8  and  C5_10 
REMARK    5  A    between atoms: C5_10  and  C6_11 
REMARK    6  A    between atoms: C6_11  and  C7_12 
REMARK    7  A    between atoms: C7_12  and  C8_13 
REMARK    8  A    between atoms: C8_13  and  O3_14 
REMARK    9  A    between atoms: C8_13  and  N2_16 
REMARK   10  A    between atoms: C9_18  and  C10_19 
REMARK   11  A    between atoms: C11_22  and  O6_23 
REMARK   12  A    between atoms: C11_22  and  N3_25 
ROOT
HETATM    1  C5  UNL     1      -1.211   5.386   1.418  1.00  0.00     0.064 C 
HETATM    2  C11 UNL     1      -0.628   6.670   1.178  1.00  0.00     0.161 C 
ENDROOT
BRANCH   1   3
HETATM    3  N1  UNL     1      -2.641   5.382   1.594  1.00  0.00    -0.316 N 
HETATM    4  C4  UNL     1      -3.581   5.782   0.697  1.00  0.00     0.263 C 
ATOM      5  H1  UNL     1      -2.986   5.041   2.491  1.00  0.00     0.170 HD
BRANCH   4   6
HETATM    6  O1  UNL     1      -4.902   5.818   0.819  1.00  0.00    -0.312 OA
BRANCH   6   7
HETATM    7  C2  UNL     1      -5.959   5.851  -0.069  1.00  0.00     0.124 C 
HETATM    8  C1  UNL     1      -7.260   5.693   0.685  1.00  0.00     0.040 C 
HETATM    9  C3  UNL     1      -5.892   4.689  -1.066  1.00  0.00     0.040 C 
ENDBRANCH   6   7
ENDBRANCH   4   6
BRANCH   4  10
HETATM   10  O2  UNL     1      -3.137   6.234  -0.486  1.00  0.00    -0.327 OA
ATOM     11  H2  UNL     1      -2.422   5.721  -0.845  1.00  0.00     0.221 HD
ENDBRANCH   4  10
ENDBRANCH   1   3
BRANCH   1  12
HETATM   12  C6  UNL     1      -0.441   4.332   2.085  1.00  0.00     0.066 C 
BRANCH  12  13
HETATM   13  C7  UNL     1      -1.233   3.363   2.876  1.00  0.00     0.059 C 
BRANCH  13  14
HETATM   14  C8  UNL     1      -0.439   2.587   3.870  1.00  0.00     0.217 C 
BRANCH  14  15
HETATM   15  O3  UNL     1       0.004   1.403   3.239  1.00  0.00    -0.377 OA
ATOM     16  H3  UNL     1       0.202   0.769   3.918  1.00  0.00     0.212 HD
ENDBRANCH  14  15
BRANCH  14  17
HETATM   17  N2  UNL     1      -1.117   2.221   5.094  1.00  0.00    -0.367 N 
HETATM   18  C9  UNL     1      -1.929   1.193   5.050  1.00  0.00     0.170 C 
ATOM     19  H2  UNL     1      -0.969   2.742   5.959  1.00  0.00     0.161 HD
BRANCH  18  20
HETATM   20  C10 UNL     1      -2.664   0.721   6.191  1.00  0.00     0.214 C 
HETATM   21  O4  UNL     1      -2.371  -0.401   6.762  1.00  0.00    -0.644 OA
HETATM   22  O5  UNL     1      -3.730   1.364   6.790  1.00  0.00    -0.644 OA
ENDBRANCH  18  20
ENDBRANCH  14  17
ENDBRANCH  13  14
ENDBRANCH  12  13
ENDBRANCH   1  12
BRANCH   2  23
HETATM   23  O6  UNL     1      -0.269   6.857  -0.113  1.00  0.00    -0.345 OA
ATOM     24  H6  UNL     1       0.498   7.408  -0.211  1.00  0.00     0.219 HD
ENDBRANCH   2  23
BRANCH   2  25
HETATM   25  N3  UNL     1      -0.365   7.775   1.953  1.00  0.00    -0.360 N 
HETATM   26  C12 UNL     1       0.287   7.944   3.270  1.00  0.00     0.125 C 
HETATM   27  C13 UNL     1      -0.943   8.496   4.008  1.00  0.00     0.021 C 
HETATM   28  C14 UNL     1      -1.452   9.532   3.028  1.00  0.00     0.021 C 
HETATM   29  C15 UNL     1      -0.783   9.158   1.688  1.00  0.00     0.125 C 
ENDBRANCH   2  25
TORSDOF 12
ENDMDL
MODEL 3
REMARK VINA RESULT: -5.656017377      2.909      6.828
REMARK  12 active torsions:
REMARK  status: ('A' for Active; 'I' for Inactive)
REMARK    1  A    between atoms: C2_2  and  O1_4 
REMARK    2  A    between atoms: O1_4  and  C4_5 
REMARK    3  A    between atoms: C4_5  and  O2_6 
REMARK    4  A    between atoms: N1_8  and  C5_10 
REMARK    5  A    between atoms: C5_10  and  C6_11 
REMARK    6  A    between atoms: C6_11  and  C7_12 
REMARK    7  A    between atoms: C7_12  and  C8_13 
REMARK    8  A    between atoms: C8_13  and  O3_14 
REMARK    9  A    between atoms: C8_13  and  N2_16 
REMARK   10  A    between atoms: C9_18  and  C10_19 
REMARK   11  A    between atoms: C11_22  and  O6_23 
REMARK   12  A    between atoms: C11_22  and  N3_25 
ROOT
HETATM    1  C5  UNL     1      -1.425   5.776   1.808  1.00  0.00     0.064 C 
HETATM    2  C11 UNL     1      -0.575   4.700   2.212  1.00  0.00     0.161 C 
ENDROOT
BRANCH   1   3
HETATM    3  N1  UNL     1      -1.371   6.950   2.640  1.00  0.00    -0.316 N 
HETATM    4  C4  UNL     1      -0.712   8.111   2.384  1.00  0.00     0.263 C 
ATOM      5  H1  UNL     1      -1.886   6.906   3.521  1.00  0.00     0.170 HD
BRANCH   4   6
HETATM    6  O1  UNL     1      -0.615   9.208   3.125  1.00  0.00    -0.312 OA
BRANCH   6   7
HETATM    7  C2  UNL     1       0.007   9.524   4.316  1.00  0.00     0.124 C 
HETATM    8  C1  UNL     1       1.304   8.755   4.431  1.00  0.00     0.040 C 
HETATM    9  C3  UNL     1      -0.848   9.115   5.521  1.00  0.00     0.040 C 
ENDBRANCH   6   7
ENDBRANCH   4   6
BRANCH   4  10
HETATM   10  O2  UNL     1      -0.032   8.179   1.229  1.00  0.00    -0.327 OA
ATOM     11  H2  UNL     1       0.427   7.376   1.009  1.00  0.00     0.221 HD
ENDBRANCH   4  10
ENDBRANCH   1   3
BRANCH   1  12
HETATM   12  C6  UNL     1      -2.676   5.507   1.092  1.00  0.00     0.066 C 
BRANCH  12  13
HETATM   13  C7  UNL     1      -2.821   6.178  -0.220  1.00  0.00     0.059 C 
BRANCH  13  14
HETATM   14  C8  UNL     1      -3.697   7.383  -0.200  1.00  0.00     0.217 C 
BRANCH  14  15
HETATM   15  O3  UNL     1      -2.891   8.499   0.114  1.00  0.00    -0.377 OA
ATOM     16  H3  UNL     1      -2.174   8.526  -0.508  1.00  0.00     0.212 HD
ENDBRANCH  14  15
BRANCH  14  17
HETATM   17  N2  UNL     1      -4.812   7.356   0.721  1.00  0.00    -0.367 N 
HETATM   18  C9  UNL     1      -5.962   6.927   0.263  1.00  0.00     0.170 C 
ATOM     19  H2  UNL     1      -4.707   7.659   1.690  1.00  0.00     0.161 HD
BRANCH  18  20
HETATM   20  C10 UNL     1      -7.150   6.848   1.069  1.00  0.00     0.214 C 
HETATM   21  O4  UNL     1      -7.494   7.816   1.853  1.00  0.00    -0.644 OA
HETATM   22  O5  UNL     1      -8.027   5.782   1.118  1.00  0.00    -0.644 OA
ENDBRANCH  18  20
ENDBRANCH  14  17
ENDBRANCH  13  14
ENDBRANCH  12  13
ENDBRANCH   1  12
BRANCH   2  23
HETATM   23  O6  UNL     1       0.524   4.571   1.433  1.00  0.00    -0.345 OA
ATOM     24  H6  UNL     1       1.330   4.503   1.932  1.00  0.00     0.219 HD
ENDBRANCH   2  23
BRANCH   2  25
HETATM   25  N3  UNL     1      -0.600   3.773   3.227  1.00  0.00    -0.360 N 
HETATM   26  C12 UNL     1       0.429   2.866   3.784  1.00  0.00     0.125 C 
HETATM   27  C13 UNL     1      -0.275   1.551   3.411  1.00  0.00     0.021 C 
HETATM   28  C14 UNL     1      -1.693   1.818   3.867  1.00  0.00     0.021 C 
HETATM   29  C15 UNL     1      -1.770   3.353   4.010  1.00  0.00     0.125 C 
ENDBRANCH   2  25
TORSDOF 12
ENDMDL
MODEL 4
REMARK VINA RESULT: -5.634184126      0.762      1.166
REMARK  12 active torsions:
REMARK  status: ('A' for Active; 'I' for Inactive)
REMARK    1  A    between atoms: C2_2  and  O1_4 
REMARK    2  A    between atoms: O1_4  and  C4_5 
REMARK    3  A    between atoms: C4_5  and  O2_6 
REMARK    4  A    between atoms: N1_8  and  C5_10 
REMARK    5  A    between atoms: C5_10  and  C6_11 
REMARK    6  A    between atoms: C6_11  and  C7_12 
REMARK    7  A    between atoms: C7_12  and  C8_13 
REMARK    8  A    between atoms: C8_13  and  O3_14 
REMARK    9  A    between atoms: C8_13  and  N2_16 
REMARK   10  A    between atoms: C9_18  and  C10_19 
REMARK   11  A    between atoms: C11_22  and  O6_23 
REMARK   12  A    between atoms: C11_22  and  N3_25 
ROOT
HETATM    1  C5  UNL     1      -1.058   5.992   1.790  1.00  0.00     0.064 C 
HETATM    2  C11 UNL     1      -0.658   7.363   1.727  1.00  0.00     0.161 C 
ENDROOT
BRANCH   1   3
HETATM    3  N1  UNL     1      -2.480   5.766   1.834  1.00  0.00    -0.316 N 
HETATM    4  C4  UNL     1      -3.366   5.897   0.812  1.00  0.00     0.263 C 
ATOM      5  H1  UNL     1      -2.865   5.475   2.733  1.00  0.00     0.170 HD
BRANCH   4   6
HETATM    6  O1  UNL     1      -4.682   5.722   0.807  1.00  0.00    -0.312 OA
BRANCH   6   7
HETATM    7  C2  UNL     1      -5.682   5.904  -0.127  1.00  0.00     0.124 C 
HETATM    8  C1  UNL     1      -7.028   5.898   0.565  1.00  0.00     0.040 C 
HETATM    9  C3  UNL     1      -5.714   4.760  -1.146  1.00  0.00     0.040 C 
ENDBRANCH   6   7
ENDBRANCH   4   6
BRANCH   4  10
HETATM   10  O2  UNL     1      -2.870   6.280  -0.375  1.00  0.00    -0.327 OA
ATOM     11  H2  UNL     1      -1.941   6.104  -0.474  1.00  0.00     0.221 HD
ENDBRANCH   4  10
ENDBRANCH   1   3
BRANCH   1  12
HETATM   12  C6  UNL     1      -0.191   4.992   2.421  1.00  0.00     0.066 C 
BRANCH  12  13
HETATM   13  C7  UNL     1      -0.760   3.630   2.533  1.00  0.00     0.059 C 
BRANCH  13  14
HETATM   14  C8  UNL     1      -0.678   3.041   3.899  1.00  0.00     0.217 C 
BRANCH  14  15
HETATM   15  O3  UNL     1       0.540   2.332   3.993  1.00  0.00    -0.377 OA
ATOM     16  H3  UNL     1       0.785   2.294   4.910  1.00  0.00     0.212 HD
ENDBRANCH  14  15
BRANCH  14  17
HETATM   17  N2  UNL     1      -1.750   2.149   4.283  1.00  0.00    -0.367 N 
HETATM   18  C9  UNL     1      -1.918   1.923   5.563  1.00  0.00     0.170 C 
ATOM     19  H2  UNL     1      -2.353   1.713   3.585  1.00  0.00     0.161 HD
BRANCH  18  20
HETATM   20  C10 UNL     1      -2.943   1.061   6.082  1.00  0.00     0.214 C 
HETATM   21  O4  UNL     1      -3.183  -0.093   5.550  1.00  0.00    -0.644 OA
HETATM   22  O5  UNL     1      -3.771   1.338   7.153  1.00  0.00    -0.644 OA
ENDBRANCH  18  20
ENDBRANCH  14  17
ENDBRANCH  13  14
ENDBRANCH  12  13
ENDBRANCH   1  12
BRANCH   2  23
HETATM   23  O6  UNL     1      -0.234   7.737   0.497  1.00  0.00    -0.345 OA
ATOM     24  H6  UNL     1      -0.853   7.523  -0.191  1.00  0.00     0.219 HD
ENDBRANCH   2  23
BRANCH   2  25
HETATM   25  N3  UNL     1      -0.624   8.405   2.624  1.00  0.00    -0.360 N 
HETATM   26  C12 UNL     1       0.455   9.321   3.056  1.00  0.00     0.125 C 
HETATM   27  C13 UNL     1       0.486   8.877   4.528  1.00  0.00     0.021 C 
HETATM   28  C14 UNL     1      -0.987   8.866   4.879  1.00  0.00     0.021 C 
HETATM   29  C15 UNL     1      -1.708   8.839   3.515  1.00  0.00     0.125 C 
ENDBRANCH   2  25
TORSDOF 12
ENDMDL
MODEL 5
REMARK VINA RESULT: -5.619656088      2.662      6.258
REMARK  12 active torsions:
REMARK  status: ('A' for Active; 'I' for Inactive)
REMARK    1  A    between atoms: C2_2  and  O1_4 
REMARK    2  A    between atoms: O1_4  and  C4_5 
REMARK    3  A    between atoms: C4_5  and  O2_6 
REMARK    4  A    between atoms: N1_8  and  C5_10 
REMARK    5  A    between atoms: C5_10  and  C6_11 
REMARK    6  A    between atoms: C6_11  and  C7_12 
REMARK    7  A    between atoms: C7_12  and  C8_13 
REMARK    8  A    between atoms: C8_13  and  O3_14 
REMARK    9  A    between atoms: C8_13  and  N2_16 
REMARK   10  A    between atoms: C9_18  and  C10_19 
REMARK   11  A    between atoms: C11_22  and  O6_23 
REMARK   12  A    between atoms: C11_22  and  N3_25 
ROOT
HETATM    1  C5  UNL     1      -2.320   6.537   0.907  1.00  0.00     0.064 C 
HETATM    2  C11 UNL     1      -2.847   6.512  -0.422  1.00  0.00     0.161 C 
ENDROOT
BRANCH   1   3
HETATM    3  N1  UNL     1      -2.368   5.282   1.612  1.00  0.00    -0.316 N 
HETATM    4  C4  UNL     1      -1.321   4.474   1.926  1.00  0.00     0.263 C 
ATOM      5  H1  UNL     1      -3.290   4.964   1.911  1.00  0.00     0.170 HD
BRANCH   4   6
HETATM    6  O1  UNL     1      -1.315   3.304   2.553  1.00  0.00    -0.312 OA
BRANCH   6   7
HETATM    7  C2  UNL     1      -1.045   2.895   3.843  1.00  0.00     0.124 C 
HETATM    8  C1  UNL     1       0.373   2.376   3.925  1.00  0.00     0.040 C 
HETATM    9  C3  UNL     1      -1.955   1.737   4.267  1.00  0.00     0.040 C 
ENDBRANCH   6   7
ENDBRANCH   4   6
BRANCH   4  10
HETATM   10  O2  UNL     1      -0.103   4.883   1.538  1.00  0.00    -0.327 OA
ATOM     11  H2  UNL     1       0.430   5.220   2.249  1.00  0.00     0.221 HD
ENDBRANCH   4  10
ENDBRANCH   1   3
BRANCH   1  12
HETATM   12  C6  UNL     1      -2.369   7.767   1.703  1.00  0.00     0.066 C 
BRANCH  12  13
HETATM   13  C7  UNL     1      -1.141   8.593   1.681  1.00  0.00     0.059 C 
BRANCH  13  14
HETATM   14  C8  UNL     1      -0.350   8.551   2.943  1.00  0.00     0.217 C 
BRANCH  14  15
HETATM   15  O3  UNL     1       0.535   7.453   2.863  1.00  0.00    -0.377 OA
ATOM     16  H3  UNL     1       0.912   7.445   1.992  1.00  0.00     0.212 HD
ENDBRANCH  14  15
BRANCH  14  17
HETATM   17  N2  UNL     1      -1.102   8.437   4.174  1.00  0.00    -0.367 N 
HETATM   18  C9  UNL     1      -0.657   9.097   5.215  1.00  0.00     0.170 C 
ATOM     19  H2  UNL     1      -1.945   7.866   4.229  1.00  0.00     0.161 HD
BRANCH  18  20
HETATM   20  C10 UNL     1      -1.306   9.074   6.497  1.00  0.00     0.214 C 
HETATM   21  O4  UNL     1      -2.507   9.526   6.650  1.00  0.00    -0.644 OA
HETATM   22  O5  UNL     1      -0.760   8.600   7.674  1.00  0.00    -0.644 OA
ENDBRANCH  18  20
ENDBRANCH  14  17
ENDBRANCH  13  14
ENDBRANCH  12  13
ENDBRANCH   1  12
BRANCH   2  23
HETATM   23  O6  UNL     1      -1.886   6.530  -1.375  1.00  0.00    -0.345 OA
ATOM     24  H6  UNL     1      -1.421   7.358  -1.420  1.00  0.00     0.219 HD
ENDBRANCH   2  23
BRANCH   2  25
HETATM   25  N3  UNL     1      -4.110   6.450  -0.964  1.00  0.00    -0.360 N 
HETATM   26  C12 UNL     1      -5.458   6.642  -0.386  1.00  0.00     0.125 C 
HETATM   27  C13 UNL     1      -5.962   5.211  -0.633  1.00  0.00     0.021 C 
HETATM   28  C14 UNL     1      -5.536   4.976  -2.067  1.00  0.00     0.021 C 
HETATM   29  C15 UNL     1      -4.465   6.054  -2.333  1.00  0.00     0.125 C 
ENDBRANCH   2  25
TORSDOF 12
ENDMDL
