MODEL 1
REMARK VINA RESULT: -6.642797581      0.000      0.000
REMARK  8 active torsions:
REMARK  status: ('A' for Active; 'I' for Inactive)
REMARK    1  A    between atoms: C1_2  and  C2_4 
REMARK    2  A    between atoms: C2_4  and  N1_5 
REMARK       I    between atoms: N1_5  and  C3_7 
REMARK    3  A    between atoms: C3_7  and  C4_9 
REMARK    4  A    between atoms: C4_9  and  O4_10 
REMARK    5  A    between atoms: C4_9  and  C5_12 
REMARK    6  A    between atoms: C5_12  and  N2_13 
REMARK    7  A    between atoms: C5_12  and  C11_22 
REMARK       I    between atoms: N2_13  and  C6_15 
REMARK    8  A    between atoms: C6_15  and  C7_17 
ROOT
HETATM    1  C5  UNL     1      -1.228   5.553   2.297  1.00  0.00     0.156 C 
ENDROOT
BRANCH   1   2
HETATM    2  C4  UNL     1      -0.058   6.453   2.054  1.00  0.00     0.237 C 
BRANCH   2   3
HETATM    3  C3  UNL     1      -0.186   7.730   2.795  1.00  0.00     0.249 C 
HETATM    4  N1  UNL     1      -1.391   8.131   3.431  1.00  0.00    -0.349 N 
ATOM      5  H1  UNL     1      -2.205   7.518   3.377  1.00  0.00     0.163 HD
HETATM    6  O3  UNL     1       0.803   8.473   2.857  1.00  0.00    -0.271 OA
BRANCH   4   7
HETATM    7  C2  UNL     1      -1.497   9.365   4.144  1.00  0.00     0.235 C 
BRANCH   7   8
HETATM    8  C1  UNL     1      -1.302   9.229   5.602  1.00  0.00     0.191 C 
HETATM    9  O1  UNL     1      -2.223   9.191   6.455  1.00  0.00    -0.647 OA
HETATM   10  O2  UNL     1       0.008   9.136   6.056  1.00  0.00    -0.647 OA
ENDBRANCH   7   8
ENDBRANCH   4   7
ENDBRANCH   2   3
BRANCH   2  11
HETATM   11  O4  UNL     1      -0.083   6.795   0.678  1.00  0.00    -0.384 OA
ATOM     12  H4  UNL     1      -0.975   6.647   0.387  1.00  0.00     0.210 HD
ENDBRANCH   2  11
ENDBRANCH   1   2
BRANCH   1  13
HETATM   13  N2  UNL     1      -2.026   5.382   1.078  1.00  0.00    -0.344 N 
HETATM   14  C6  UNL     1      -3.256   6.029   0.881  1.00  0.00     0.276 C 
HETATM   15  O5  UNL     1      -3.693   6.783   1.775  1.00  0.00    -0.265 OA
ATOM     16  H2  UNL     1      -1.672   4.768   0.345  1.00  0.00     0.163 HD
BRANCH  14  17
HETATM   17  C7  UNL     1      -4.025   5.838  -0.341  1.00  0.00     0.142 A 
HETATM   18  C8  UNL     1      -5.284   5.244  -0.408  1.00  0.00     0.045 A 
HETATM   19  C9  UNL     1      -5.673   5.249  -1.715  1.00  0.00     0.027 A 
HETATM   20  C10 UNL     1      -4.646   5.844  -2.413  1.00  0.00     0.143 A 
HETATM   21  O6  UNL     1      -3.721   6.163  -1.564  1.00  0.00    -0.317 OA
ENDBRANCH  14  17
ENDBRANCH   1  13
BRANCH   1  22
HETATM   22  C11 UNL     1      -0.937   4.220   2.798  1.00  0.00    -0.033 A 
HETATM   23  C12 UNL     1       0.351   3.763   3.041  1.00  0.00     0.009 A 
HETATM   24  C13 UNL     1       0.529   2.484   3.504  1.00  0.00     0.001 A 
HETATM   25  C14 UNL     1      -0.547   1.637   3.733  1.00  0.00     0.000 A 
HETATM   26  C15 UNL     1      -1.841   2.069   3.498  1.00  0.00     0.001 A 
HETATM   27  C16 UNL     1      -1.990   3.356   3.034  1.00  0.00     0.009 A 
ENDBRANCH   1  22
TORSDOF 8
ENDMDL
MODEL 2
REMARK VINA RESULT: -6.635775877      0.728      1.352
REMARK  8 active torsions:
REMARK  status: ('A' for Active; 'I' for Inactive)
REMARK    1  A    between atoms: C1_2  and  C2_4 
REMARK    2  A    between atoms: C2_4  and  N1_5 
REMARK       I    between atoms: N1_5  and  C3_7 
REMARK    3  A    between atoms: C3_7  and  C4_9 
REMARK    4  A    between atoms: C4_9  and  O4_10 
REMARK    5  A    between atoms: C4_9  and  C5_12 
REMARK    6  A    between atoms: C5_12  and  N2_13 
REMARK    7  A    between atoms: C5_12  and  C11_22 
REMARK       I    between atoms: N2_13  and  C6_15 
REMARK    8  A    between atoms: C6_15  and  C7_17 
ROOT
HETATM    1  C5  UNL     1      -1.245   5.492   2.271  1.00  0.00     0.156 C 
ENDROOT
BRANCH   1   2
HETATM    2  C4  UNL     1      -0.030   6.328   2.028  1.00  0.00     0.237 C 
BRANCH   2   3
HETATM    3  C3  UNL     1      -0.086   7.608   2.774  1.00  0.00     0.249 C 
HETATM    4  N1  UNL     1      -1.303   8.294   3.028  1.00  0.00    -0.349 N 
ATOM      5  H1  UNL     1      -2.177   7.895   2.684  1.00  0.00     0.163 HD
HETATM    6  O3  UNL     1       0.976   8.091   3.189  1.00  0.00    -0.271 OA
BRANCH   4   7
HETATM    7  C2  UNL     1      -1.340   9.527   3.751  1.00  0.00     0.235 C 
BRANCH   7   8
HETATM    8  C1  UNL     1      -2.622   9.770   4.445  1.00  0.00     0.191 C 
HETATM    9  O1  UNL     1      -3.706  10.059   3.882  1.00  0.00    -0.647 OA
HETATM   10  O2  UNL     1      -2.617   9.670   5.830  1.00  0.00    -0.647 OA
ENDBRANCH   7   8
ENDBRANCH   4   7
ENDBRANCH   2   3
BRANCH   2  11
HETATM   11  O4  UNL     1      -0.039   6.675   0.654  1.00  0.00    -0.384 OA
ATOM     12  H4  UNL     1       0.783   6.360   0.297  1.00  0.00     0.210 HD
ENDBRANCH   2  11
ENDBRANCH   1   2
BRANCH   1  13
HETATM   13  N2  UNL     1      -2.043   5.350   1.049  1.00  0.00    -0.344 N 
HETATM   14  C6  UNL     1      -3.259   6.024   0.854  1.00  0.00     0.276 C 
HETATM   15  O5  UNL     1      -3.683   6.778   1.755  1.00  0.00    -0.265 OA
ATOM     16  H2  UNL     1      -1.700   4.736   0.310  1.00  0.00     0.163 HD
BRANCH  14  17
HETATM   17  C7  UNL     1      -4.027   5.861  -0.372  1.00  0.00     0.142 A 
HETATM   18  C8  UNL     1      -5.280   5.254  -0.456  1.00  0.00     0.045 A 
HETATM   19  C9  UNL     1      -5.670   5.294  -1.761  1.00  0.00     0.027 A 
HETATM   20  C10 UNL     1      -4.652   5.923  -2.443  1.00  0.00     0.143 A 
HETATM   21  O6  UNL     1      -3.729   6.227  -1.585  1.00  0.00    -0.317 OA
ENDBRANCH  14  17
ENDBRANCH   1  13
BRANCH   1  22
HETATM   22  C11 UNL     1      -1.027   4.150   2.788  1.00  0.00    -0.033 A 
HETATM   23  C12 UNL     1      -2.057   3.254   3.035  1.00  0.00     0.009 A 
HETATM   24  C13 UNL     1      -1.755   2.012   3.534  1.00  0.00     0.001 A 
HETATM   25  C14 UNL     1      -0.446   1.633   3.797  1.00  0.00     0.000 A 
HETATM   26  C15 UNL     1       0.599   2.509   3.560  1.00  0.00     0.001 A 
HETATM   27  C16 UNL     1       0.267   3.748   3.060  1.00  0.00     0.009 A 
ENDBRANCH   1  22
TORSDOF 8
ENDMDL
MODEL 3
REMARK VINA RESULT: -6.607283089      1.097      1.664
REMARK  8 active torsions:
REMARK  status: ('A' for Active; 'I' for Inactive)
REMARK    1  A    between atoms: C1_2  and  C2_4 
REMARK    2  A    between atoms: C2_4  and  N1_5 
REMARK       I    between atoms: N1_5  and  C3_7 
REMARK    3  A    between atoms: C3_7  and  C4_9 
REMARK    4  A    between atoms: C4_9  and  O4_10 
REMARK    5  A    between atoms: C4_9  and  C5_12 
REMARK    6  A    between atoms: C5_12  and  N2_13 
REMARK    7  A    between atoms: C5_12  and  C11_22 
REMARK       I    between atoms: N2_13  and  C6_15 
REMARK    8  A    between atoms: C6_15  and  C7_17 
ROOT
HETATM    1  C5  UNL     1      -1.269   5.582   2.232  1.00  0.00     0.156 C 
ENDROOT
BRANCH   1   2
HETATM    2  C4  UNL     1      -0.057   6.436   2.035  1.00  0.00     0.237 C 
BRANCH   2   3
HETATM    3  C3  UNL     1      -0.080   7.630   2.913  1.00  0.00     0.249 C 
HETATM    4  N1  UNL     1       1.103   8.245   3.401  1.00  0.00    -0.349 N 
ATOM      5  H1  UNL     1       2.008   7.852   3.141  1.00  0.00     0.163 HD
HETATM    6  O3  UNL     1      -1.179   8.104   3.228  1.00  0.00    -0.271 OA
BRANCH   4   7
HETATM    7  C2  UNL     1       1.064   9.398   4.245  1.00  0.00     0.235 C 
BRANCH   7   8
HETATM    8  C1  UNL     1       1.178   9.086   5.685  1.00  0.00     0.191 C 
HETATM    9  O1  UNL     1       2.200   8.618   6.244  1.00  0.00    -0.647 OA
HETATM   10  O2  UNL     1       0.061   9.332   6.473  1.00  0.00    -0.647 OA
ENDBRANCH   7   8
ENDBRANCH   4   7
ENDBRANCH   2   3
BRANCH   2  11
HETATM   11  O4  UNL     1      -0.111   6.925   0.706  1.00  0.00    -0.384 OA
ATOM     12  H4  UNL     1      -0.549   7.767   0.754  1.00  0.00     0.210 HD
ENDBRANCH   2  11
ENDBRANCH   1   2
BRANCH   1  13
HETATM   13  N2  UNL     1      -2.032   5.452   0.986  1.00  0.00    -0.344 N 
HETATM   14  C6  UNL     1      -3.321   5.983   0.827  1.00  0.00     0.276 C 
HETATM   15  O5  UNL     1      -3.845   6.594   1.783  1.00  0.00    -0.265 OA
ATOM     16  H2  UNL     1      -1.608   4.955   0.203  1.00  0.00     0.163 HD
BRANCH  14  17
HETATM   17  C7  UNL     1      -4.053   5.837  -0.423  1.00  0.00     0.142 A 
HETATM   18  C8  UNL     1      -5.297   5.220  -0.554  1.00  0.00     0.045 A 
HETATM   19  C9  UNL     1      -5.650   5.282  -1.869  1.00  0.00     0.027 A 
HETATM   20  C10 UNL     1      -4.619   5.933  -2.509  1.00  0.00     0.143 A 
HETATM   21  O6  UNL     1      -3.724   6.229  -1.620  1.00  0.00    -0.317 OA
ENDBRANCH  14  17
ENDBRANCH   1  13
BRANCH   1  22
HETATM   22  C11 UNL     1      -1.049   4.234   2.732  1.00  0.00    -0.033 A 
HETATM   23  C12 UNL     1      -2.081   3.351   3.017  1.00  0.00     0.009 A 
HETATM   24  C13 UNL     1      -1.777   2.102   3.496  1.00  0.00     0.001 A 
HETATM   25  C14 UNL     1      -0.463   1.702   3.702  1.00  0.00     0.000 A 
HETATM   26  C15 UNL     1       0.583   2.565   3.426  1.00  0.00     0.001 A 
HETATM   27  C16 UNL     1       0.249   3.811   2.946  1.00  0.00     0.009 A 
ENDBRANCH   1  22
TORSDOF 8
ENDMDL
MODEL 4
REMARK VINA RESULT: -6.503890455      1.430      2.047
REMARK  8 active torsions:
REMARK  status: ('A' for Active; 'I' for Inactive)
REMARK    1  A    between atoms: C1_2  and  C2_4 
REMARK    2  A    between atoms: C2_4  and  N1_5 
REMARK       I    between atoms: N1_5  and  C3_7 
REMARK    3  A    between atoms: C3_7  and  C4_9 
REMARK    4  A    between atoms: C4_9  and  O4_10 
REMARK    5  A    between atoms: C4_9  and  C5_12 
REMARK    6  A    between atoms: C5_12  and  N2_13 
REMARK    7  A    between atoms: C5_12  and  C11_22 
REMARK       I    between atoms: N2_13  and  C6_15 
REMARK    8  A    between atoms: C6_15  and  C7_17 
ROOT
HETATM    1  C5  UNL     1      -1.265   5.585   2.199  1.00  0.00     0.156 C 
ENDROOT
BRANCH   1   2
HETATM    2  C4  UNL     1      -0.051   6.432   1.992  1.00  0.00     0.237 C 
BRANCH   2   3
HETATM    3  C3  UNL     1      -0.012   7.575   2.935  1.00  0.00     0.249 C 
HETATM    4  N1  UNL     1       1.200   8.101   3.453  1.00  0.00    -0.349 N 
ATOM      5  H1  UNL     1       2.084   7.678   3.169  1.00  0.00     0.163 HD
HETATM    6  O3  UNL     1      -1.086   8.087   3.279  1.00  0.00    -0.271 OA
BRANCH   4   7
HETATM    7  C2  UNL     1       1.220   9.206   4.360  1.00  0.00     0.235 C 
BRANCH   7   8
HETATM    8  C1  UNL     1       1.825  10.430   3.793  1.00  0.00     0.191 C 
HETATM    9  O1  UNL     1       1.488  11.604   4.083  1.00  0.00    -0.647 OA
HETATM   10  O2  UNL     1       2.847  10.257   2.868  1.00  0.00    -0.647 OA
ENDBRANCH   7   8
ENDBRANCH   4   7
ENDBRANCH   2   3
BRANCH   2  11
HETATM   11  O4  UNL     1      -0.160   6.996   0.697  1.00  0.00    -0.384 OA
ATOM     12  H4  UNL     1      -0.826   6.490   0.245  1.00  0.00     0.210 HD
ENDBRANCH   2  11
ENDBRANCH   1   2
BRANCH   1  13
HETATM   13  N2  UNL     1      -2.039   5.458   0.960  1.00  0.00    -0.344 N 
HETATM   14  C6  UNL     1      -3.343   5.959   0.824  1.00  0.00     0.276 C 
HETATM   15  O5  UNL     1      -3.872   6.539   1.796  1.00  0.00    -0.265 OA
ATOM     16  H2  UNL     1      -1.611   4.985   0.163  1.00  0.00     0.163 HD
BRANCH  14  17
HETATM   17  C7  UNL     1      -4.084   5.816  -0.420  1.00  0.00     0.142 A 
HETATM   18  C8  UNL     1      -5.354   5.250  -0.535  1.00  0.00     0.045 A 
HETATM   19  C9  UNL     1      -5.709   5.297  -1.849  1.00  0.00     0.027 A 
HETATM   20  C10 UNL     1      -4.653   5.889  -2.507  1.00  0.00     0.143 A 
HETATM   21  O6  UNL     1      -3.743   6.166  -1.627  1.00  0.00    -0.317 OA
ENDBRANCH  14  17
ENDBRANCH   1  13
BRANCH   1  22
HETATM   22  C11 UNL     1      -1.049   4.237   2.699  1.00  0.00    -0.033 A 
HETATM   23  C12 UNL     1      -2.079   3.334   2.921  1.00  0.00     0.009 A 
HETATM   24  C13 UNL     1      -1.779   2.086   3.405  1.00  0.00     0.001 A 
HETATM   25  C14 UNL     1      -0.472   1.707   3.679  1.00  0.00     0.000 A 
HETATM   26  C15 UNL     1       0.572   2.590   3.467  1.00  0.00     0.001 A 
HETATM   27  C16 UNL     1       0.243   3.834   2.980  1.00  0.00     0.009 A 
ENDBRANCH   1  22
TORSDOF 8
ENDMDL
MODEL 5
REMARK VINA RESULT: -6.088137196      1.460      2.192
REMARK  8 active torsions:
REMARK  status: ('A' for Active; 'I' for Inactive)
REMARK    1  A    between atoms: C1_2  and  C2_4 
REMARK    2  A    between atoms: C2_4  and  N1_5 
REMARK       I    between atoms: N1_5  and  C3_7 
REMARK    3  A    between atoms: C3_7  and  C4_9 
REMARK    4  A    between atoms: C4_9  and  O4_10 
REMARK    5  A    between atoms: C4_9  and  C5_12 
REMARK    6  A    between atoms: C5_12  and  N2_13 
REMARK    7  A    between atoms: C5_12  and  C11_22 
REMARK       I    between atoms: N2_13  and  C6_15 
REMARK    8  A    between atoms: C6_15  and  C7_17 
ROOT
HETATM    1  C5  UNL     1      -1.257   5.410   2.134  1.00  0.00     0.156 C 
ENDROOT
BRANCH   1   2
HETATM    2  C4  UNL     1      -0.034   6.174   1.741  1.00  0.00     0.237 C 
BRANCH   2   3
HETATM    3  C3  UNL     1      -0.036   7.543   2.310  1.00  0.00     0.249 C 
HETATM    4  N1  UNL     1      -0.835   8.591   1.784  1.00  0.00    -0.349 N 
ATOM      5  H1  UNL     1      -1.434   8.400   0.979  1.00  0.00     0.163 HD
HETATM    6  O3  UNL     1       0.693   7.772   3.285  1.00  0.00    -0.271 OA
BRANCH   4   7
HETATM    7  C2  UNL     1      -0.827   9.905   2.346  1.00  0.00     0.235 C 
BRANCH   7   8
HETATM    8  C1  UNL     1       0.245  10.773   1.815  1.00  0.00     0.191 C 
HETATM    9  O1  UNL     1       0.700  11.793   2.388  1.00  0.00    -0.647 OA
HETATM   10  O2  UNL     1       0.785  10.424   0.583  1.00  0.00    -0.647 OA
ENDBRANCH   7   8
ENDBRANCH   4   7
ENDBRANCH   2   3
BRANCH   2  11
HETATM   11  O4  UNL     1      -0.086   6.336   0.333  1.00  0.00    -0.384 OA
ATOM     12  H4  UNL     1      -0.780   6.962   0.166  1.00  0.00     0.210 HD
ENDBRANCH   2  11
ENDBRANCH   1   2
BRANCH   1  13
HETATM   13  N2  UNL     1      -2.154   5.221   0.988  1.00  0.00    -0.344 N 
HETATM   14  C6  UNL     1      -3.268   6.042   0.753  1.00  0.00     0.276 C 
HETATM   15  O5  UNL     1      -3.510   6.974   1.549  1.00  0.00    -0.265 OA
ATOM     16  H2  UNL     1      -1.959   4.462   0.335  1.00  0.00     0.163 HD
BRANCH  14  17
HETATM   17  C7  UNL     1      -4.139   5.828  -0.393  1.00  0.00     0.142 A 
HETATM   18  C8  UNL     1      -5.401   5.237  -0.340  1.00  0.00     0.045 A 
HETATM   19  C9  UNL     1      -5.899   5.216  -1.608  1.00  0.00     0.027 A 
HETATM   20  C10 UNL     1      -4.935   5.791  -2.405  1.00  0.00     0.143 A 
HETATM   21  O6  UNL     1      -3.940   6.125  -1.645  1.00  0.00    -0.317 OA
ENDBRANCH  14  17
ENDBRANCH   1  13
BRANCH   1  22
HETATM   22  C11 UNL     1      -1.050   4.098   2.725  1.00  0.00    -0.033 A 
HETATM   23  C12 UNL     1      -2.080   3.195   2.951  1.00  0.00     0.009 A 
HETATM   24  C13 UNL     1      -1.790   1.983   3.525  1.00  0.00     0.001 A 
HETATM   25  C14 UNL     1      -0.493   1.641   3.885  1.00  0.00     0.000 A 
HETATM   26  C15 UNL     1       0.550   2.524   3.670  1.00  0.00     0.001 A 
HETATM   27  C16 UNL     1       0.230   3.732   3.093  1.00  0.00     0.009 A 
ENDBRANCH   1  22
TORSDOF 8
ENDMDL
