MODEL 1
REMARK VINA RESULT: -6.842879615      0.000      0.000
REMARK  11 active torsions:
REMARK  status: ('A' for Active; 'I' for Inactive)
REMARK    1  A    between atoms: C2_3  and  C3_5 
REMARK    2  A    between atoms: C3_5  and  O2_6 
REMARK    3  A    between atoms: C3_5  and  C4_8 
REMARK    4  A    between atoms: C4_8  and  N2_9 
REMARK    5  A    between atoms: C4_8  and  C11_23 
REMARK       I    between atoms: N2_9  and  C5_11 
REMARK    6  A    between atoms: C5_11  and  C6_13 
REMARK    7  A    between atoms: C6_13  and  O4_14 
REMARK    8  A    between atoms: O4_14  and  C7_15 
REMARK    9  A    between atoms: C7_15  and  O5_16 
REMARK   10  A    between atoms: C7_15  and  N3_18 
REMARK   11  A    between atoms: N3_18  and  C8_20 
ROOT
HETATM    1  C1  UNL     1      -2.693   2.350   8.557  1.00  0.00     0.233 C 
HETATM    2  N1  UNL     1      -2.743   1.056   8.607  1.00  0.00    -0.393 NA
HETATM    3  C2  UNL     1      -2.797  -0.372   8.662  1.00  0.00     0.321 C 
HETATM    4  O1  UNL     1      -2.362  -1.004   9.648  1.00  0.00    -0.254 OA
ENDROOT
BRANCH   3   5
HETATM    5  C3  UNL     1      -3.393  -1.104   7.486  1.00  0.00     0.252 C 
BRANCH   5   6
HETATM    6  O2  UNL     1      -4.589  -0.419   7.184  1.00  0.00    -0.383 OA
ATOM      7  H2  UNL     1      -4.949  -0.862   6.425  1.00  0.00     0.210 HD
ENDBRANCH   5   6
BRANCH   5   8
HETATM    8  C4  UNL     1      -2.430  -1.186   6.360  1.00  0.00     0.157 C 
BRANCH   8   9
HETATM    9  N2  UNL     1      -2.540  -0.154   5.341  1.00  0.00    -0.348 N 
HETATM   10  C5  UNL     1      -1.719   0.991   5.240  1.00  0.00     0.242 C 
HETATM   11  O3  UNL     1      -0.742   1.214   6.046  1.00  0.00    -0.271 OA
ATOM     12  H2  UNL     1      -3.272  -0.267   4.640  1.00  0.00     0.163 HD
BRANCH  10  13
HETATM   13  C6  UNL     1      -1.957   2.007   4.202  1.00  0.00     0.282 C 
BRANCH  13  14
HETATM   14  O4  UNL     1      -0.975   1.906   3.154  1.00  0.00    -0.307 OA
BRANCH  14  15
HETATM   15  C7  UNL     1      -0.029   2.918   3.088  1.00  0.00     0.258 C 
BRANCH  15  16
HETATM   16  O5  UNL     1       0.878   2.820   4.027  1.00  0.00    -0.327 OA
ATOM     17  H5  UNL     1       0.996   3.633   4.505  1.00  0.00     0.221 HD
ENDBRANCH  15  16
BRANCH  15  18
HETATM   18  N3  UNL     1       0.048   3.973   2.191  1.00  0.00    -0.347 N 
ATOM     19  H3  UNL     1       0.713   3.969   1.417  1.00  0.00     0.164 HD
BRANCH  18  20
HETATM   20  C8  UNL     1      -0.872   5.097   2.409  1.00  0.00     0.077 C 
HETATM   21  C9  UNL     1      -0.325   6.384   1.946  1.00  0.00     0.032 C 
HETATM   22  C10 UNL     1      -2.132   4.809   1.570  1.00  0.00     0.032 C 
ENDBRANCH  18  20
ENDBRANCH  15  18
ENDBRANCH  14  15
ENDBRANCH  13  14
ENDBRANCH  10  13
ENDBRANCH   8   9
BRANCH   8  23
HETATM   23  C11 UNL     1      -2.586  -2.465   5.594  1.00  0.00    -0.033 A 
HETATM   24  C12 UNL     1      -3.799  -2.877   5.102  1.00  0.00     0.009 A 
HETATM   25  C13 UNL     1      -3.932  -4.061   4.335  1.00  0.00     0.001 A 
HETATM   26  C14 UNL     1      -2.833  -4.770   4.104  1.00  0.00     0.000 A 
HETATM   27  C15 UNL     1      -1.593  -4.440   4.546  1.00  0.00     0.001 A 
HETATM   28  C16 UNL     1      -1.488  -3.242   5.317  1.00  0.00     0.009 A 
ENDBRANCH   8  23
ENDBRANCH   5   8
ENDBRANCH   3   5
TORSDOF 10
ENDMDL
MODEL 2
REMARK VINA RESULT: -6.307461743      5.950      9.128
REMARK  11 active torsions:
REMARK  status: ('A' for Active; 'I' for Inactive)
REMARK    1  A    between atoms: C2_3  and  C3_5 
REMARK    2  A    between atoms: C3_5  and  O2_6 
REMARK    3  A    between atoms: C3_5  and  C4_8 
REMARK    4  A    between atoms: C4_8  and  N2_9 
REMARK    5  A    between atoms: C4_8  and  C11_23 
REMARK       I    between atoms: N2_9  and  C5_11 
REMARK    6  A    between atoms: C5_11  and  C6_13 
REMARK    7  A    between atoms: C6_13  and  O4_14 
REMARK    8  A    between atoms: O4_14  and  C7_15 
REMARK    9  A    between atoms: C7_15  and  O5_16 
REMARK   10  A    between atoms: C7_15  and  N3_18 
REMARK   11  A    between atoms: N3_18  and  C8_20 
ROOT
HETATM    1  C1  UNL     1      -1.804   6.665  -2.354  1.00  0.00     0.233 C 
HETATM    2  N1  UNL     1      -1.161   7.057  -1.300  1.00  0.00    -0.393 NA
HETATM    3  C2  UNL     1      -0.451   7.488  -0.135  1.00  0.00     0.321 C 
HETATM    4  O1  UNL     1      -0.037   8.662  -0.023  1.00  0.00    -0.254 OA
ENDROOT
BRANCH   3   5
HETATM    5  C3  UNL     1      -0.206   6.482   0.960  1.00  0.00     0.252 C 
BRANCH   5   6
HETATM    6  O2  UNL     1       0.106   7.243   2.106  1.00  0.00    -0.383 OA
ATOM      7  H2  UNL     1       0.745   6.729   2.585  1.00  0.00     0.210 HD
ENDBRANCH   5   6
BRANCH   5   8
HETATM    8  C4  UNL     1      -1.368   5.573   1.123  1.00  0.00     0.157 C 
BRANCH   8   9
HETATM    9  N2  UNL     1      -2.604   6.182   1.588  1.00  0.00    -0.348 N 
HETATM   10  C5  UNL     1      -3.853   6.111   0.932  1.00  0.00     0.242 C 
HETATM   11  O3  UNL     1      -4.025   5.447  -0.156  1.00  0.00    -0.271 OA
ATOM     12  H2  UNL     1      -2.565   6.705   2.463  1.00  0.00     0.163 HD
BRANCH  10  13
HETATM   13  C6  UNL     1      -5.030   6.818   1.461  1.00  0.00     0.282 C 
BRANCH  13  14
HETATM   14  O4  UNL     1      -6.159   5.931   1.555  1.00  0.00    -0.307 OA
BRANCH  14  15
HETATM   15  C7  UNL     1      -7.204   6.158   0.672  1.00  0.00     0.258 C 
BRANCH  15  16
HETATM   16  O5  UNL     1      -6.846   6.011  -0.579  1.00  0.00    -0.327 OA
ATOM     17  H5  UNL     1      -7.590   5.952  -1.167  1.00  0.00     0.221 HD
ENDBRANCH  15  16
BRANCH  15  18
HETATM   18  N3  UNL     1      -8.513   6.519   0.954  1.00  0.00    -0.347 N 
ATOM     19  H3  UNL     1      -9.300   5.927   0.685  1.00  0.00     0.164 HD
BRANCH  18  20
HETATM   20  C8  UNL     1      -8.713   7.791   1.659  1.00  0.00     0.077 C 
HETATM   21  C9  UNL     1      -8.789   8.946   0.748  1.00  0.00     0.032 C 
HETATM   22  C10 UNL     1     -10.072   7.690   2.380  1.00  0.00     0.032 C 
ENDBRANCH  18  20
ENDBRANCH  15  18
ENDBRANCH  14  15
ENDBRANCH  13  14
ENDBRANCH  10  13
ENDBRANCH   8   9
BRANCH   8  23
HETATM   23  C11 UNL     1      -1.091   4.503   2.136  1.00  0.00    -0.033 A 
HETATM   24  C12 UNL     1       0.145   3.920   2.262  1.00  0.00     0.009 A 
HETATM   25  C13 UNL     1       0.415   2.946   3.255  1.00  0.00     0.001 A 
HETATM   26  C14 UNL     1      -0.577   2.610   4.072  1.00  0.00     0.000 A 
HETATM   27  C15 UNL     1      -1.828   3.135   4.025  1.00  0.00     0.001 A 
HETATM   28  C16 UNL     1      -2.073   4.113   3.014  1.00  0.00     0.009 A 
ENDBRANCH   8  23
ENDBRANCH   5   8
ENDBRANCH   3   5
TORSDOF 10
ENDMDL
MODEL 3
REMARK VINA RESULT: -6.297667796      1.163      1.698
REMARK  11 active torsions:
REMARK  status: ('A' for Active; 'I' for Inactive)
REMARK    1  A    between atoms: C2_3  and  C3_5 
REMARK    2  A    between atoms: C3_5  and  O2_6 
REMARK    3  A    between atoms: C3_5  and  C4_8 
REMARK    4  A    between atoms: C4_8  and  N2_9 
REMARK    5  A    between atoms: C4_8  and  C11_23 
REMARK       I    between atoms: N2_9  and  C5_11 
REMARK    6  A    between atoms: C5_11  and  C6_13 
REMARK    7  A    between atoms: C6_13  and  O4_14 
REMARK    8  A    between atoms: O4_14  and  C7_15 
REMARK    9  A    between atoms: C7_15  and  O5_16 
REMARK   10  A    between atoms: C7_15  and  N3_18 
REMARK   11  A    between atoms: N3_18  and  C8_20 
ROOT
HETATM    1  C1  UNL     1      -1.488   2.518   8.010  1.00  0.00     0.233 C 
HETATM    2  N1  UNL     1      -2.330   1.552   8.198  1.00  0.00    -0.393 NA
HETATM    3  C2  UNL     1      -3.260   0.485   8.407  1.00  0.00     0.321 C 
HETATM    4  O1  UNL     1      -4.359   0.679   8.970  1.00  0.00    -0.254 OA
ENDROOT
BRANCH   3   5
HETATM    5  C3  UNL     1      -2.876  -0.893   7.931  1.00  0.00     0.252 C 
BRANCH   5   6
HETATM    6  O2  UNL     1      -4.056  -1.662   8.019  1.00  0.00    -0.383 OA
ATOM      7  H2  UNL     1      -4.596  -1.224   8.666  1.00  0.00     0.210 HD
ENDBRANCH   5   6
BRANCH   5   8
HETATM    8  C4  UNL     1      -2.273  -0.845   6.576  1.00  0.00     0.157 C 
BRANCH   8   9
HETATM    9  N2  UNL     1      -2.732   0.225   5.704  1.00  0.00    -0.348 N 
HETATM   10  C5  UNL     1      -1.909   1.014   4.869  1.00  0.00     0.242 C 
HETATM   11  O3  UNL     1      -0.640   0.826   4.773  1.00  0.00    -0.271 OA
ATOM     12  H2  UNL     1      -3.732   0.422   5.693  1.00  0.00     0.163 HD
BRANCH  10  13
HETATM   13  C6  UNL     1      -2.471   2.114   4.069  1.00  0.00     0.282 C 
BRANCH  13  14
HETATM   14  O4  UNL     1      -1.781   3.347   4.340  1.00  0.00    -0.307 OA
BRANCH  14  15
HETATM   15  C7  UNL     1      -1.128   3.944   3.273  1.00  0.00     0.258 C 
BRANCH  15  16
HETATM   16  O5  UNL     1      -0.126   3.224   2.831  1.00  0.00    -0.327 OA
ATOM     17  H5  UNL     1       0.106   3.434   1.934  1.00  0.00     0.221 HD
ENDBRANCH  15  16
BRANCH  15  18
HETATM   18  N3  UNL     1      -1.395   5.161   2.665  1.00  0.00    -0.347 N 
ATOM     19  H3  UNL     1      -1.369   6.037   3.188  1.00  0.00     0.164 HD
BRANCH  18  20
HETATM   20  C8  UNL     1      -1.717   5.131   1.232  1.00  0.00     0.077 C 
HETATM   21  C9  UNL     1      -3.107   5.526   0.948  1.00  0.00     0.032 C 
HETATM   22  C10 UNL     1      -0.800   6.165   0.550  1.00  0.00     0.032 C 
ENDBRANCH  18  20
ENDBRANCH  15  18
ENDBRANCH  14  15
ENDBRANCH  13  14
ENDBRANCH  10  13
ENDBRANCH   8   9
BRANCH   8  23
HETATM   23  C11 UNL     1      -2.566  -2.092   5.799  1.00  0.00    -0.033 A 
HETATM   24  C12 UNL     1      -1.608  -3.046   5.561  1.00  0.00     0.009 A 
HETATM   25  C13 UNL     1      -1.905  -4.247   4.870  1.00  0.00     0.001 A 
HETATM   26  C14 UNL     1      -3.153  -4.426   4.455  1.00  0.00     0.000 A 
HETATM   27  C15 UNL     1      -4.166  -3.543   4.648  1.00  0.00     0.001 A 
HETATM   28  C16 UNL     1      -3.840  -2.340   5.346  1.00  0.00     0.009 A 
ENDBRANCH   8  23
ENDBRANCH   5   8
ENDBRANCH   3   5
TORSDOF 10
ENDMDL
MODEL 4
REMARK VINA RESULT: -6.248452947      5.751      8.865
REMARK  11 active torsions:
REMARK  status: ('A' for Active; 'I' for Inactive)
REMARK    1  A    between atoms: C2_3  and  C3_5 
REMARK    2  A    between atoms: C3_5  and  O2_6 
REMARK    3  A    between atoms: C3_5  and  C4_8 
REMARK    4  A    between atoms: C4_8  and  N2_9 
REMARK    5  A    between atoms: C4_8  and  C11_23 
REMARK       I    between atoms: N2_9  and  C5_11 
REMARK    6  A    between atoms: C5_11  and  C6_13 
REMARK    7  A    between atoms: C6_13  and  O4_14 
REMARK    8  A    between atoms: O4_14  and  C7_15 
REMARK    9  A    between atoms: C7_15  and  O5_16 
REMARK   10  A    between atoms: C7_15  and  N3_18 
REMARK   11  A    between atoms: N3_18  and  C8_20 
ROOT
HETATM    1  C1  UNL     1      -2.072   9.664   0.665  1.00  0.00     0.233 C 
HETATM    2  N1  UNL     1      -1.283   8.653   0.479  1.00  0.00    -0.393 NA
HETATM    3  C2  UNL     1      -0.413   7.537   0.273  1.00  0.00     0.321 C 
HETATM    4  O1  UNL     1       0.227   7.397  -0.791  1.00  0.00    -0.254 OA
ENDROOT
BRANCH   3   5
HETATM    5  C3  UNL     1      -0.290   6.521   1.379  1.00  0.00     0.252 C 
BRANCH   5   6
HETATM    6  O2  UNL     1      -0.243   7.270   2.574  1.00  0.00    -0.383 OA
ATOM      7  H2  UNL     1      -0.957   7.893   2.510  1.00  0.00     0.210 HD
ENDBRANCH   5   6
BRANCH   5   8
HETATM    8  C4  UNL     1      -1.391   5.526   1.320  1.00  0.00     0.157 C 
BRANCH   8   9
HETATM    9  N2  UNL     1      -2.693   5.978   1.782  1.00  0.00    -0.348 N 
HETATM   10  C5  UNL     1      -3.806   6.258   0.957  1.00  0.00     0.242 C 
HETATM   11  O3  UNL     1      -3.777   6.095  -0.319  1.00  0.00    -0.271 OA
ATOM     12  H2  UNL     1      -2.815   6.104   2.786  1.00  0.00     0.163 HD
BRANCH  10  13
HETATM   13  C6  UNL     1      -5.064   6.769   1.525  1.00  0.00     0.282 C 
BRANCH  13  14
HETATM   14  O4  UNL     1      -6.108   5.785   1.422  1.00  0.00    -0.307 OA
BRANCH  14  15
HETATM   15  C7  UNL     1      -7.143   6.064   0.543  1.00  0.00     0.258 C 
BRANCH  15  16
HETATM   16  O5  UNL     1      -6.771   5.993  -0.710  1.00  0.00    -0.327 OA
ATOM     17  H5  UNL     1      -7.300   5.385  -1.214  1.00  0.00     0.221 HD
ENDBRANCH  15  16
BRANCH  15  18
HETATM   18  N3  UNL     1      -8.456   6.407   0.832  1.00  0.00    -0.347 N 
ATOM     19  H3  UNL     1      -9.238   5.828   0.526  1.00  0.00     0.164 HD
BRANCH  18  20
HETATM   20  C8  UNL     1      -8.666   7.641   1.598  1.00  0.00     0.077 C 
HETATM   21  C9  UNL     1      -8.642   8.850   0.757  1.00  0.00     0.032 C 
HETATM   22  C10 UNL     1     -10.073   7.545   2.218  1.00  0.00     0.032 C 
ENDBRANCH  18  20
ENDBRANCH  15  18
ENDBRANCH  14  15
ENDBRANCH  13  14
ENDBRANCH  10  13
ENDBRANCH   8   9
BRANCH   8  23
HETATM   23  C11 UNL     1      -1.100   4.333   2.179  1.00  0.00    -0.033 A 
HETATM   24  C12 UNL     1      -2.088   3.481   2.605  1.00  0.00     0.009 A 
HETATM   25  C13 UNL     1      -1.800   2.326   3.374  1.00  0.00     0.001 A 
HETATM   26  C14 UNL     1      -0.529   2.088   3.673  1.00  0.00     0.000 A 
HETATM   27  C15 UNL     1       0.514   2.869   3.293  1.00  0.00     0.001 A 
HETATM   28  C16 UNL     1       0.196   4.028   2.520  1.00  0.00     0.009 A 
ENDBRANCH   8  23
ENDBRANCH   5   8
ENDBRANCH   3   5
TORSDOF 10
ENDMDL
MODEL 5
REMARK VINA RESULT: -6.216487284      1.335      1.816
REMARK  11 active torsions:
REMARK  status: ('A' for Active; 'I' for Inactive)
REMARK    1  A    between atoms: C2_3  and  C3_5 
REMARK    2  A    between atoms: C3_5  and  O2_6 
REMARK    3  A    between atoms: C3_5  and  C4_8 
REMARK    4  A    between atoms: C4_8  and  N2_9 
REMARK    5  A    between atoms: C4_8  and  C11_23 
REMARK       I    between atoms: N2_9  and  C5_11 
REMARK    6  A    between atoms: C5_11  and  C6_13 
REMARK    7  A    between atoms: C6_13  and  O4_14 
REMARK    8  A    between atoms: O4_14  and  C7_15 
REMARK    9  A    between atoms: C7_15  and  O5_16 
REMARK   10  A    between atoms: C7_15  and  N3_18 
REMARK   11  A    between atoms: N3_18  and  C8_20 
ROOT
HETATM    1  C1  UNL     1      -1.792   3.509   8.577  1.00  0.00     0.233 C 
HETATM    2  N1  UNL     1      -2.242   2.304   8.425  1.00  0.00    -0.393 NA
HETATM    3  C2  UNL     1      -2.739   0.973   8.257  1.00  0.00     0.321 C 
HETATM    4  O1  UNL     1      -3.934   0.690   8.490  1.00  0.00    -0.254 OA
ENDROOT
BRANCH   3   5
HETATM    5  C3  UNL     1      -1.776  -0.090   7.794  1.00  0.00     0.252 C 
BRANCH   5   6
HETATM    6  O2  UNL     1      -2.139  -1.258   8.498  1.00  0.00    -0.383 OA
ATOM      7  H2  UNL     1      -1.336  -1.755   8.595  1.00  0.00     0.210 HD
ENDBRANCH   5   6
BRANCH   5   8
HETATM    8  C4  UNL     1      -1.800  -0.230   6.317  1.00  0.00     0.157 C 
BRANCH   8   9
HETATM    9  N2  UNL     1      -2.279   0.920   5.568  1.00  0.00    -0.348 N 
HETATM   10  C5  UNL     1      -1.464   1.865   4.904  1.00  0.00     0.242 C 
HETATM   11  O3  UNL     1      -0.183   1.768   4.869  1.00  0.00    -0.271 OA
ATOM     12  H2  UNL     1      -3.288   1.057   5.517  1.00  0.00     0.163 HD
BRANCH  10  13
HETATM   13  C6  UNL     1      -2.053   3.030   4.223  1.00  0.00     0.282 C 
BRANCH  13  14
HETATM   14  O4  UNL     1      -1.759   3.001   2.815  1.00  0.00    -0.307 OA
BRANCH  14  15
HETATM   15  C7  UNL     1      -0.975   4.032   2.321  1.00  0.00     0.258 C 
BRANCH  15  16
HETATM   16  O5  UNL     1       0.301   3.846   2.549  1.00  0.00    -0.327 OA
ATOM     17  H5  UNL     1       0.744   4.643   2.816  1.00  0.00     0.221 HD
ENDBRANCH  15  16
BRANCH  15  18
HETATM   18  N3  UNL     1      -1.375   5.184   1.661  1.00  0.00    -0.347 N 
ATOM     19  H3  UNL     1      -2.359   5.380   1.477  1.00  0.00     0.164 HD
BRANCH  18  20
HETATM   20  C8  UNL     1      -0.315   6.109   1.239  1.00  0.00     0.077 C 
HETATM   21  C9  UNL     1      -0.558   6.692  -0.092  1.00  0.00     0.032 C 
HETATM   22  C10 UNL     1      -0.310   7.270   2.251  1.00  0.00     0.032 C 
ENDBRANCH  18  20
ENDBRANCH  15  18
ENDBRANCH  14  15
ENDBRANCH  13  14
ENDBRANCH  10  13
ENDBRANCH   8   9
BRANCH   8  23
HETATM   23  C11 UNL     1      -2.706  -1.343   5.885  1.00  0.00    -0.033 A 
HETATM   24  C12 UNL     1      -4.046  -1.147   5.657  1.00  0.00     0.009 A 
HETATM   25  C13 UNL     1      -4.887  -2.192   5.200  1.00  0.00     0.001 A 
HETATM   26  C14 UNL     1      -4.334  -3.382   4.995  1.00  0.00     0.000 A 
HETATM   27  C15 UNL     1      -3.022  -3.667   5.188  1.00  0.00     0.001 A 
HETATM   28  C16 UNL     1      -2.196  -2.597   5.651  1.00  0.00     0.009 A 
ENDBRANCH   8  23
ENDBRANCH   5   8
ENDBRANCH   3   5
TORSDOF 10
ENDMDL
