MODEL 1
REMARK VINA RESULT: -8.129985788      0.000      0.000
REMARK  15 active torsions:
REMARK  status: ('A' for Active; 'I' for Inactive)
REMARK    1  A    between atoms: O1_1  and  N1_3 
REMARK    2  A    between atoms: N1_3  and  C1_4 
REMARK    3  A    between atoms: N1_3  and  C23_32 
REMARK    4  A    between atoms: C1_4  and  C2_5 
REMARK    5  A    between atoms: C2_5  and  N2_6 
REMARK    6  A    between atoms: N2_6  and  C3_8 
REMARK    7  A    between atoms: C6_11  and  C7_12 
REMARK    8  A    between atoms: C7_12  and  C8_13 
REMARK    9  A    between atoms: C8_13  and  C9_14 
REMARK   10  A    between atoms: C9_14  and  C10_15 
REMARK   11  A    between atoms: C10_15  and  C11_16 
REMARK   12  A    between atoms: C11_16  and  C12_17 
REMARK   13  A    between atoms: C12_17  and  C13_18 
REMARK   14  A    between atoms: C13_18  and  C14_19 
REMARK   15  A    between atoms: C23_32  and  C24_33 
ROOT
HETATM    1  C3  UNL     1       4.863  26.445  21.384  1.00  0.00     0.039 A 
HETATM    2  C4  UNL     1       4.346  25.180  21.623  1.00  0.00     0.030 A 
HETATM    3  C5  UNL     1       4.954  24.271  22.449  1.00  0.00     0.010 A 
HETATM    4  C6  UNL     1       6.121  24.586  23.085  1.00  0.00    -0.047 A 
HETATM    5  C17 UNL     1       6.666  25.853  22.866  1.00  0.00    -0.017 A 
HETATM    6  C18 UNL     1       7.843  26.227  23.468  1.00  0.00     0.013 A 
HETATM    7  C19 UNL     1       8.442  27.451  23.294  1.00  0.00     0.001 A 
HETATM    8  C20 UNL     1       7.817  28.345  22.463  1.00  0.00     0.001 A 
HETATM    9  C21 UNL     1       6.621  28.011  21.829  1.00  0.00     0.014 A 
HETATM   10  C22 UNL     1       6.044  26.777  22.023  1.00  0.00     0.001 A 
ENDROOT
BRANCH   1  11
HETATM   11  N2  UNL     1       4.188  27.355  20.551  1.00  0.00    -0.388 N 
ATOM     12  H2  UNL     1       4.170  28.340  20.812  1.00  0.00     0.159 HD
BRANCH  11  13
HETATM   13  C2  UNL     1       3.511  26.936  19.322  1.00  0.00     0.136 C 
BRANCH  13  14
HETATM   14  C1  UNL     1       4.142  27.633  18.140  1.00  0.00     0.140 C 
BRANCH  14  15
HETATM   15  N1  UNL     1       5.491  28.018  18.471  1.00  0.00    -0.194 NA
BRANCH  15  16
HETATM   16  O1  UNL     1       5.582  29.364  18.485  1.00  0.00    -0.313 OA
ATOM     17  H1  UNL     1       4.727  29.740  18.310  1.00  0.00     0.237 HD
ENDBRANCH  15  16
BRANCH  15  18
HETATM   18  C23 UNL     1       6.516  27.408  17.685  1.00  0.00     0.159 C 
BRANCH  18  19
HETATM   19  C24 UNL     1       7.248  26.410  18.497  1.00  0.00    -0.043 A 
HETATM   20  C25 UNL     1       8.438  26.762  19.115  1.00  0.00     0.008 A 
HETATM   21  C26 UNL     1       9.154  25.881  19.886  1.00  0.00     0.001 A 
HETATM   22  C27 UNL     1       8.688  24.595  20.059  1.00  0.00     0.000 A 
HETATM   23  C28 UNL     1       7.494  24.212  19.449  1.00  0.00     0.001 A 
HETATM   24  C29 UNL     1       6.804  25.131  18.681  1.00  0.00     0.008 A 
ENDBRANCH  18  19
ENDBRANCH  15  18
ENDBRANCH  14  15
ENDBRANCH  13  14
ENDBRANCH  11  13
ENDBRANCH   1  11
BRANCH   4  25
HETATM   25  C7  UNL     1       6.811  23.656  24.019  1.00  0.00     0.039 C 
BRANCH  25  26
HETATM   26  C8  UNL     1       6.949  22.295  23.382  1.00  0.00     0.005 C 
BRANCH  26  27
HETATM   27  C9  UNL     1       8.302  22.080  22.752  1.00  0.00     0.000 C 
BRANCH  27  28
HETATM   28  C10 UNL     1       8.160  21.217  21.549  1.00  0.00     0.000 C 
BRANCH  28  29
HETATM   29  C11 UNL     1       6.733  20.933  21.138  1.00  0.00     0.000 C 
BRANCH  29  30
HETATM   30  C12 UNL     1       6.680  20.194  19.846  1.00  0.00     0.006 C 
BRANCH  30  31
HETATM   31  C13 UNL     1       6.212  18.784  19.941  1.00  0.00     0.058 C 
BRANCH  31  32
HETATM   32  C14 UNL     1       7.199  17.823  20.447  1.00  0.00     0.025 A 
HETATM   33  C15 UNL     1       8.474  17.725  19.875  1.00  0.00     0.113 A 
HETATM   34  N3  UNL     1       9.158  16.782  20.512  1.00  0.00    -0.360 N 
HETATM   35  C16 UNL     1       8.351  16.287  21.463  1.00  0.00     0.180 A 
ATOM     36  H3  UNL     1      10.115  16.490  20.316  1.00  0.00     0.166 HD
HETATM   37  N4  UNL     1       7.163  16.916  21.425  1.00  0.00    -0.355 N 
ATOM     38  H4  UNL     1       6.370  16.732  22.039  1.00  0.00     0.166 HD
ENDBRANCH  31  32
ENDBRANCH  30  31
ENDBRANCH  29  30
ENDBRANCH  28  29
ENDBRANCH  27  28
ENDBRANCH  26  27
ENDBRANCH  25  26
ENDBRANCH   4  25
TORSDOF 15
ENDMDL
MODEL 2
REMARK VINA RESULT: -8.098355349      1.226      1.928
REMARK  15 active torsions:
REMARK  status: ('A' for Active; 'I' for Inactive)
REMARK    1  A    between atoms: O1_1  and  N1_3 
REMARK    2  A    between atoms: N1_3  and  C1_4 
REMARK    3  A    between atoms: N1_3  and  C23_32 
REMARK    4  A    between atoms: C1_4  and  C2_5 
REMARK    5  A    between atoms: C2_5  and  N2_6 
REMARK    6  A    between atoms: N2_6  and  C3_8 
REMARK    7  A    between atoms: C6_11  and  C7_12 
REMARK    8  A    between atoms: C7_12  and  C8_13 
REMARK    9  A    between atoms: C8_13  and  C9_14 
REMARK   10  A    between atoms: C9_14  and  C10_15 
REMARK   11  A    between atoms: C10_15  and  C11_16 
REMARK   12  A    between atoms: C11_16  and  C12_17 
REMARK   13  A    between atoms: C12_17  and  C13_18 
REMARK   14  A    between atoms: C13_18  and  C14_19 
REMARK   15  A    between atoms: C23_32  and  C24_33 
ROOT
HETATM    1  C3  UNL     1       4.771  26.401  21.357  1.00  0.00     0.039 A 
HETATM    2  C4  UNL     1       4.424  25.108  21.720  1.00  0.00     0.030 A 
HETATM    3  C5  UNL     1       5.202  24.329  22.536  1.00  0.00     0.010 A 
HETATM    4  C6  UNL     1       6.379  24.811  23.036  1.00  0.00    -0.047 A 
HETATM    5  C17 UNL     1       6.756  26.110  22.689  1.00  0.00    -0.017 A 
HETATM    6  C18 UNL     1       7.932  26.649  23.151  1.00  0.00     0.013 A 
HETATM    7  C19 UNL     1       8.371  27.914  22.847  1.00  0.00     0.001 A 
HETATM    8  C20 UNL     1       7.577  28.676  22.029  1.00  0.00     0.001 A 
HETATM    9  C21 UNL     1       6.374  28.173  21.535  1.00  0.00     0.014 A 
HETATM   10  C22 UNL     1       5.960  26.901  21.857  1.00  0.00     0.001 A 
ENDROOT
BRANCH   1  11
HETATM   11  N2  UNL     1       3.926  27.173  20.542  1.00  0.00    -0.388 N 
ATOM     12  H2  UNL     1       3.491  28.008  20.934  1.00  0.00     0.159 HD
BRANCH  11  13
HETATM   13  C2  UNL     1       3.648  26.821  19.148  1.00  0.00     0.136 C 
BRANCH  13  14
HETATM   14  C1  UNL     1       4.136  27.929  18.245  1.00  0.00     0.140 C 
BRANCH  14  15
HETATM   15  N1  UNL     1       5.564  28.066  18.376  1.00  0.00    -0.194 NA
BRANCH  15  16
HETATM   16  O1  UNL     1       5.907  29.360  18.212  1.00  0.00    -0.313 OA
ATOM     17  H1  UNL     1       6.789  29.496  18.540  1.00  0.00     0.237 HD
ENDBRANCH  15  16
BRANCH  15  18
HETATM   18  C23 UNL     1       6.344  27.186  17.564  1.00  0.00     0.159 C 
BRANCH  18  19
HETATM   19  C24 UNL     1       7.199  26.333  18.420  1.00  0.00    -0.043 A 
HETATM   20  C25 UNL     1       6.818  25.029  18.695  1.00  0.00     0.008 A 
HETATM   21  C26 UNL     1       7.575  24.192  19.476  1.00  0.00     0.001 A 
HETATM   22  C27 UNL     1       8.758  24.649  20.014  1.00  0.00     0.000 A 
HETATM   23  C28 UNL     1       9.168  25.957  19.754  1.00  0.00     0.001 A 
HETATM   24  C29 UNL     1       8.375  26.767  18.962  1.00  0.00     0.008 A 
ENDBRANCH  18  19
ENDBRANCH  15  18
ENDBRANCH  14  15
ENDBRANCH  13  14
ENDBRANCH  11  13
ENDBRANCH   1  11
BRANCH   4  25
HETATM   25  C7  UNL     1       7.251  24.027  23.952  1.00  0.00     0.039 C 
BRANCH  25  26
HETATM   26  C8  UNL     1       6.534  23.775  25.256  1.00  0.00     0.005 C 
BRANCH  26  27
HETATM   27  C9  UNL     1       6.273  22.310  25.504  1.00  0.00     0.000 C 
BRANCH  27  28
HETATM   28  C10 UNL     1       6.841  21.506  24.389  1.00  0.00     0.000 C 
BRANCH  28  29
HETATM   29  C11 UNL     1       5.912  20.454  23.830  1.00  0.00     0.000 C 
BRANCH  29  30
HETATM   30  C12 UNL     1       5.811  20.556  22.347  1.00  0.00     0.006 C 
BRANCH  30  31
HETATM   31  C13 UNL     1       6.931  21.276  21.683  1.00  0.00     0.058 C 
BRANCH  31  32
HETATM   32  C14 UNL     1       7.818  20.447  20.860  1.00  0.00     0.025 A 
HETATM   33  C15 UNL     1       8.620  19.452  21.436  1.00  0.00     0.113 A 
HETATM   34  N3  UNL     1       9.322  18.861  20.478  1.00  0.00    -0.360 N 
HETATM   35  C16 UNL     1       8.987  19.454  19.322  1.00  0.00     0.180 A 
ATOM     36  H3  UNL     1       9.991  18.100  20.597  1.00  0.00     0.166 HD
HETATM   37  N4  UNL     1       8.075  20.415  19.552  1.00  0.00    -0.355 N 
ATOM     38  H4  UNL     1       7.653  21.019  18.846  1.00  0.00     0.166 HD
ENDBRANCH  31  32
ENDBRANCH  30  31
ENDBRANCH  29  30
ENDBRANCH  28  29
ENDBRANCH  27  28
ENDBRANCH  26  27
ENDBRANCH  25  26
ENDBRANCH   4  25
TORSDOF 15
ENDMDL
MODEL 3
REMARK VINA RESULT: -8.088898680      3.728      5.106
REMARK  15 active torsions:
REMARK  status: ('A' for Active; 'I' for Inactive)
REMARK    1  A    between atoms: O1_1  and  N1_3 
REMARK    2  A    between atoms: N1_3  and  C1_4 
REMARK    3  A    between atoms: N1_3  and  C23_32 
REMARK    4  A    between atoms: C1_4  and  C2_5 
REMARK    5  A    between atoms: C2_5  and  N2_6 
REMARK    6  A    between atoms: N2_6  and  C3_8 
REMARK    7  A    between atoms: C6_11  and  C7_12 
REMARK    8  A    between atoms: C7_12  and  C8_13 
REMARK    9  A    between atoms: C8_13  and  C9_14 
REMARK   10  A    between atoms: C9_14  and  C10_15 
REMARK   11  A    between atoms: C10_15  and  C11_16 
REMARK   12  A    between atoms: C11_16  and  C12_17 
REMARK   13  A    between atoms: C12_17  and  C13_18 
REMARK   14  A    between atoms: C13_18  and  C14_19 
REMARK   15  A    between atoms: C23_32  and  C24_33 
ROOT
HETATM    1  C3  UNL     1       4.844  26.459  21.328  1.00  0.00     0.039 A 
HETATM    2  C4  UNL     1       4.457  25.166  21.650  1.00  0.00     0.030 A 
HETATM    3  C5  UNL     1       5.193  24.351  22.470  1.00  0.00     0.010 A 
HETATM    4  C6  UNL     1       6.365  24.793  23.014  1.00  0.00    -0.047 A 
HETATM    5  C17 UNL     1       6.781  26.090  22.710  1.00  0.00    -0.017 A 
HETATM    6  C18 UNL     1       7.956  26.591  23.218  1.00  0.00     0.013 A 
HETATM    7  C19 UNL     1       8.433  27.851  22.957  1.00  0.00     0.001 A 
HETATM    8  C20 UNL     1       7.680  28.650  22.134  1.00  0.00     0.001 A 
HETATM    9  C21 UNL     1       6.482  28.187  21.594  1.00  0.00     0.014 A 
HETATM   10  C22 UNL     1       6.029  26.918  21.874  1.00  0.00     0.001 A 
ENDROOT
BRANCH   1  11
HETATM   11  N2  UNL     1       4.041  27.269  20.507  1.00  0.00    -0.388 N 
ATOM     12  H2  UNL     1       3.817  28.214  20.816  1.00  0.00     0.159 HD
BRANCH  11  13
HETATM   13  C2  UNL     1       3.516  26.803  19.222  1.00  0.00     0.136 C 
BRANCH  13  14
HETATM   14  C1  UNL     1       4.092  27.647  18.110  1.00  0.00     0.140 C 
BRANCH  14  15
HETATM   15  N1  UNL     1       5.452  28.002  18.427  1.00  0.00    -0.194 NA
BRANCH  15  16
HETATM   16  O1  UNL     1       5.568  29.345  18.458  1.00  0.00    -0.313 OA
ATOM     17  H1  UNL     1       6.483  29.585  18.369  1.00  0.00     0.237 HD
ENDBRANCH  15  16
BRANCH  15  18
HETATM   18  C23 UNL     1       6.455  27.384  17.619  1.00  0.00     0.159 C 
BRANCH  18  19
HETATM   19  C24 UNL     1       7.216  26.402  18.422  1.00  0.00    -0.043 A 
HETATM   20  C25 UNL     1       8.422  26.768  18.999  1.00  0.00     0.008 A 
HETATM   21  C26 UNL     1       9.167  25.901  19.759  1.00  0.00     0.001 A 
HETATM   22  C27 UNL     1       8.712  24.617  19.966  1.00  0.00     0.000 A 
HETATM   23  C28 UNL     1       7.501  24.219  19.399  1.00  0.00     0.001 A 
HETATM   24  C29 UNL     1       6.783  25.124  18.639  1.00  0.00     0.008 A 
ENDBRANCH  18  19
ENDBRANCH  15  18
ENDBRANCH  14  15
ENDBRANCH  13  14
ENDBRANCH  11  13
ENDBRANCH   1  11
BRANCH   4  25
HETATM   25  C7  UNL     1       7.192  23.967  23.937  1.00  0.00     0.039 C 
BRANCH  25  26
HETATM   26  C8  UNL     1       6.325  22.944  24.629  1.00  0.00     0.005 C 
BRANCH  26  27
HETATM   27  C9  UNL     1       6.233  23.167  26.118  1.00  0.00     0.000 C 
BRANCH  27  28
HETATM   28  C10 UNL     1       6.990  24.394  26.485  1.00  0.00     0.000 C 
BRANCH  28  29
HETATM   29  C11 UNL     1       7.816  24.275  27.745  1.00  0.00     0.000 C 
BRANCH  29  30
HETATM   30  C12 UNL     1       8.464  22.937  27.842  1.00  0.00     0.006 C 
BRANCH  30  31
HETATM   31  C13 UNL     1       9.861  22.871  27.332  1.00  0.00     0.058 C 
BRANCH  31  32
HETATM   32  C14 UNL     1      10.912  23.049  28.340  1.00  0.00     0.025 A 
HETATM   33  C15 UNL     1      11.110  22.103  29.354  1.00  0.00     0.113 A 
HETATM   34  N3  UNL     1      12.111  22.506  30.126  1.00  0.00    -0.360 N 
HETATM   35  C16 UNL     1      12.545  23.674  29.628  1.00  0.00     0.180 A 
ATOM     36  H3  UNL     1      12.481  22.021  30.944  1.00  0.00     0.166 HD
HETATM   37  N4  UNL     1      11.819  24.004  28.546  1.00  0.00    -0.355 N 
ATOM     38  H4  UNL     1      11.941  24.844  27.978  1.00  0.00     0.166 HD
ENDBRANCH  31  32
ENDBRANCH  30  31
ENDBRANCH  29  30
ENDBRANCH  28  29
ENDBRANCH  27  28
ENDBRANCH  26  27
ENDBRANCH  25  26
ENDBRANCH   4  25
TORSDOF 15
ENDMDL
MODEL 4
REMARK VINA RESULT: -8.005629557      3.849      5.615
REMARK  15 active torsions:
REMARK  status: ('A' for Active; 'I' for Inactive)
REMARK    1  A    between atoms: O1_1  and  N1_3 
REMARK    2  A    between atoms: N1_3  and  C1_4 
REMARK    3  A    between atoms: N1_3  and  C23_32 
REMARK    4  A    between atoms: C1_4  and  C2_5 
REMARK    5  A    between atoms: C2_5  and  N2_6 
REMARK    6  A    between atoms: N2_6  and  C3_8 
REMARK    7  A    between atoms: C6_11  and  C7_12 
REMARK    8  A    between atoms: C7_12  and  C8_13 
REMARK    9  A    between atoms: C8_13  and  C9_14 
REMARK   10  A    between atoms: C9_14  and  C10_15 
REMARK   11  A    between atoms: C10_15  and  C11_16 
REMARK   12  A    between atoms: C11_16  and  C12_17 
REMARK   13  A    between atoms: C12_17  and  C13_18 
REMARK   14  A    between atoms: C13_18  and  C14_19 
REMARK   15  A    between atoms: C23_32  and  C24_33 
ROOT
HETATM    1  C3  UNL     1       5.457  25.739  22.004  1.00  0.00     0.039 A 
HETATM    2  C4  UNL     1       5.965  26.901  22.566  1.00  0.00     0.030 A 
HETATM    3  C5  UNL     1       6.961  26.900  23.508  1.00  0.00     0.010 A 
HETATM    4  C6  UNL     1       7.505  25.724  23.938  1.00  0.00    -0.047 A 
HETATM    5  C17 UNL     1       7.015  24.536  23.391  1.00  0.00    -0.017 A 
HETATM    6  C18 UNL     1       7.513  23.319  23.790  1.00  0.00     0.013 A 
HETATM    7  C19 UNL     1       7.077  22.111  23.303  1.00  0.00     0.001 A 
HETATM    8  C20 UNL     1       6.080  22.136  22.362  1.00  0.00     0.001 A 
HETATM    9  C21 UNL     1       5.542  23.346  21.926  1.00  0.00     0.014 A 
HETATM   10  C22 UNL     1       6.000  24.541  22.432  1.00  0.00     0.001 A 
ENDROOT
BRANCH   1  11
HETATM   11  N2  UNL     1       4.456  25.791  21.020  1.00  0.00    -0.388 N 
ATOM     12  H2  UNL     1       4.162  24.924  20.570  1.00  0.00     0.159 HD
BRANCH  11  13
HETATM   13  C2  UNL     1       3.819  27.047  20.617  1.00  0.00     0.136 C 
BRANCH  13  14
HETATM   14  C1  UNL     1       4.045  27.271  19.140  1.00  0.00     0.140 C 
BRANCH  14  15
HETATM   15  N1  UNL     1       5.285  27.978  18.942  1.00  0.00    -0.194 NA
BRANCH  15  16
HETATM   16  O1  UNL     1       5.023  29.266  18.642  1.00  0.00    -0.313 OA
ATOM     17  H1  UNL     1       4.661  29.319  17.765  1.00  0.00     0.237 HD
ENDBRANCH  15  16
BRANCH  15  18
HETATM   18  C23 UNL     1       6.197  27.376  18.022  1.00  0.00     0.159 C 
BRANCH  18  19
HETATM   19  C24 UNL     1       7.101  26.450  18.740  1.00  0.00    -0.043 A 
HETATM   20  C25 UNL     1       7.005  25.085  18.523  1.00  0.00     0.008 A 
HETATM   21  C26 UNL     1       7.822  24.181  19.155  1.00  0.00     0.001 A 
HETATM   22  C27 UNL     1       8.777  24.632  20.040  1.00  0.00     0.000 A 
HETATM   23  C28 UNL     1       8.898  26.001  20.278  1.00  0.00     0.001 A 
HETATM   24  C29 UNL     1       8.055  26.876  19.621  1.00  0.00     0.008 A 
ENDBRANCH  18  19
ENDBRANCH  15  18
ENDBRANCH  14  15
ENDBRANCH  13  14
ENDBRANCH  11  13
ENDBRANCH   1  11
BRANCH   4  25
HETATM   25  C7  UNL     1       8.609  25.658  24.934  1.00  0.00     0.039 C 
BRANCH  25  26
HETATM   26  C8  UNL     1       8.110  26.098  26.288  1.00  0.00     0.005 C 
BRANCH  26  27
HETATM   27  C9  UNL     1       7.121  25.129  26.888  1.00  0.00     0.000 C 
BRANCH  27  28
HETATM   28  C10 UNL     1       7.834  24.182  27.786  1.00  0.00     0.000 C 
BRANCH  28  29
HETATM   29  C11 UNL     1       7.695  22.725  27.409  1.00  0.00     0.000 C 
BRANCH  29  30
HETATM   30  C12 UNL     1       9.026  22.100  27.169  1.00  0.00     0.006 C 
BRANCH  30  31
HETATM   31  C13 UNL     1      10.155  23.056  27.006  1.00  0.00     0.058 C 
BRANCH  31  32
HETATM   32  C14 UNL     1      11.073  23.151  28.146  1.00  0.00     0.025 A 
HETATM   33  C15 UNL     1      11.042  22.209  29.183  1.00  0.00     0.113 A 
HETATM   34  N3  UNL     1      11.964  22.530  30.082  1.00  0.00    -0.360 N 
HETATM   35  C16 UNL     1      12.570  23.643  29.642  1.00  0.00     0.180 A 
ATOM     36  H3  UNL     1      12.172  22.026  30.944  1.00  0.00     0.166 HD
HETATM   37  N4  UNL     1      12.031  24.021  28.469  1.00  0.00    -0.355 N 
ATOM     38  H4  UNL     1      12.308  24.836  27.920  1.00  0.00     0.166 HD
ENDBRANCH  31  32
ENDBRANCH  30  31
ENDBRANCH  29  30
ENDBRANCH  28  29
ENDBRANCH  27  28
ENDBRANCH  26  27
ENDBRANCH  25  26
ENDBRANCH   4  25
TORSDOF 15
ENDMDL
MODEL 5
REMARK VINA RESULT: -7.694426873      3.253      4.478
REMARK  15 active torsions:
REMARK  status: ('A' for Active; 'I' for Inactive)
REMARK    1  A    between atoms: O1_1  and  N1_3 
REMARK    2  A    between atoms: N1_3  and  C1_4 
REMARK    3  A    between atoms: N1_3  and  C23_32 
REMARK    4  A    between atoms: C1_4  and  C2_5 
REMARK    5  A    between atoms: C2_5  and  N2_6 
REMARK    6  A    between atoms: N2_6  and  C3_8 
REMARK    7  A    between atoms: C6_11  and  C7_12 
REMARK    8  A    between atoms: C7_12  and  C8_13 
REMARK    9  A    between atoms: C8_13  and  C9_14 
REMARK   10  A    between atoms: C9_14  and  C10_15 
REMARK   11  A    between atoms: C10_15  and  C11_16 
REMARK   12  A    between atoms: C11_16  and  C12_17 
REMARK   13  A    between atoms: C12_17  and  C13_18 
REMARK   14  A    between atoms: C13_18  and  C14_19 
REMARK   15  A    between atoms: C23_32  and  C24_33 
ROOT
HETATM    1  C3  UNL     1       4.941  26.353  21.449  1.00  0.00     0.039 A 
HETATM    2  C4  UNL     1       4.490  25.063  21.683  1.00  0.00     0.030 A 
HETATM    3  C5  UNL     1       5.157  24.174  22.485  1.00  0.00     0.010 A 
HETATM    4  C6  UNL     1       6.322  24.536  23.100  1.00  0.00    -0.047 A 
HETATM    5  C17 UNL     1       6.802  25.830  22.885  1.00  0.00    -0.017 A 
HETATM    6  C18 UNL     1       7.973  26.252  23.467  1.00  0.00     0.013 A 
HETATM    7  C19 UNL     1       8.510  27.504  23.296  1.00  0.00     0.001 A 
HETATM    8  C20 UNL     1       7.826  28.377  22.489  1.00  0.00     0.001 A 
HETATM    9  C21 UNL     1       6.634  27.995  21.877  1.00  0.00     0.014 A 
HETATM   10  C22 UNL     1       6.120  26.733  22.067  1.00  0.00     0.001 A 
ENDROOT
BRANCH   1  11
HETATM   11  N2  UNL     1       4.207  27.240  20.643  1.00  0.00    -0.388 N 
ATOM     12  H2  UNL     1       4.115  28.211  20.937  1.00  0.00     0.159 HD
BRANCH  11  13
HETATM   13  C2  UNL     1       3.570  26.816  19.394  1.00  0.00     0.136 C 
BRANCH  13  14
HETATM   14  C1  UNL     1       4.149  27.605  18.244  1.00  0.00     0.140 C 
BRANCH  14  15
HETATM   15  N1  UNL     1       5.503  27.989  18.555  1.00  0.00    -0.194 NA
BRANCH  15  16
HETATM   16  O1  UNL     1       5.592  29.335  18.581  1.00  0.00    -0.313 OA
ATOM     17  H1  UNL     1       6.214  29.622  17.923  1.00  0.00     0.237 HD
ENDBRANCH  15  16
BRANCH  15  18
HETATM   18  C23 UNL     1       6.516  27.389  17.745  1.00  0.00     0.159 C 
BRANCH  18  19
HETATM   19  C24 UNL     1       7.288  26.412  18.545  1.00  0.00    -0.043 A 
HETATM   20  C25 UNL     1       6.837  25.107  18.665  1.00  0.00     0.008 A 
HETATM   21  C26 UNL     1       7.517  24.158  19.387  1.00  0.00     0.001 A 
HETATM   22  C27 UNL     1       8.691  24.499  20.022  1.00  0.00     0.000 A 
HETATM   23  C28 UNL     1       9.171  25.805  19.919  1.00  0.00     0.001 A 
HETATM   24  C29 UNL     1       8.455  26.730  19.181  1.00  0.00     0.008 A 
ENDBRANCH  18  19
ENDBRANCH  15  18
ENDBRANCH  14  15
ENDBRANCH  13  14
ENDBRANCH  11  13
ENDBRANCH   1  11
BRANCH   4  25
HETATM   25  C7  UNL     1       7.075  23.628  24.008  1.00  0.00     0.039 C 
BRANCH  25  26
HETATM   26  C8  UNL     1       6.125  22.956  24.968  1.00  0.00     0.005 C 
BRANCH  26  27
HETATM   27  C9  UNL     1       6.576  23.062  26.404  1.00  0.00     0.000 C 
BRANCH  27  28
HETATM   28  C10 UNL     1       6.982  24.462  26.698  1.00  0.00     0.000 C 
BRANCH  28  29
HETATM   29  C11 UNL     1       8.237  24.596  27.529  1.00  0.00     0.000 C 
BRANCH  29  30
HETATM   30  C12 UNL     1       9.341  23.762  26.978  1.00  0.00     0.006 C 
BRANCH  30  31
HETATM   31  C13 UNL     1      10.243  23.153  27.994  1.00  0.00     0.058 C 
BRANCH  31  32
HETATM   32  C14 UNL     1      10.139  21.697  28.142  1.00  0.00     0.025 A 
HETATM   33  C15 UNL     1      11.250  20.925  28.506  1.00  0.00     0.113 A 
HETATM   34  N3  UNL     1      10.885  19.650  28.563  1.00  0.00    -0.360 N 
HETATM   35  C16 UNL     1       9.582  19.600  28.246  1.00  0.00     0.180 A 
ATOM     36  H3  UNL     1      11.482  18.859  28.803  1.00  0.00     0.166 HD
HETATM   37  N4  UNL     1       9.129  20.840  27.990  1.00  0.00    -0.355 N 
ATOM     38  H4  UNL     1       8.174  21.084  27.724  1.00  0.00     0.166 HD
ENDBRANCH  31  32
ENDBRANCH  30  31
ENDBRANCH  29  30
ENDBRANCH  28  29
ENDBRANCH  27  28
ENDBRANCH  26  27
ENDBRANCH  25  26
ENDBRANCH   4  25
TORSDOF 15
ENDMDL
