MODEL 1
REMARK VINA RESULT: -8.245776051      0.000      0.000
REMARK  15 active torsions:
REMARK  status: ('A' for Active; 'I' for Inactive)
REMARK    1  A    between atoms: N1_1  and  N2_4 
REMARK    2  A    between atoms: C2_6  and  C3_7 
REMARK    3  A    between atoms: C3_7  and  C4_8 
REMARK    4  A    between atoms: C4_8  and  C5_9 
REMARK    5  A    between atoms: C5_9  and  C6_10 
REMARK    6  A    between atoms: C6_10  and  C7_11 
REMARK    7  A    between atoms: C7_11  and  O1_12 
REMARK    8  A    between atoms: C7_11  and  C8_14 
REMARK    9  A    between atoms: C8_14  and  C9_15 
REMARK   10  A    between atoms: C9_15  and  C10_16 
REMARK   11  A    between atoms: C10_16  and  C11_17 
REMARK   12  A    between atoms: C11_17  and  C12_18 
REMARK   13  A    between atoms: C12_18  and  C13_19 
REMARK   14  A    between atoms: C13_19  and  C14_20 
REMARK   15  A    between atoms: C20_29  and  C21_30 
ROOT
HETATM    1  C3  UNL     1       6.588  19.546  20.534  1.00  0.00     0.056 C 
ENDROOT
BRANCH   1   2
HETATM    2  C2  UNL     1       6.863  20.055  21.897  1.00  0.00     0.025 C 
HETATM    3  C1  UNL     1       8.126  19.933  22.644  1.00  0.00     0.170 C 
HETATM    4  N2  UNL     1       8.416  21.214  23.276  1.00  0.00    -0.201 NA
HETATM    5  C20 UNL     1       7.408  21.540  24.270  1.00  0.00     0.249 C 
HETATM    6  O2  UNL     1       6.117  21.136  23.805  1.00  0.00    -0.258 OA
HETATM    7  N3  UNL     1       5.897  20.679  22.556  1.00  0.00    -0.272 N 
ATOM      8  H3  UNL     1       4.986  20.813  22.119  1.00  0.00     0.193 HD
BRANCH   4   9
HETATM    9  N1  UNL     1       9.700  21.290  23.764  1.00  0.00    -0.361 NA
ATOM     10  H12 UNL     1      10.286  20.509  23.472  1.00  0.00     0.171 HD
ATOM     11  H11 UNL     1      10.151  22.181  23.554  1.00  0.00     0.171 HD
ENDBRANCH   4   9
BRANCH   5  12
HETATM   12  C21 UNL     1       7.397  23.017  24.604  1.00  0.00     0.033 C 
HETATM   13  C22 UNL     1       7.046  23.109  26.089  1.00  0.00     0.009 C 
HETATM   14  C23 UNL     1       7.983  24.080  26.749  1.00  0.00     0.001 C 
HETATM   15  C24 UNL     1       7.457  25.483  26.416  1.00  0.00     0.000 C 
HETATM   16  C25 UNL     1       8.207  26.144  25.332  1.00  0.00     0.000 C 
HETATM   17  C26 UNL     1       7.859  25.770  23.939  1.00  0.00     0.000 C 
HETATM   18  C27 UNL     1       6.510  25.205  23.719  1.00  0.00     0.001 C 
HETATM   19  C28 UNL     1       6.417  23.711  23.742  1.00  0.00     0.009 C 
ENDBRANCH   5  12
ENDBRANCH   1   2
BRANCH   1  20
HETATM   20  C4  UNL     1       6.718  20.516  19.428  1.00  0.00     0.006 C 
BRANCH  20  21
HETATM   21  C5  UNL     1       8.062  21.092  19.172  1.00  0.00     0.003 C 
BRANCH  21  22
HETATM   22  C6  UNL     1       8.023  22.596  18.985  1.00  0.00     0.032 C 
BRANCH  22  23
HETATM   23  C7  UNL     1       7.657  23.258  20.306  1.00  0.00     0.118 C 
BRANCH  23  24
HETATM   24  O1  UNL     1       8.650  23.218  21.245  1.00  0.00    -0.396 OA
ATOM     25  H1  UNL     1       8.491  23.771  22.002  1.00  0.00     0.210 HD
ENDBRANCH  23  24
BRANCH  23  26
HETATM   26  C8  UNL     1       7.073  24.617  20.050  1.00  0.00     0.032 C 
BRANCH  26  27
HETATM   27  C9  UNL     1       7.678  25.376  18.937  1.00  0.00     0.002 C 
BRANCH  27  28
HETATM   28  C10 UNL     1       8.585  26.501  19.281  1.00  0.00     0.000 C 
BRANCH  28  29
HETATM   29  C11 UNL     1       8.569  26.892  20.714  1.00  0.00     0.000 C 
BRANCH  29  30
HETATM   30  C12 UNL     1       8.248  28.310  20.986  1.00  0.00     0.005 C 
BRANCH  30  31
HETATM   31  C13 UNL     1       6.897  28.624  21.508  1.00  0.00     0.038 C 
BRANCH  31  32
HETATM   32  C14 UNL     1       5.803  28.159  20.582  1.00  0.00    -0.058 A 
HETATM   33  C15 UNL     1       4.850  27.259  20.925  1.00  0.00     0.007 A 
HETATM   34  C16 UNL     1       3.886  26.894  20.024  1.00  0.00     0.001 A 
HETATM   35  C17 UNL     1       3.823  27.401  18.747  1.00  0.00     0.000 A 
HETATM   36  C18 UNL     1       4.791  28.318  18.394  1.00  0.00     0.001 A 
HETATM   37  C19 UNL     1       5.760  28.690  19.288  1.00  0.00     0.007 A 
ENDBRANCH  31  32
ENDBRANCH  30  31
ENDBRANCH  29  30
ENDBRANCH  28  29
ENDBRANCH  27  28
ENDBRANCH  26  27
ENDBRANCH  23  26
ENDBRANCH  22  23
ENDBRANCH  21  22
ENDBRANCH  20  21
ENDBRANCH   1  20
TORSDOF 15
ENDMDL
MODEL 2
REMARK VINA RESULT: -8.075189327      3.467      6.092
REMARK  15 active torsions:
REMARK  status: ('A' for Active; 'I' for Inactive)
REMARK    1  A    between atoms: N1_1  and  N2_4 
REMARK    2  A    between atoms: C2_6  and  C3_7 
REMARK    3  A    between atoms: C3_7  and  C4_8 
REMARK    4  A    between atoms: C4_8  and  C5_9 
REMARK    5  A    between atoms: C5_9  and  C6_10 
REMARK    6  A    between atoms: C6_10  and  C7_11 
REMARK    7  A    between atoms: C7_11  and  O1_12 
REMARK    8  A    between atoms: C7_11  and  C8_14 
REMARK    9  A    between atoms: C8_14  and  C9_15 
REMARK   10  A    between atoms: C9_15  and  C10_16 
REMARK   11  A    between atoms: C10_16  and  C11_17 
REMARK   12  A    between atoms: C11_17  and  C12_18 
REMARK   13  A    between atoms: C12_18  and  C13_19 
REMARK   14  A    between atoms: C13_19  and  C14_20 
REMARK   15  A    between atoms: C20_29  and  C21_30 
ROOT
HETATM    1  C3  UNL     1       8.468  26.161  24.996  1.00  0.00     0.056 C 
ENDROOT
BRANCH   1   2
HETATM    2  C2  UNL     1       8.738  24.928  25.771  1.00  0.00     0.025 C 
HETATM    3  C1  UNL     1       8.828  23.558  25.241  1.00  0.00     0.170 C 
HETATM    4  N2  UNL     1       9.976  22.900  25.850  1.00  0.00    -0.201 NA
HETATM    5  C20 UNL     1       9.787  22.749  27.282  1.00  0.00     0.249 C 
HETATM    6  O2  UNL     1       9.139  23.909  27.812  1.00  0.00    -0.258 OA
HETATM    7  N3  UNL     1       8.909  25.019  27.082  1.00  0.00    -0.272 N 
ATOM      8  H3  UNL     1       8.866  25.929  27.540  1.00  0.00     0.193 HD
BRANCH   4   9
HETATM    9  N1  UNL     1      10.312  21.722  25.223  1.00  0.00    -0.361 NA
ATOM     10  H12 UNL     1      10.582  21.851  24.248  1.00  0.00     0.171 HD
ATOM     11  H11 UNL     1      11.022  21.192  25.729  1.00  0.00     0.171 HD
ENDBRANCH   4   9
BRANCH   5  12
HETATM   12  C21 UNL     1      11.097  22.515  28.006  1.00  0.00     0.033 C 
HETATM   13  C22 UNL     1      10.877  21.279  28.880  1.00  0.00     0.009 C 
HETATM   14  C23 UNL     1      12.055  20.360  28.723  1.00  0.00     0.001 C 
HETATM   15  C24 UNL     1      13.171  20.933  29.607  1.00  0.00     0.000 C 
HETATM   16  C25 UNL     1      14.189  21.682  28.847  1.00  0.00     0.000 C 
HETATM   17  C26 UNL     1      13.869  23.084  28.481  1.00  0.00     0.000 C 
HETATM   18  C27 UNL     1      12.853  23.771  29.307  1.00  0.00     0.001 C 
HETATM   19  C28 UNL     1      11.447  23.715  28.793  1.00  0.00     0.009 C 
ENDBRANCH   5  12
ENDBRANCH   1   2
BRANCH   1  20
HETATM   20  C4  UNL     1       7.714  25.997  23.736  1.00  0.00     0.006 C 
BRANCH  20  21
HETATM   21  C5  UNL     1       7.758  27.113  22.758  1.00  0.00     0.003 C 
BRANCH  21  22
HETATM   22  C6  UNL     1       6.384  27.682  22.464  1.00  0.00     0.032 C 
BRANCH  22  23
HETATM   23  C7  UNL     1       6.437  28.479  21.168  1.00  0.00     0.118 C 
BRANCH  23  24
HETATM   24  O1  UNL     1       6.617  29.822  21.345  1.00  0.00    -0.396 OA
ATOM     25  H1  UNL     1       6.250  30.160  22.153  1.00  0.00     0.210 HD
ENDBRANCH  23  24
BRANCH  23  26
HETATM   26  C8  UNL     1       7.389  27.827  20.207  1.00  0.00     0.032 C 
BRANCH  26  27
HETATM   27  C9  UNL     1       6.767  27.084  19.093  1.00  0.00     0.002 C 
BRANCH  27  28
HETATM   28  C10 UNL     1       7.518  25.935  18.525  1.00  0.00     0.000 C 
BRANCH  28  29
HETATM   29  C11 UNL     1       8.955  25.891  18.896  1.00  0.00     0.000 C 
BRANCH  29  30
HETATM   30  C12 UNL     1       9.411  24.645  19.548  1.00  0.00     0.005 C 
BRANCH  30  31
HETATM   31  C13 UNL     1       8.590  24.107  20.659  1.00  0.00     0.038 C 
BRANCH  31  32
HETATM   32  C14 UNL     1       7.965  22.780  20.320  1.00  0.00    -0.058 A 
HETATM   33  C15 UNL     1       7.906  22.266  19.067  1.00  0.00     0.007 A 
HETATM   34  C16 UNL     1       7.324  21.047  18.846  1.00  0.00     0.001 A 
HETATM   35  C17 UNL     1       6.775  20.285  19.850  1.00  0.00     0.000 A 
HETATM   36  C18 UNL     1       6.832  20.804  21.126  1.00  0.00     0.001 A 
HETATM   37  C19 UNL     1       7.413  22.023  21.360  1.00  0.00     0.007 A 
ENDBRANCH  31  32
ENDBRANCH  30  31
ENDBRANCH  29  30
ENDBRANCH  28  29
ENDBRANCH  27  28
ENDBRANCH  26  27
ENDBRANCH  23  26
ENDBRANCH  22  23
ENDBRANCH  21  22
ENDBRANCH  20  21
ENDBRANCH   1  20
TORSDOF 15
ENDMDL
MODEL 3
REMARK VINA RESULT: -8.029931623      3.723      5.889
REMARK  15 active torsions:
REMARK  status: ('A' for Active; 'I' for Inactive)
REMARK    1  A    between atoms: N1_1  and  N2_4 
REMARK    2  A    between atoms: C2_6  and  C3_7 
REMARK    3  A    between atoms: C3_7  and  C4_8 
REMARK    4  A    between atoms: C4_8  and  C5_9 
REMARK    5  A    between atoms: C5_9  and  C6_10 
REMARK    6  A    between atoms: C6_10  and  C7_11 
REMARK    7  A    between atoms: C7_11  and  O1_12 
REMARK    8  A    between atoms: C7_11  and  C8_14 
REMARK    9  A    between atoms: C8_14  and  C9_15 
REMARK   10  A    between atoms: C9_15  and  C10_16 
REMARK   11  A    between atoms: C10_16  and  C11_17 
REMARK   12  A    between atoms: C11_17  and  C12_18 
REMARK   13  A    between atoms: C12_18  and  C13_19 
REMARK   14  A    between atoms: C13_19  and  C14_20 
REMARK   15  A    between atoms: C20_29  and  C21_30 
ROOT
HETATM    1  C3  UNL     1       7.854  24.250  25.007  1.00  0.00     0.056 C 
ENDROOT
BRANCH   1   2
HETATM    2  C2  UNL     1       8.499  23.665  26.204  1.00  0.00     0.025 C 
HETATM    3  C1  UNL     1       8.447  22.257  26.633  1.00  0.00     0.170 C 
HETATM    4  N2  UNL     1       9.784  21.848  27.043  1.00  0.00    -0.201 NA
HETATM    5  C20 UNL     1      10.218  22.594  28.212  1.00  0.00     0.249 C 
HETATM    6  O2  UNL     1       9.776  23.951  28.115  1.00  0.00    -0.258 OA
HETATM    7  N3  UNL     1       9.194  24.456  27.010  1.00  0.00    -0.272 N 
ATOM      8  H3  UNL     1       9.287  25.448  26.793  1.00  0.00     0.193 HD
BRANCH   4   9
HETATM    9  N1  UNL     1       9.903  20.486  27.197  1.00  0.00    -0.361 NA
ATOM     10  H12 UNL     1       9.417  20.133  28.021  1.00  0.00     0.171 HD
ATOM     11  H11 UNL     1       9.627  19.968  26.362  1.00  0.00     0.171 HD
ENDBRANCH   4   9
BRANCH   5  12
HETATM   12  C21 UNL     1      11.722  22.552  28.386  1.00  0.00     0.033 C 
HETATM   13  C22 UNL     1      11.974  21.735  29.655  1.00  0.00     0.009 C 
HETATM   14  C23 UNL     1      13.071  20.746  29.383  1.00  0.00     0.001 C 
HETATM   15  C24 UNL     1      14.389  21.525  29.480  1.00  0.00     0.000 C 
HETATM   16  C25 UNL     1      14.955  21.878  28.164  1.00  0.00     0.000 C 
HETATM   17  C26 UNL     1      14.394  23.069  27.480  1.00  0.00     0.000 C 
HETATM   18  C27 UNL     1      13.729  24.075  28.336  1.00  0.00     0.001 C 
HETATM   19  C28 UNL     1      12.246  23.930  28.481  1.00  0.00     0.009 C 
ENDBRANCH   5  12
ENDBRANCH   1   2
BRANCH   1  20
HETATM   20  C4  UNL     1       7.490  25.679  25.084  1.00  0.00     0.006 C 
BRANCH  20  21
HETATM   21  C5  UNL     1       8.285  26.636  24.274  1.00  0.00     0.003 C 
BRANCH  21  22
HETATM   22  C6  UNL     1       7.844  26.677  22.825  1.00  0.00     0.032 C 
BRANCH  22  23
HETATM   23  C7  UNL     1       7.216  28.032  22.528  1.00  0.00     0.118 C 
BRANCH  23  24
HETATM   24  O1  UNL     1       8.086  28.950  22.010  1.00  0.00    -0.396 OA
ATOM     25  H1  UNL     1       8.279  28.825  21.088  1.00  0.00     0.210 HD
ENDBRANCH  23  24
BRANCH  23  26
HETATM   26  C8  UNL     1       5.945  27.844  21.750  1.00  0.00     0.032 C 
BRANCH  26  27
HETATM   27  C9  UNL     1       5.426  26.463  21.694  1.00  0.00     0.002 C 
BRANCH  27  28
HETATM   28  C10 UNL     1       4.254  26.202  20.818  1.00  0.00     0.000 C 
BRANCH  28  29
HETATM   29  C11 UNL     1       4.114  27.140  19.676  1.00  0.00     0.000 C 
BRANCH  29  30
HETATM   30  C12 UNL     1       4.617  26.645  18.376  1.00  0.00     0.005 C 
BRANCH  30  31
HETATM   31  C13 UNL     1       5.936  27.139  17.913  1.00  0.00     0.038 C 
BRANCH  31  32
HETATM   32  C14 UNL     1       7.079  26.348  18.492  1.00  0.00    -0.058 A 
HETATM   33  C15 UNL     1       8.225  26.902  18.960  1.00  0.00     0.007 A 
HETATM   34  C16 UNL     1       9.215  26.110  19.478  1.00  0.00     0.001 A 
HETATM   35  C17 UNL     1       9.117  24.741  19.553  1.00  0.00     0.000 A 
HETATM   36  C18 UNL     1       7.953  24.173  19.078  1.00  0.00     0.001 A 
HETATM   37  C19 UNL     1       6.955  24.956  18.559  1.00  0.00     0.007 A 
ENDBRANCH  31  32
ENDBRANCH  30  31
ENDBRANCH  29  30
ENDBRANCH  28  29
ENDBRANCH  27  28
ENDBRANCH  26  27
ENDBRANCH  23  26
ENDBRANCH  22  23
ENDBRANCH  21  22
ENDBRANCH  20  21
ENDBRANCH   1  20
TORSDOF 15
ENDMDL
MODEL 4
REMARK VINA RESULT: -7.906702035      2.822      7.225
REMARK  15 active torsions:
REMARK  status: ('A' for Active; 'I' for Inactive)
REMARK    1  A    between atoms: N1_1  and  N2_4 
REMARK    2  A    between atoms: C2_6  and  C3_7 
REMARK    3  A    between atoms: C3_7  and  C4_8 
REMARK    4  A    between atoms: C4_8  and  C5_9 
REMARK    5  A    between atoms: C5_9  and  C6_10 
REMARK    6  A    between atoms: C6_10  and  C7_11 
REMARK    7  A    between atoms: C7_11  and  O1_12 
REMARK    8  A    between atoms: C7_11  and  C8_14 
REMARK    9  A    between atoms: C8_14  and  C9_15 
REMARK   10  A    between atoms: C9_15  and  C10_16 
REMARK   11  A    between atoms: C10_16  and  C11_17 
REMARK   12  A    between atoms: C11_17  and  C12_18 
REMARK   13  A    between atoms: C12_18  and  C13_19 
REMARK   14  A    between atoms: C13_19  and  C14_20 
REMARK   15  A    between atoms: C20_29  and  C21_30 
ROOT
HETATM    1  C3  UNL     1       8.476  25.193  24.590  1.00  0.00     0.056 C 
ENDROOT
BRANCH   1   2
HETATM    2  C2  UNL     1       7.636  26.185  23.880  1.00  0.00     0.025 C 
HETATM    3  C1  UNL     1       8.011  27.564  23.528  1.00  0.00     0.170 C 
HETATM    4  N2  UNL     1       7.579  27.827  22.162  1.00  0.00    -0.201 NA
HETATM    5  C20 UNL     1       6.131  27.782  22.059  1.00  0.00     0.249 C 
HETATM    6  O2  UNL     1       5.617  26.735  22.887  1.00  0.00    -0.258 OA
HETATM    7  N3  UNL     1       6.407  25.844  23.519  1.00  0.00    -0.272 N 
ATOM      8  H3  UNL     1       6.059  24.907  23.719  1.00  0.00     0.193 HD
BRANCH   4   9
HETATM    9  N1  UNL     1       8.121  28.981  21.642  1.00  0.00    -0.361 NA
ATOM     10  H12 UNL     1       9.140  28.958  21.595  1.00  0.00     0.171 HD
ATOM     11  H11 UNL     1       7.721  29.235  20.739  1.00  0.00     0.171 HD
ENDBRANCH   4   9
BRANCH   5  12
HETATM   12  C21 UNL     1       5.670  27.583  20.630  1.00  0.00     0.033 C 
HETATM   13  C22 UNL     1       4.399  26.736  20.714  1.00  0.00     0.009 C 
HETATM   14  C23 UNL     1       3.356  27.338  19.816  1.00  0.00     0.001 C 
HETATM   15  C24 UNL     1       3.703  26.889  18.390  1.00  0.00     0.000 C 
HETATM   16  C25 UNL     1       4.382  27.933  17.600  1.00  0.00     0.000 C 
HETATM   17  C26 UNL     1       5.841  28.107  17.814  1.00  0.00     0.000 C 
HETATM   18  C27 UNL     1       6.574  26.947  18.364  1.00  0.00     0.001 C 
HETATM   19  C28 UNL     1       6.742  26.927  19.852  1.00  0.00     0.009 C 
ENDBRANCH   5  12
ENDBRANCH   1   2
BRANCH   1  20
HETATM   20  C4  UNL     1       8.609  25.365  26.051  1.00  0.00     0.006 C 
BRANCH  20  21
HETATM   21  C5  UNL     1       7.602  24.703  26.917  1.00  0.00     0.003 C 
BRANCH  21  22
HETATM   22  C6  UNL     1       8.234  23.916  28.047  1.00  0.00     0.032 C 
BRANCH  22  23
HETATM   23  C7  UNL     1       9.608  23.424  27.611  1.00  0.00     0.118 C 
BRANCH  23  24
HETATM   24  O1  UNL     1      10.603  23.673  28.513  1.00  0.00    -0.396 OA
ATOM     25  H1  UNL     1      10.830  24.591  28.598  1.00  0.00     0.210 HD
ENDBRANCH  23  24
BRANCH  23  26
HETATM   26  C8  UNL     1       9.512  22.003  27.138  1.00  0.00     0.032 C 
BRANCH  26  27
HETATM   27  C9  UNL     1      10.066  21.734  25.796  1.00  0.00     0.002 C 
BRANCH  27  28
HETATM   28  C10 UNL     1       9.106  21.520  24.682  1.00  0.00     0.000 C 
BRANCH  28  29
HETATM   29  C11 UNL     1       7.682  21.458  25.097  1.00  0.00     0.000 C 
BRANCH  29  30
HETATM   30  C12 UNL     1       6.709  21.207  24.012  1.00  0.00     0.005 C 
BRANCH  30  31
HETATM   31  C13 UNL     1       6.322  22.352  23.154  1.00  0.00     0.038 C 
BRANCH  31  32
HETATM   32  C14 UNL     1       6.817  22.202  21.740  1.00  0.00    -0.058 A 
HETATM   33  C15 UNL     1       6.820  21.032  21.056  1.00  0.00     0.007 A 
HETATM   34  C16 UNL     1       7.283  20.983  19.769  1.00  0.00     0.001 A 
HETATM   35  C17 UNL     1       7.764  22.086  19.103  1.00  0.00     0.000 A 
HETATM   36  C18 UNL     1       7.764  23.279  19.795  1.00  0.00     0.001 A 
HETATM   37  C19 UNL     1       7.302  23.339  21.084  1.00  0.00     0.007 A 
ENDBRANCH  31  32
ENDBRANCH  30  31
ENDBRANCH  29  30
ENDBRANCH  28  29
ENDBRANCH  27  28
ENDBRANCH  26  27
ENDBRANCH  23  26
ENDBRANCH  22  23
ENDBRANCH  21  22
ENDBRANCH  20  21
ENDBRANCH   1  20
TORSDOF 15
ENDMDL
MODEL 5
REMARK VINA RESULT: -7.851383604      3.749      6.027
REMARK  15 active torsions:
REMARK  status: ('A' for Active; 'I' for Inactive)
REMARK    1  A    between atoms: N1_1  and  N2_4 
REMARK    2  A    between atoms: C2_6  and  C3_7 
REMARK    3  A    between atoms: C3_7  and  C4_8 
REMARK    4  A    between atoms: C4_8  and  C5_9 
REMARK    5  A    between atoms: C5_9  and  C6_10 
REMARK    6  A    between atoms: C6_10  and  C7_11 
REMARK    7  A    between atoms: C7_11  and  O1_12 
REMARK    8  A    between atoms: C7_11  and  C8_14 
REMARK    9  A    between atoms: C8_14  and  C9_15 
REMARK   10  A    between atoms: C9_15  and  C10_16 
REMARK   11  A    between atoms: C10_16  and  C11_17 
REMARK   12  A    between atoms: C11_17  and  C12_18 
REMARK   13  A    between atoms: C12_18  and  C13_19 
REMARK   14  A    between atoms: C13_19  and  C14_20 
REMARK   15  A    between atoms: C20_29  and  C21_30 
ROOT
HETATM    1  C3  UNL     1       7.975  24.544  24.989  1.00  0.00     0.056 C 
ENDROOT
BRANCH   1   2
HETATM    2  C2  UNL     1       8.577  23.861  26.156  1.00  0.00     0.025 C 
HETATM    3  C1  UNL     1       8.513  22.423  26.465  1.00  0.00     0.170 C 
HETATM    4  N2  UNL     1       9.835  21.981  26.888  1.00  0.00    -0.201 NA
HETATM    5  C20 UNL     1      10.224  22.626  28.130  1.00  0.00     0.249 C 
HETATM    6  O2  UNL     1       9.782  23.987  28.130  1.00  0.00    -0.258 OA
HETATM    7  N3  UNL     1       9.240  24.582  27.050  1.00  0.00    -0.272 N 
ATOM      8  H3  UNL     1       9.339  25.589  26.920  1.00  0.00     0.193 HD
BRANCH   4   9
HETATM    9  N1  UNL     1       9.952  20.610  26.932  1.00  0.00    -0.361 NA
ATOM     10  H12 UNL     1       9.265  20.132  26.349  1.00  0.00     0.171 HD
ATOM     11  H11 UNL     1      10.896  20.286  26.722  1.00  0.00     0.171 HD
ENDBRANCH   4   9
BRANCH   5  12
HETATM   12  C21 UNL     1      11.721  22.569  28.355  1.00  0.00     0.033 C 
HETATM   13  C22 UNL     1      11.923  21.724  29.614  1.00  0.00     0.009 C 
HETATM   14  C23 UNL     1      13.023  20.732  29.358  1.00  0.00     0.001 C 
HETATM   15  C24 UNL     1      14.342  21.499  29.518  1.00  0.00     0.000 C 
HETATM   16  C25 UNL     1      14.956  21.876  28.230  1.00  0.00     0.000 C 
HETATM   17  C26 UNL     1      14.427  23.086  27.553  1.00  0.00     0.000 C 
HETATM   18  C27 UNL     1      13.739  24.078  28.407  1.00  0.00     0.001 C 
HETATM   19  C28 UNL     1      12.251  23.941  28.499  1.00  0.00     0.009 C 
ENDBRANCH   5  12
ENDBRANCH   1   2
BRANCH   1  20
HETATM   20  C4  UNL     1       8.220  25.996  24.874  1.00  0.00     0.006 C 
BRANCH  20  21
HETATM   21  C5  UNL     1       7.918  26.644  23.573  1.00  0.00     0.003 C 
BRANCH  21  22
HETATM   22  C6  UNL     1       6.487  26.416  23.128  1.00  0.00     0.032 C 
BRANCH  22  23
HETATM   23  C7  UNL     1       5.932  27.706  22.540  1.00  0.00     0.118 C 
BRANCH  23  24
HETATM   24  O1  UNL     1       6.828  28.737  22.507  1.00  0.00    -0.396 OA
ATOM     25  H1  UNL     1       6.558  29.470  21.967  1.00  0.00     0.210 HD
ENDBRANCH  23  24
BRANCH  23  26
HETATM   26  C8  UNL     1       5.241  27.416  21.239  1.00  0.00     0.032 C 
BRANCH  26  27
HETATM   27  C9  UNL     1       5.707  26.214  20.519  1.00  0.00     0.002 C 
BRANCH  27  28
HETATM   28  C10 UNL     1       5.714  26.258  19.034  1.00  0.00     0.000 C 
BRANCH  28  29
HETATM   29  C11 UNL     1       7.049  26.488  18.427  1.00  0.00     0.000 C 
BRANCH  29  30
HETATM   30  C12 UNL     1       8.194  26.437  19.362  1.00  0.00     0.005 C 
BRANCH  30  31
HETATM   31  C13 UNL     1       9.130  25.293  19.244  1.00  0.00     0.038 C 
BRANCH  31  32
HETATM   32  C14 UNL     1       8.621  24.061  19.945  1.00  0.00    -0.058 A 
HETATM   33  C15 UNL     1       8.667  23.878  21.287  1.00  0.00     0.007 A 
HETATM   34  C16 UNL     1       8.176  22.728  21.846  1.00  0.00     0.001 A 
HETATM   35  C17 UNL     1       7.621  21.712  21.104  1.00  0.00     0.000 A 
HETATM   36  C18 UNL     1       7.573  21.894  19.738  1.00  0.00     0.001 A 
HETATM   37  C19 UNL     1       8.061  23.042  19.168  1.00  0.00     0.007 A 
ENDBRANCH  31  32
ENDBRANCH  30  31
ENDBRANCH  29  30
ENDBRANCH  28  29
ENDBRANCH  27  28
ENDBRANCH  26  27
ENDBRANCH  23  26
ENDBRANCH  22  23
ENDBRANCH  21  22
ENDBRANCH  20  21
ENDBRANCH   1  20
TORSDOF 15
ENDMDL
