MODEL 1
REMARK VINA RESULT: -10.129218072      0.000      0.000
REMARK  17 active torsions:
REMARK  status: ('A' for Active; 'I' for Inactive)
REMARK    1  A    between atoms: N1_1  and  C1_4 
REMARK    2  A    between atoms: C2_7  and  N3_8 
REMARK    3  A    between atoms: N3_8  and  C3_10 
REMARK    4  A    between atoms: C3_10  and  C4_11 
REMARK    5  A    between atoms: C10_20  and  N6_21 
REMARK    6  A    between atoms: N6_21  and  C11_23 
REMARK    7  A    between atoms: C14_26  and  C15_27 
REMARK    8  A    between atoms: C15_27  and  C16_28 
REMARK    9  A    between atoms: C16_28  and  C17_29 
REMARK   10  A    between atoms: C17_29  and  C18_30 
REMARK   11  A    between atoms: C18_30  and  O1_31 
REMARK   12  A    between atoms: O1_31  and  C19_32 
REMARK   13  A    between atoms: C19_32  and  C20_33 
REMARK       I    between atoms: C20_33  and  N7_35 
REMARK   14  A    between atoms: N7_35  and  C21_37 
REMARK   15  A    between atoms: C24_42  and  C25_43 
REMARK   16  A    between atoms: C25_43  and  O3_44 
REMARK   17  A    between atoms: C25_43  and  O4_46 
ROOT
HETATM    1  C11 UNL     1      86.190  33.529  43.534  1.00  0.00     0.049 A 
HETATM    2  C12 UNL     1      85.175  33.530  44.464  1.00  0.00     0.030 A 
HETATM    3  C13 UNL     1      85.410  33.102  45.777  1.00  0.00     0.009 A 
HETATM    4  C14 UNL     1      86.653  32.674  46.158  1.00  0.00    -0.058 A 
HETATM    5  C27 UNL     1      87.673  32.667  45.244  1.00  0.00     0.009 A 
HETATM    6  C28 UNL     1      87.432  33.091  43.953  1.00  0.00     0.030 A 
ENDROOT
BRANCH   1   7
HETATM    7  N6  UNL     1      85.998  33.958  42.195  1.00  0.00    -0.191 N 
ATOM      8  H6  UNL     1      86.661  34.612  41.779  1.00  0.00     0.184 HD
BRANCH   7   9
HETATM    9  C10 UNL     1      85.010  33.541  41.503  1.00  0.00     0.711 A 
HETATM   10  N5  UNL     1      84.338  34.378  40.700  1.00  0.00    -0.021 N 
HETATM   11  C2  UNL     1      83.289  33.981  39.959  1.00  0.00     0.707 A 
ATOM     12  H5  UNL     1      84.635  35.353  40.648  1.00  0.00     0.203 HD
HETATM   13  N2  UNL     1      82.912  32.697  40.037  1.00  0.00    -0.022 N 
HETATM   14  C1  UNL     1      83.555  31.829  40.824  1.00  0.00     0.705 A 
ATOM     15  H2  UNL     1      82.118  32.375  39.484  1.00  0.00     0.203 HD
HETATM   16  N9  UNL     1      84.616  32.261  41.565  1.00  0.00    -0.021 N 
ATOM     17  H9  UNL     1      85.113  31.606  42.170  1.00  0.00     0.203 HD
BRANCH  11  18
HETATM   18  N3  UNL     1      82.697  34.845  39.214  1.00  0.00    -0.221 N 
ATOM     19  H3  UNL     1      83.064  35.041  38.283  1.00  0.00     0.178 HD
BRANCH  18  20
HETATM   20  C3  UNL     1      81.517  35.544  39.674  1.00  0.00     0.176 C 
BRANCH  20  21
HETATM   21  C4  UNL     1      81.703  37.011  39.585  1.00  0.00    -0.040 A 
HETATM   22  C5  UNL     1      81.505  37.632  38.391  1.00  0.00     0.011 A 
HETATM   23  C6  UNL     1      81.660  38.986  38.246  1.00  0.00     0.027 A 
HETATM   24  C7  UNL     1      82.026  39.709  39.351  1.00  0.00     0.046 A 
HETATM   25  N4  UNL     1      82.196  41.115  39.232  1.00  0.00    -0.102 NA
HETATM   26  C8  UNL     1      82.230  39.100  40.555  1.00  0.00     0.027 A 
HETATM   27  C9  UNL     1      82.067  37.729  40.679  1.00  0.00     0.011 A 
ENDBRANCH  20  21
ENDBRANCH  18  20
ENDBRANCH  11  18
BRANCH  14  28
HETATM   28  N1  UNL     1      83.161  30.605  40.870  1.00  0.00    -0.234 N 
ATOM     29  H12 UNL     1      82.398  30.317  41.482  1.00  0.00     0.174 HD
ATOM     30  H11 UNL     1      83.619  29.908  40.282  1.00  0.00     0.174 HD
ENDBRANCH  14  28
ENDBRANCH   7   9
ENDBRANCH   1   7
BRANCH   4  31
HETATM   31  C15 UNL     1      86.898  32.228  47.536  1.00  0.00     0.038 C 
BRANCH  31  32
HETATM   32  C16 UNL     1      86.345  33.238  48.515  1.00  0.00     0.007 C 
BRANCH  32  33
HETATM   33  C17 UNL     1      87.258  33.510  49.677  1.00  0.00     0.027 C 
BRANCH  33  34
HETATM   34  C18 UNL     1      88.686  33.411  49.143  1.00  0.00     0.168 C 
BRANCH  34  35
HETATM   35  O1  UNL     1      89.187  34.602  48.713  1.00  0.00    -0.382 OA
BRANCH  35  36
HETATM   36  C19 UNL     1      89.915  34.620  47.565  1.00  0.00     0.270 C 
BRANCH  36  37
HETATM   37  C20 UNL     1      89.949  35.893  46.844  1.00  0.00     0.245 C 
HETATM   38  O2  UNL     1      90.344  36.906  47.521  1.00  0.00    -0.271 OA
HETATM   39  N7  UNL     1      89.608  36.146  45.517  1.00  0.00    -0.325 N 
ATOM     40  H7  UNL     1      88.639  36.417  45.350  1.00  0.00     0.169 HD
BRANCH  39  41
HETATM   41  C21 UNL     1      90.354  36.082  44.485  1.00  0.00     0.038 A 
HETATM   42  C22 UNL     1      91.674  36.489  44.591  1.00  0.00     0.046 A 
HETATM   43  C23 UNL     1      92.509  36.432  43.483  1.00  0.00     0.090 A 
HETATM   44  N8  UNL     1      92.079  35.984  42.277  1.00  0.00    -0.365 N 
HETATM   45  C24 UNL     1      90.800  35.585  42.159  1.00  0.00     0.066 A 
ATOM     46  H8  UNL     1      92.711  35.951  41.477  1.00  0.00     0.165 HD
HETATM   47  C26 UNL     1      89.943  35.631  43.246  1.00  0.00     0.059 A 
BRANCH  45  48
HETATM   48  C25 UNL     1      90.312  35.091  40.843  1.00  0.00     0.305 C 
BRANCH  48  49
HETATM   49  O3  UNL     1      88.970  34.725  40.952  1.00  0.00    -0.366 OA
ATOM     50  H3  UNL     1      88.429  35.371  40.513  1.00  0.00     0.213 HD
ENDBRANCH  48  49
BRANCH  48  51
HETATM   51  O4  UNL     1      90.526  36.007  39.831  1.00  0.00    -0.366 OA
ATOM     52  H4  UNL     1      89.827  36.647  39.773  1.00  0.00     0.213 HD
ENDBRANCH  48  51
ENDBRANCH  45  48
ENDBRANCH  39  41
ENDBRANCH  36  37
ENDBRANCH  35  36
ENDBRANCH  34  35
ENDBRANCH  33  34
ENDBRANCH  32  33
ENDBRANCH  31  32
ENDBRANCH   4  31
TORSDOF 17
ENDMDL
MODEL 2
REMARK VINA RESULT: -9.742005852      2.814      5.595
REMARK  17 active torsions:
REMARK  status: ('A' for Active; 'I' for Inactive)
REMARK    1  A    between atoms: N1_1  and  C1_4 
REMARK    2  A    between atoms: C2_7  and  N3_8 
REMARK    3  A    between atoms: N3_8  and  C3_10 
REMARK    4  A    between atoms: C3_10  and  C4_11 
REMARK    5  A    between atoms: C10_20  and  N6_21 
REMARK    6  A    between atoms: N6_21  and  C11_23 
REMARK    7  A    between atoms: C14_26  and  C15_27 
REMARK    8  A    between atoms: C15_27  and  C16_28 
REMARK    9  A    between atoms: C16_28  and  C17_29 
REMARK   10  A    between atoms: C17_29  and  C18_30 
REMARK   11  A    between atoms: C18_30  and  O1_31 
REMARK   12  A    between atoms: O1_31  and  C19_32 
REMARK   13  A    between atoms: C19_32  and  C20_33 
REMARK       I    between atoms: C20_33  and  N7_35 
REMARK   14  A    between atoms: N7_35  and  C21_37 
REMARK   15  A    between atoms: C24_42  and  C25_43 
REMARK   16  A    between atoms: C25_43  and  O3_44 
REMARK   17  A    between atoms: C25_43  and  O4_46 
ROOT
HETATM    1  C11 UNL     1      85.412  33.936  42.457  1.00  0.00     0.049 A 
HETATM    2  C12 UNL     1      86.784  33.880  42.559  1.00  0.00     0.030 A 
HETATM    3  C13 UNL     1      87.397  33.610  43.790  1.00  0.00     0.009 A 
HETATM    4  C14 UNL     1      86.643  33.401  44.913  1.00  0.00    -0.058 A 
HETATM    5  C27 UNL     1      85.277  33.455  44.827  1.00  0.00     0.009 A 
HETATM    6  C28 UNL     1      84.682  33.720  43.611  1.00  0.00     0.030 A 
ENDROOT
BRANCH   1   7
HETATM    7  N6  UNL     1      84.750  34.201  41.231  1.00  0.00    -0.191 N 
ATOM      8  H6  UNL     1      85.168  34.852  40.567  1.00  0.00     0.184 HD
BRANCH   7   9
HETATM    9  C10 UNL     1      83.640  33.639  40.944  1.00  0.00     0.711 A 
HETATM   10  N5  UNL     1      83.561  32.306  40.828  1.00  0.00    -0.021 N 
HETATM   11  C2  UNL     1      82.414  31.676  40.520  1.00  0.00     0.707 A 
ATOM     12  H5  UNL     1      84.402  31.749  40.979  1.00  0.00     0.203 HD
HETATM   13  N2  UNL     1      81.318  32.422  40.325  1.00  0.00    -0.022 N 
HETATM   14  C1  UNL     1      81.352  33.753  40.432  1.00  0.00     0.705 A 
ATOM     15  H2  UNL     1      80.437  31.964  40.090  1.00  0.00     0.203 HD
HETATM   16  N9  UNL     1      82.531  34.366  40.745  1.00  0.00    -0.021 N 
ATOM     17  H9  UNL     1      82.568  35.382  40.829  1.00  0.00     0.203 HD
BRANCH  11  18
HETATM   18  N3  UNL     1      82.420  30.393  40.426  1.00  0.00    -0.221 N 
ATOM     19  H3  UNL     1      82.322  29.828  41.269  1.00  0.00     0.178 HD
BRANCH  18  20
HETATM   20  C3  UNL     1      82.564  29.739  39.145  1.00  0.00     0.176 C 
BRANCH  20  21
HETATM   21  C4  UNL     1      81.843  28.446  39.127  1.00  0.00    -0.040 A 
HETATM   22  C5  UNL     1      80.882  28.238  38.187  1.00  0.00     0.011 A 
HETATM   23  C6  UNL     1      80.180  27.062  38.119  1.00  0.00     0.027 A 
HETATM   24  C7  UNL     1      80.476  26.087  39.035  1.00  0.00     0.046 A 
HETATM   25  N4  UNL     1      79.765  24.857  38.990  1.00  0.00    -0.102 NA
HETATM   26  C8  UNL     1      81.437  26.282  39.985  1.00  0.00     0.027 A 
HETATM   27  C9  UNL     1      82.134  27.479  40.035  1.00  0.00     0.011 A 
ENDBRANCH  20  21
ENDBRANCH  18  20
ENDBRANCH  11  18
BRANCH  14  28
HETATM   28  N1  UNL     1      80.277  34.432  40.238  1.00  0.00    -0.234 N 
ATOM     29  H12 UNL     1      79.544  34.095  39.613  1.00  0.00     0.174 HD
ATOM     30  H11 UNL     1      80.153  35.324  40.717  1.00  0.00     0.174 HD
ENDBRANCH  14  28
ENDBRANCH   7   9
ENDBRANCH   1   7
BRANCH   4  31
HETATM   31  C15 UNL     1      87.288  33.117  46.201  1.00  0.00     0.038 C 
BRANCH  31  32
HETATM   32  C16 UNL     1      88.750  33.499  46.147  1.00  0.00     0.007 C 
BRANCH  32  33
HETATM   33  C17 UNL     1      89.136  34.538  47.161  1.00  0.00     0.027 C 
BRANCH  33  34
HETATM   34  C18 UNL     1      90.474  34.096  47.751  1.00  0.00     0.168 C 
BRANCH  34  35
HETATM   35  O1  UNL     1      91.457  35.030  47.620  1.00  0.00    -0.382 OA
BRANCH  35  36
HETATM   36  C19 UNL     1      91.120  36.260  47.147  1.00  0.00     0.270 C 
BRANCH  36  37
HETATM   37  C20 UNL     1      91.708  36.638  45.862  1.00  0.00     0.245 C 
HETATM   38  O2  UNL     1      92.910  37.077  45.907  1.00  0.00    -0.271 OA
HETATM   39  N7  UNL     1      91.130  36.584  44.596  1.00  0.00    -0.325 N 
ATOM     40  H7  UNL     1      90.649  37.429  44.289  1.00  0.00     0.169 HD
BRANCH  39  41
HETATM   41  C21 UNL     1      91.126  35.611  43.772  1.00  0.00     0.038 A 
HETATM   42  C22 UNL     1      91.486  34.353  44.225  1.00  0.00     0.046 A 
HETATM   43  C23 UNL     1      91.492  33.274  43.350  1.00  0.00     0.090 A 
HETATM   44  N8  UNL     1      91.153  33.403  42.043  1.00  0.00    -0.365 N 
HETATM   45  C24 UNL     1      90.801  34.619  41.588  1.00  0.00     0.066 A 
ATOM     46  H8  UNL     1      91.164  32.597  41.419  1.00  0.00     0.165 HD
HETATM   47  C26 UNL     1      90.786  35.714  42.437  1.00  0.00     0.059 A 
BRANCH  45  48
HETATM   48  C25 UNL     1      90.426  34.779  40.157  1.00  0.00     0.305 C 
BRANCH  48  49
HETATM   49  O3  UNL     1      90.671  36.093  39.755  1.00  0.00    -0.366 OA
ATOM     50  H3  UNL     1      89.846  36.531  39.584  1.00  0.00     0.213 HD
ENDBRANCH  48  49
BRANCH  48  51
HETATM   51  O4  UNL     1      91.058  33.856  39.347  1.00  0.00    -0.366 OA
ATOM     52  H4  UNL     1      91.231  34.201  38.479  1.00  0.00     0.213 HD
ENDBRANCH  48  51
ENDBRANCH  45  48
ENDBRANCH  39  41
ENDBRANCH  36  37
ENDBRANCH  35  36
ENDBRANCH  34  35
ENDBRANCH  33  34
ENDBRANCH  32  33
ENDBRANCH  31  32
ENDBRANCH   4  31
TORSDOF 17
ENDMDL
MODEL 3
REMARK VINA RESULT: -9.695018494      2.044      4.324
REMARK  17 active torsions:
REMARK  status: ('A' for Active; 'I' for Inactive)
REMARK    1  A    between atoms: N1_1  and  C1_4 
REMARK    2  A    between atoms: C2_7  and  N3_8 
REMARK    3  A    between atoms: N3_8  and  C3_10 
REMARK    4  A    between atoms: C3_10  and  C4_11 
REMARK    5  A    between atoms: C10_20  and  N6_21 
REMARK    6  A    between atoms: N6_21  and  C11_23 
REMARK    7  A    between atoms: C14_26  and  C15_27 
REMARK    8  A    between atoms: C15_27  and  C16_28 
REMARK    9  A    between atoms: C16_28  and  C17_29 
REMARK   10  A    between atoms: C17_29  and  C18_30 
REMARK   11  A    between atoms: C18_30  and  O1_31 
REMARK   12  A    between atoms: O1_31  and  C19_32 
REMARK   13  A    between atoms: C19_32  and  C20_33 
REMARK       I    between atoms: C20_33  and  N7_35 
REMARK   14  A    between atoms: N7_35  and  C21_37 
REMARK   15  A    between atoms: C24_42  and  C25_43 
REMARK   16  A    between atoms: C25_43  and  O3_44 
REMARK   17  A    between atoms: C25_43  and  O4_46 
ROOT
HETATM    1  C11 UNL     1      86.474  32.618  42.192  1.00  0.00     0.049 A 
HETATM    2  C12 UNL     1      87.607  31.977  41.742  1.00  0.00     0.030 A 
HETATM    3  C13 UNL     1      88.805  32.683  41.571  1.00  0.00     0.009 A 
HETATM    4  C14 UNL     1      88.870  34.022  41.846  1.00  0.00    -0.058 A 
HETATM    5  C27 UNL     1      87.751  34.673  42.293  1.00  0.00     0.009 A 
HETATM    6  C28 UNL     1      86.576  33.970  42.460  1.00  0.00     0.030 A 
ENDROOT
BRANCH   1   7
HETATM    7  N6  UNL     1      85.242  31.942  42.384  1.00  0.00    -0.191 N 
ATOM      8  H6  UNL     1      85.093  31.406  43.239  1.00  0.00     0.184 HD
BRANCH   7   9
HETATM    9  C10 UNL     1      84.315  31.993  41.507  1.00  0.00     0.711 A 
HETATM   10  N5  UNL     1      83.973  33.161  40.945  1.00  0.00    -0.021 N 
HETATM   11  C2  UNL     1      82.999  33.259  40.023  1.00  0.00     0.707 A 
ATOM     12  H5  UNL     1      84.470  34.006  41.226  1.00  0.00     0.203 HD
HETATM   13  N2  UNL     1      82.356  32.139  39.664  1.00  0.00    -0.022 N 
HETATM   14  C1  UNL     1      82.666  30.956  40.199  1.00  0.00     0.705 A 
ATOM     15  H2  UNL     1      81.613  32.192  38.967  1.00  0.00     0.203 HD
HETATM   16  N9  UNL     1      83.659  30.886  41.133  1.00  0.00    -0.021 N 
ATOM     17  H9  UNL     1      83.903  29.986  41.549  1.00  0.00     0.203 HD
BRANCH  11  18
HETATM   18  N3  UNL     1      82.729  34.416  39.531  1.00  0.00    -0.221 N 
ATOM     19  H3  UNL     1      83.372  34.838  38.861  1.00  0.00     0.178 HD
BRANCH  18  20
HETATM   20  C3  UNL     1      81.530  35.129  39.911  1.00  0.00     0.176 C 
BRANCH  20  21
HETATM   21  C4  UNL     1      81.714  36.591  39.764  1.00  0.00    -0.040 A 
HETATM   22  C5  UNL     1      81.462  37.171  38.560  1.00  0.00     0.011 A 
HETATM   23  C6  UNL     1      81.612  38.519  38.362  1.00  0.00     0.027 A 
HETATM   24  C7  UNL     1      82.031  39.278  39.423  1.00  0.00     0.046 A 
HETATM   25  N4  UNL     1      82.197  40.679  39.248  1.00  0.00    -0.102 NA
HETATM   26  C8  UNL     1      82.289  38.710  40.637  1.00  0.00     0.027 A 
HETATM   27  C9  UNL     1      82.130  37.345  40.815  1.00  0.00     0.011 A 
ENDBRANCH  20  21
ENDBRANCH  18  20
ENDBRANCH  11  18
BRANCH  14  28
HETATM   28  N1  UNL     1      82.024  29.905  39.827  1.00  0.00    -0.234 N 
ATOM     29  H12 UNL     1      81.093  29.698  40.187  1.00  0.00     0.174 HD
ATOM     30  H11 UNL     1      82.453  29.265  39.157  1.00  0.00     0.174 HD
ENDBRANCH  14  28
ENDBRANCH   7   9
ENDBRANCH   1   7
BRANCH   4  31
HETATM   31  C15 UNL     1      90.128  34.759  41.668  1.00  0.00     0.038 C 
BRANCH  31  32
HETATM   32  C16 UNL     1      90.046  36.102  42.357  1.00  0.00     0.007 C 
BRANCH  32  33
HETATM   33  C17 UNL     1      90.984  36.236  43.523  1.00  0.00     0.027 C 
BRANCH  33  34
HETATM   34  C18 UNL     1      90.438  37.365  44.396  1.00  0.00     0.168 C 
BRANCH  34  35
HETATM   35  O1  UNL     1      91.272  37.711  45.416  1.00  0.00    -0.382 OA
BRANCH  35  36
HETATM   36  C19 UNL     1      91.549  36.779  46.366  1.00  0.00     0.270 C 
BRANCH  36  37
HETATM   37  C20 UNL     1      90.438  36.403  47.241  1.00  0.00     0.245 C 
HETATM   38  O2  UNL     1      89.692  37.365  47.639  1.00  0.00    -0.271 OA
HETATM   39  N7  UNL     1      90.086  35.134  47.697  1.00  0.00    -0.325 N 
ATOM     40  H7  UNL     1      90.495  34.853  48.589  1.00  0.00     0.169 HD
BRANCH  39  41
HETATM   41  C21 UNL     1      89.318  34.281  47.142  1.00  0.00     0.038 A 
HETATM   42  C22 UNL     1      89.676  33.768  45.907  1.00  0.00     0.046 A 
HETATM   43  C23 UNL     1      88.858  32.838  45.278  1.00  0.00     0.090 A 
HETATM   44  N8  UNL     1      87.700  32.402  45.834  1.00  0.00    -0.365 N 
HETATM   45  C24 UNL     1      87.340  32.891  47.034  1.00  0.00     0.066 A 
ATOM     46  H8  UNL     1      87.116  31.718  45.353  1.00  0.00     0.165 HD
HETATM   47  C26 UNL     1      88.135  33.820  47.686  1.00  0.00     0.059 A 
BRANCH  45  48
HETATM   48  C25 UNL     1      86.073  32.424  47.659  1.00  0.00     0.305 C 
BRANCH  48  49
HETATM   49  O3  UNL     1      85.770  33.229  48.757  1.00  0.00    -0.366 OA
ATOM     50  H3  UNL     1      84.911  33.617  48.638  1.00  0.00     0.213 HD
ENDBRANCH  48  49
BRANCH  48  51
HETATM   51  O4  UNL     1      85.035  32.364  46.749  1.00  0.00    -0.366 OA
ATOM     52  H4  UNL     1      84.403  31.691  46.971  1.00  0.00     0.213 HD
ENDBRANCH  48  51
ENDBRANCH  45  48
ENDBRANCH  39  41
ENDBRANCH  36  37
ENDBRANCH  35  36
ENDBRANCH  34  35
ENDBRANCH  33  34
ENDBRANCH  32  33
ENDBRANCH  31  32
ENDBRANCH   4  31
TORSDOF 17
ENDMDL
MODEL 4
REMARK VINA RESULT: -9.649905438      2.702      5.663
REMARK  17 active torsions:
REMARK  status: ('A' for Active; 'I' for Inactive)
REMARK    1  A    between atoms: N1_1  and  C1_4 
REMARK    2  A    between atoms: C2_7  and  N3_8 
REMARK    3  A    between atoms: N3_8  and  C3_10 
REMARK    4  A    between atoms: C3_10  and  C4_11 
REMARK    5  A    between atoms: C10_20  and  N6_21 
REMARK    6  A    between atoms: N6_21  and  C11_23 
REMARK    7  A    between atoms: C14_26  and  C15_27 
REMARK    8  A    between atoms: C15_27  and  C16_28 
REMARK    9  A    between atoms: C16_28  and  C17_29 
REMARK   10  A    between atoms: C17_29  and  C18_30 
REMARK   11  A    between atoms: C18_30  and  O1_31 
REMARK   12  A    between atoms: O1_31  and  C19_32 
REMARK   13  A    between atoms: C19_32  and  C20_33 
REMARK       I    between atoms: C20_33  and  N7_35 
REMARK   14  A    between atoms: N7_35  and  C21_37 
REMARK   15  A    between atoms: C24_42  and  C25_43 
REMARK   16  A    between atoms: C25_43  and  O3_44 
REMARK   17  A    between atoms: C25_43  and  O4_46 
ROOT
HETATM    1  C11 UNL     1      89.692  33.791  41.962  1.00  0.00     0.049 A 
HETATM    2  C12 UNL     1      90.878  33.643  42.648  1.00  0.00     0.030 A 
HETATM    3  C13 UNL     1      91.424  34.715  43.366  1.00  0.00     0.009 A 
HETATM    4  C14 UNL     1      90.790  35.928  43.396  1.00  0.00    -0.058 A 
HETATM    5  C27 UNL     1      89.611  36.090  42.718  1.00  0.00     0.009 A 
HETATM    6  C28 UNL     1      89.080  35.029  42.015  1.00  0.00     0.030 A 
ENDROOT
BRANCH   1   7
HETATM    7  N6  UNL     1      89.101  32.731  41.227  1.00  0.00    -0.191 N 
ATOM      8  H6  UNL     1      89.446  32.519  40.290  1.00  0.00     0.184 HD
BRANCH   7   9
HETATM    9  C10 UNL     1      88.147  32.039  41.715  1.00  0.00     0.711 A 
HETATM   10  N5  UNL     1      86.890  32.505  41.702  1.00  0.00    -0.021 N 
HETATM   11  C2  UNL     1      85.857  31.811  42.212  1.00  0.00     0.707 A 
ATOM     12  H5  UNL     1      86.710  33.421  41.289  1.00  0.00     0.203 HD
HETATM   13  N2  UNL     1      86.110  30.610  42.750  1.00  0.00    -0.022 N 
HETATM   14  C1  UNL     1      87.347  30.107  42.782  1.00  0.00     0.705 A 
ATOM     15  H2  UNL     1      85.341  30.067  43.143  1.00  0.00     0.203 HD
HETATM   16  N9  UNL     1      88.376  30.835  42.258  1.00  0.00    -0.021 N 
ATOM     17  H9  UNL     1      89.326  30.460  42.278  1.00  0.00     0.203 HD
BRANCH  11  18
HETATM   18  N3  UNL     1      84.681  32.328  42.162  1.00  0.00    -0.221 N 
ATOM     19  H3  UNL     1      83.905  31.774  41.801  1.00  0.00     0.178 HD
BRANCH  18  20
HETATM   20  C3  UNL     1      84.441  33.682  42.607  1.00  0.00     0.176 C 
BRANCH  20  21
HETATM   21  C4  UNL     1      83.566  34.405  41.656  1.00  0.00    -0.040 A 
HETATM   22  C5  UNL     1      82.474  35.063  42.130  1.00  0.00     0.011 A 
HETATM   23  C6  UNL     1      81.627  35.751  41.300  1.00  0.00     0.027 A 
HETATM   24  C7  UNL     1      81.913  35.758  39.960  1.00  0.00     0.046 A 
HETATM   25  N4  UNL     1      81.053  36.462  39.074  1.00  0.00    -0.102 NA
HETATM   26  C8  UNL     1      83.004  35.102  39.470  1.00  0.00     0.027 A 
HETATM   27  C9  UNL     1      83.847  34.413  40.327  1.00  0.00     0.011 A 
ENDBRANCH  20  21
ENDBRANCH  18  20
ENDBRANCH  11  18
BRANCH  14  28
HETATM   28  N1  UNL     1      87.547  28.950  43.308  1.00  0.00    -0.234 N 
ATOM     29  H12 UNL     1      87.520  28.100  42.744  1.00  0.00     0.174 HD
ATOM     30  H11 UNL     1      87.738  28.879  44.308  1.00  0.00     0.174 HD
ENDBRANCH  14  28
ENDBRANCH   7   9
ENDBRANCH   1   7
BRANCH   4  31
HETATM   31  C15 UNL     1      91.364  37.050  44.152  1.00  0.00     0.038 C 
BRANCH  31  32
HETATM   32  C16 UNL     1      90.260  37.922  44.706  1.00  0.00     0.007 C 
BRANCH  32  33
HETATM   33  C17 UNL     1      89.924  37.625  46.140  1.00  0.00     0.027 C 
BRANCH  33  34
HETATM   34  C18 UNL     1      91.173  37.003  46.762  1.00  0.00     0.168 C 
BRANCH  34  35
HETATM   35  O1  UNL     1      90.901  35.957  47.590  1.00  0.00    -0.382 OA
BRANCH  35  36
HETATM   36  C19 UNL     1      91.012  34.696  47.093  1.00  0.00     0.270 C 
BRANCH  36  37
HETATM   37  C20 UNL     1      90.328  33.645  47.848  1.00  0.00     0.245 C 
HETATM   38  O2  UNL     1      90.570  33.615  49.106  1.00  0.00    -0.271 OA
HETATM   39  N7  UNL     1      89.448  32.673  47.377  1.00  0.00    -0.325 N 
ATOM     40  H7  UNL     1      89.870  31.787  47.099  1.00  0.00     0.169 HD
BRANCH  39  41
HETATM   41  C21 UNL     1      88.182  32.751  47.251  1.00  0.00     0.038 A 
HETATM   42  C22 UNL     1      87.643  32.824  45.977  1.00  0.00     0.046 A 
HETATM   43  C23 UNL     1      86.267  32.911  45.809  1.00  0.00     0.090 A 
HETATM   44  N8  UNL     1      85.410  32.926  46.861  1.00  0.00    -0.365 N 
HETATM   45  C24 UNL     1      85.919  32.855  48.104  1.00  0.00     0.066 A 
ATOM     46  H8  UNL     1      84.404  32.989  46.712  1.00  0.00     0.165 HD
HETATM   47  C26 UNL     1      87.287  32.768  48.303  1.00  0.00     0.059 A 
BRANCH  45  48
HETATM   48  C25 UNL     1      84.994  32.870  49.269  1.00  0.00     0.305 C 
BRANCH  48  49
HETATM   49  O3  UNL     1      84.677  34.189  49.595  1.00  0.00    -0.366 OA
ATOM     50  H3  UNL     1      85.094  34.422  50.416  1.00  0.00     0.213 HD
ENDBRANCH  48  49
BRANCH  48  51
HETATM   51  O4  UNL     1      83.870  32.098  49.052  1.00  0.00    -0.366 OA
ATOM     52  H4  UNL     1      83.875  31.303  49.570  1.00  0.00     0.213 HD
ENDBRANCH  48  51
ENDBRANCH  45  48
ENDBRANCH  39  41
ENDBRANCH  36  37
ENDBRANCH  35  36
ENDBRANCH  34  35
ENDBRANCH  33  34
ENDBRANCH  32  33
ENDBRANCH  31  32
ENDBRANCH   4  31
TORSDOF 17
ENDMDL
MODEL 5
REMARK VINA RESULT: -9.432589026      5.144     10.888
REMARK  17 active torsions:
REMARK  status: ('A' for Active; 'I' for Inactive)
REMARK    1  A    between atoms: N1_1  and  C1_4 
REMARK    2  A    between atoms: C2_7  and  N3_8 
REMARK    3  A    between atoms: N3_8  and  C3_10 
REMARK    4  A    between atoms: C3_10  and  C4_11 
REMARK    5  A    between atoms: C10_20  and  N6_21 
REMARK    6  A    between atoms: N6_21  and  C11_23 
REMARK    7  A    between atoms: C14_26  and  C15_27 
REMARK    8  A    between atoms: C15_27  and  C16_28 
REMARK    9  A    between atoms: C16_28  and  C17_29 
REMARK   10  A    between atoms: C17_29  and  C18_30 
REMARK   11  A    between atoms: C18_30  and  O1_31 
REMARK   12  A    between atoms: O1_31  and  C19_32 
REMARK   13  A    between atoms: C19_32  and  C20_33 
REMARK       I    between atoms: C20_33  and  N7_35 
REMARK   14  A    between atoms: N7_35  and  C21_37 
REMARK   15  A    between atoms: C24_42  and  C25_43 
REMARK   16  A    between atoms: C25_43  and  O3_44 
REMARK   17  A    between atoms: C25_43  and  O4_46 
ROOT
HETATM    1  C11 UNL     1      86.628  32.664  45.055  1.00  0.00     0.049 A 
HETATM    2  C12 UNL     1      87.190  32.807  43.806  1.00  0.00     0.030 A 
HETATM    3  C13 UNL     1      86.482  33.434  42.772  1.00  0.00     0.009 A 
HETATM    4  C14 UNL     1      85.218  33.914  42.986  1.00  0.00    -0.058 A 
HETATM    5  C27 UNL     1      84.645  33.778  44.222  1.00  0.00     0.009 A 
HETATM    6  C28 UNL     1      85.350  33.160  45.234  1.00  0.00     0.030 A 
ENDROOT
BRANCH   1   7
HETATM    7  N6  UNL     1      87.310  32.040  46.131  1.00  0.00    -0.191 N 
ATOM      8  H6  UNL     1      87.417  31.026  46.134  1.00  0.00     0.184 HD
BRANCH   7   9
HETATM    9  C10 UNL     1      87.793  32.725  47.094  1.00  0.00     0.711 A 
HETATM   10  N5  UNL     1      88.931  33.415  46.935  1.00  0.00    -0.021 N 
HETATM   11  C2  UNL     1      89.477  34.143  47.926  1.00  0.00     0.707 A 
ATOM     12  H5  UNL     1      89.400  33.388  46.030  1.00  0.00     0.203 HD
HETATM   13  N2  UNL     1      88.847  34.169  49.109  1.00  0.00    -0.022 N 
HETATM   14  C1  UNL     1      87.711  33.497  49.309  1.00  0.00     0.705 A 
ATOM     15  H2  UNL     1      89.245  34.714  49.874  1.00  0.00     0.203 HD
HETATM   16  N9  UNL     1      87.180  32.766  48.285  1.00  0.00    -0.021 N 
ATOM     17  H9  UNL     1      86.312  32.248  48.428  1.00  0.00     0.203 HD
BRANCH  11  18
HETATM   18  N3  UNL     1      90.571  34.777  47.695  1.00  0.00    -0.221 N 
ATOM     19  H3  UNL     1      91.027  35.285  48.453  1.00  0.00     0.178 HD
BRANCH  18  20
HETATM   20  C3  UNL     1      91.168  34.781  46.378  1.00  0.00     0.176 C 
BRANCH  20  21
HETATM   21  C4  UNL     1      90.748  35.976  45.611  1.00  0.00    -0.040 A 
HETATM   22  C5  UNL     1      90.503  35.854  44.279  1.00  0.00     0.011 A 
HETATM   23  C6  UNL     1      90.109  36.922  43.515  1.00  0.00     0.027 A 
HETATM   24  C7  UNL     1      89.969  38.135  44.137  1.00  0.00     0.046 A 
HETATM   25  N4  UNL     1      89.563  39.262  43.371  1.00  0.00    -0.102 NA
HETATM   26  C8  UNL     1      90.212  38.273  45.473  1.00  0.00     0.027 A 
HETATM   27  C9  UNL     1      90.609  37.179  46.226  1.00  0.00     0.011 A 
ENDBRANCH  20  21
ENDBRANCH  18  20
ENDBRANCH  11  18
BRANCH  14  28
HETATM   28  N1  UNL     1      87.139  33.548  50.459  1.00  0.00    -0.234 N 
ATOM     29  H12 UNL     1      86.823  32.701  50.933  1.00  0.00     0.174 HD
ATOM     30  H11 UNL     1      86.998  34.453  50.910  1.00  0.00     0.174 HD
ENDBRANCH  14  28
ENDBRANCH   7   9
ENDBRANCH   1   7
BRANCH   4  31
HETATM   31  C15 UNL     1      84.478  34.573  41.901  1.00  0.00     0.038 C 
BRANCH  31  32
HETATM   32  C16 UNL     1      84.737  33.866  40.590  1.00  0.00     0.007 C 
BRANCH  32  33
HETATM   33  C17 UNL     1      83.575  33.919  39.639  1.00  0.00     0.027 C 
BRANCH  33  34
HETATM   34  C18 UNL     1      82.689  32.718  39.965  1.00  0.00     0.168 C 
BRANCH  34  35
HETATM   35  O1  UNL     1      82.937  31.635  39.178  1.00  0.00    -0.382 OA
BRANCH  35  36
HETATM   36  C19 UNL     1      82.031  30.620  39.173  1.00  0.00     0.270 C 
BRANCH  36  37
HETATM   37  C20 UNL     1      82.583  29.266  39.237  1.00  0.00     0.245 C 
HETATM   38  O2  UNL     1      83.083  28.921  40.364  1.00  0.00    -0.271 OA
HETATM   39  N7  UNL     1      82.633  28.304  38.231  1.00  0.00    -0.325 N 
ATOM     40  H7  UNL     1      83.477  28.302  37.659  1.00  0.00     0.169 HD
BRANCH  39  41
HETATM   41  C21 UNL     1      81.758  27.425  37.935  1.00  0.00     0.038 A 
HETATM   42  C22 UNL     1      81.417  26.478  38.886  1.00  0.00     0.046 A 
HETATM   43  C23 UNL     1      80.467  25.508  38.591  1.00  0.00     0.090 A 
HETATM   44  N8  UNL     1      79.845  25.449  37.387  1.00  0.00    -0.365 N 
HETATM   45  C24 UNL     1      80.166  26.363  36.454  1.00  0.00     0.066 A 
ATOM     46  H8  UNL     1      79.151  24.728  37.193  1.00  0.00     0.165 HD
HETATM   47  C26 UNL     1      81.109  27.342  36.718  1.00  0.00     0.059 A 
BRANCH  45  48
HETATM   48  C25 UNL     1      79.494  26.313  35.127  1.00  0.00     0.305 C 
BRANCH  48  49
HETATM   49  O3  UNL     1      80.454  26.367  34.116  1.00  0.00    -0.366 OA
ATOM     50  H3  UNL     1      80.032  26.568  33.289  1.00  0.00     0.213 HD
ENDBRANCH  48  49
BRANCH  48  51
HETATM   51  O4  UNL     1      78.664  25.215  35.005  1.00  0.00    -0.366 OA
ATOM     52  H4  UNL     1      79.045  24.537  34.461  1.00  0.00     0.213 HD
ENDBRANCH  48  51
ENDBRANCH  45  48
ENDBRANCH  39  41
ENDBRANCH  36  37
ENDBRANCH  35  36
ENDBRANCH  34  35
ENDBRANCH  33  34
ENDBRANCH  32  33
ENDBRANCH  31  32
ENDBRANCH   4  31
TORSDOF 17
ENDMDL
