MODEL 1
REMARK VINA RESULT: -8.251321184      0.000      0.000
REMARK  13 active torsions:
REMARK  status: ('A' for Active; 'I' for Inactive)
REMARK    1  A    between atoms: N1_1  and  C1_5 
REMARK    2  A    between atoms: C1_5  and  C2_6 
REMARK    3  A    between atoms: C2_6  and  C3_7 
REMARK    4  A    between atoms: C19_30  and  C20_31 
REMARK    5  A    between atoms: C20_31  and  N5_32 
REMARK    6  A    between atoms: N5_32  and  C21_35 
REMARK    7  A    between atoms: C21_35  and  C22_36 
REMARK    8  A    between atoms: C22_36  and  C23_37 
REMARK    9  A    between atoms: C23_37  and  C24_38 
REMARK   10  A    between atoms: C24_38  and  N6_39 
REMARK   11  A    between atoms: N6_39  and  C25_42 
REMARK   12  A    between atoms: C25_42  and  C26_43 
REMARK   13  A    between atoms: C26_43  and  O1_44 
ROOT
HETATM    1  C3  UNL     1      87.975  32.458  47.951  1.00  0.00     0.013 C 
HETATM    2  C4  UNL     1      88.264  33.811  47.366  1.00  0.00     0.026 C 
HETATM    3  C5  UNL     1      89.562  34.362  47.961  1.00  0.00     0.114 C 
HETATM    4  N2  UNL     1      90.664  34.301  47.052  1.00  0.00    -0.421 N 
ATOM      5  H2  UNL     1      91.440  33.651  47.185  1.00  0.00     0.153 HD
HETATM    6  C6  UNL     1      90.611  35.203  45.949  1.00  0.00     0.115 C 
HETATM    7  C7  UNL     1      91.843  36.113  46.031  1.00  0.00     0.046 C 
HETATM    8  C8  UNL     1      91.971  36.772  44.678  1.00  0.00     0.234 C 
HETATM    9  N3  UNL     1      90.951  36.363  43.758  1.00  0.00    -0.075 N 
ATOM     10  H31 UNL     1      90.392  37.162  43.456  1.00  0.00     0.277 HD
ATOM     11  H32 UNL     1      90.227  35.824  44.234  1.00  0.00     0.277 HD
HETATM   12  C9  UNL     1      91.466  35.641  42.627  1.00  0.00     0.237 C 
HETATM   13  C10 UNL     1      90.336  35.058  41.776  1.00  0.00     0.071 C 
HETATM   14  C11 UNL     1      90.412  33.552  41.969  1.00  0.00     0.057 C 
HETATM   15  N4  UNL     1      89.564  32.787  41.158  1.00  0.00    -0.398 N 
ATOM     16  H4  UNL     1      89.526  32.942  40.151  1.00  0.00     0.158 HD
HETATM   17  C12 UNL     1      88.749  31.782  41.777  1.00  0.00     0.158 C 
HETATM   18  C13 UNL     1      87.580  32.493  42.407  1.00  0.00    -0.031 A 
HETATM   19  C14 UNL     1      86.997  33.465  41.574  1.00  0.00     0.009 A 
HETATM   20  C15 UNL     1      85.926  34.214  41.966  1.00  0.00     0.002 A 
HETATM   21  C16 UNL     1      85.424  33.991  43.217  1.00  0.00     0.017 A 
HETATM   22  C17 UNL     1      85.985  33.038  44.047  1.00  0.00     0.041 A 
HETATM   23  C18 UNL     1      87.087  32.253  43.669  1.00  0.00    -0.011 A 
HETATM   24  C19 UNL     1      87.698  31.174  44.561  1.00  0.00     0.137 C 
HETATM   25  N7  UNL     1      87.928  31.684  45.777  1.00  0.00    -0.405 N 
ATOM     26  H7  UNL     1      88.703  32.346  45.808  1.00  0.00     0.154 HD
HETATM   27  C27 UNL     1      87.307  31.482  47.009  1.00  0.00     0.099 C 
HETATM   28  C28 UNL     1      85.844  31.446  47.072  1.00  0.00     0.148 C 
HETATM   29  N8  UNL     1      85.194  32.615  46.520  1.00  0.00    -0.355 N 
ATOM     30  H8  UNL     1      84.681  33.146  47.223  1.00  0.00     0.162 HD
HETATM   31  C29 UNL     1      85.103  33.197  45.224  1.00  0.00     0.252 C 
HETATM   32  O2  UNL     1      84.123  33.961  45.054  1.00  0.00    -0.268 OA
ENDROOT
BRANCH  24  33
HETATM   33  C20 UNL     1      86.858  29.980  44.256  1.00  0.00     0.261 C 
BRANCH  33  34
HETATM   34  N5  UNL     1      87.214  29.194  43.127  1.00  0.00    -0.073 N 
ATOM     35  H52 UNL     1      87.722  29.740  42.430  1.00  0.00     0.277 HD
ATOM     36  H51 UNL     1      87.943  28.517  43.350  1.00  0.00     0.277 HD
BRANCH  34  37
HETATM   37  C21 UNL     1      86.042  28.560  42.564  1.00  0.00     0.232 C 
BRANCH  37  38
HETATM   38  C22 UNL     1      85.031  29.510  41.995  1.00  0.00     0.029 C 
BRANCH  38  39
HETATM   39  C23 UNL     1      83.722  28.789  41.689  1.00  0.00     0.029 C 
BRANCH  39  40
HETATM   40  C24 UNL     1      83.119  29.428  40.466  1.00  0.00     0.232 C 
BRANCH  40  41
HETATM   41  N6  UNL     1      82.415  30.633  40.825  1.00  0.00    -0.073 N 
ATOM     42  H62 UNL     1      81.485  30.438  41.196  1.00  0.00     0.277 HD
ATOM     43  H61 UNL     1      82.814  31.077  41.653  1.00  0.00     0.277 HD
BRANCH  41  44
HETATM   44  C25 UNL     1      82.372  31.523  39.703  1.00  0.00     0.258 C 
BRANCH  44  45
HETATM   45  C26 UNL     1      81.985  32.908  40.206  1.00  0.00     0.191 C 
BRANCH  45  46
HETATM   46  O1  UNL     1      80.861  32.838  41.014  1.00  0.00    -0.399 OA
ATOM     47  H1  UNL     1      81.012  33.287  41.837  1.00  0.00     0.209 HD
ENDBRANCH  45  46
ENDBRANCH  44  45
ENDBRANCH  41  44
ENDBRANCH  40  41
ENDBRANCH  39  40
ENDBRANCH  38  39
ENDBRANCH  37  38
ENDBRANCH  34  37
ENDBRANCH  33  34
ENDBRANCH  24  33
BRANCH   1  48
HETATM   48  C2  UNL     1      87.670  32.385  49.376  1.00  0.00     0.034 C 
BRANCH  48  49
HETATM   49  C1  UNL     1      87.065  33.527  50.086  1.00  0.00     0.230 C 
BRANCH  49  50
HETATM   50  N1  UNL     1      85.625  33.636  49.881  1.00  0.00    -0.079 N 
ATOM     51  H13 UNL     1      85.351  33.210  48.996  1.00  0.00     0.274 HD
ATOM     52  H12 UNL     1      85.120  33.026  50.525  1.00  0.00     0.274 HD
ATOM     53  H11 UNL     1      85.280  34.593  49.944  1.00  0.00     0.274 HD
ENDBRANCH  49  50
ENDBRANCH  48  49
ENDBRANCH   1  48
TORSDOF 13
ENDMDL
MODEL 2
REMARK VINA RESULT: -7.907969825      7.041     11.413
REMARK  13 active torsions:
REMARK  status: ('A' for Active; 'I' for Inactive)
REMARK    1  A    between atoms: N1_1  and  C1_5 
REMARK    2  A    between atoms: C1_5  and  C2_6 
REMARK    3  A    between atoms: C2_6  and  C3_7 
REMARK    4  A    between atoms: C19_30  and  C20_31 
REMARK    5  A    between atoms: C20_31  and  N5_32 
REMARK    6  A    between atoms: N5_32  and  C21_35 
REMARK    7  A    between atoms: C21_35  and  C22_36 
REMARK    8  A    between atoms: C22_36  and  C23_37 
REMARK    9  A    between atoms: C23_37  and  C24_38 
REMARK   10  A    between atoms: C24_38  and  N6_39 
REMARK   11  A    between atoms: N6_39  and  C25_42 
REMARK   12  A    between atoms: C25_42  and  C26_43 
REMARK   13  A    between atoms: C26_43  and  O1_44 
ROOT
HETATM    1  C3  UNL     1      81.767  26.442  35.654  1.00  0.00     0.013 C 
HETATM    2  C4  UNL     1      82.569  25.291  36.191  1.00  0.00     0.026 C 
HETATM    3  C5  UNL     1      83.729  24.985  35.241  1.00  0.00     0.114 C 
HETATM    4  N2  UNL     1      84.993  25.430  35.740  1.00  0.00    -0.421 N 
ATOM      5  H2  UNL     1      85.490  26.220  35.326  1.00  0.00     0.153 HD
HETATM    6  C6  UNL     1      85.514  24.704  36.851  1.00  0.00     0.115 C 
HETATM    7  C7  UNL     1      86.863  24.108  36.428  1.00  0.00     0.046 C 
HETATM    8  C8  UNL     1      87.558  23.694  37.703  1.00  0.00     0.234 C 
HETATM    9  N3  UNL     1      86.787  23.974  38.877  1.00  0.00    -0.075 N 
ATOM     10  H31 UNL     1      86.580  23.117  39.389  1.00  0.00     0.277 HD
ATOM     11  H32 UNL     1      85.838  24.255  38.631  1.00  0.00     0.277 HD
HETATM   12  C9  UNL     1      87.403  24.948  39.738  1.00  0.00     0.237 C 
HETATM   13  C10 UNL     1      86.464  25.360  40.873  1.00  0.00     0.071 C 
HETATM   14  C11 UNL     1      86.072  26.800  40.580  1.00  0.00     0.057 C 
HETATM   15  N4  UNL     1      85.330  27.448  41.576  1.00  0.00    -0.398 N 
ATOM     16  H4  UNL     1      85.636  27.431  42.548  1.00  0.00     0.158 HD
HETATM   17  C12 UNL     1      84.130  28.136  41.197  1.00  0.00     0.158 C 
HETATM   18  C13 UNL     1      83.062  27.088  41.020  1.00  0.00    -0.031 A 
HETATM   19  C14 UNL     1      83.037  26.132  42.051  1.00  0.00     0.009 A 
HETATM   20  C15 UNL     1      82.139  25.104  42.070  1.00  0.00     0.002 A 
HETATM   21  C16 UNL     1      81.247  25.026  41.038  1.00  0.00     0.017 A 
HETATM   22  C17 UNL     1      81.259  25.958  40.018  1.00  0.00     0.041 A 
HETATM   23  C18 UNL     1      82.171  27.026  39.974  1.00  0.00    -0.011 A 
HETATM   24  C19 UNL     1      82.177  28.084  38.871  1.00  0.00     0.137 C 
HETATM   25  N7  UNL     1      82.162  27.478  37.678  1.00  0.00    -0.405 N 
ATOM     26  H7  UNL     1      83.041  27.020  37.437  1.00  0.00     0.154 HD
HETATM   27  C27 UNL     1      81.173  27.354  36.703  1.00  0.00     0.099 C 
HETATM   28  C28 UNL     1      79.804  27.034  37.114  1.00  0.00     0.148 C 
HETATM   29  N8  UNL     1      79.686  25.833  37.914  1.00  0.00    -0.355 N 
ATOM     30  H8  UNL     1      79.149  25.104  37.445  1.00  0.00     0.162 HD
HETATM   31  C29 UNL     1      80.144  25.433  39.200  1.00  0.00     0.252 C 
HETATM   32  O2  UNL     1      79.501  24.491  39.722  1.00  0.00    -0.268 OA
ENDROOT
BRANCH  24  33
HETATM   33  C20 UNL     1      81.178  29.076  39.362  1.00  0.00     0.261 C 
BRANCH  33  34
HETATM   34  N5  UNL     1      81.326  30.425  38.942  1.00  0.00    -0.073 N 
ATOM     35  H52 UNL     1      81.445  30.497  37.931  1.00  0.00     0.277 HD
ATOM     36  H51 UNL     1      80.455  30.949  39.029  1.00  0.00     0.277 HD
BRANCH  34  37
HETATM   37  C21 UNL     1      82.410  31.061  39.658  1.00  0.00     0.232 C 
BRANCH  37  38
HETATM   38  C22 UNL     1      82.138  32.477  40.072  1.00  0.00     0.029 C 
BRANCH  38  39
HETATM   39  C23 UNL     1      83.285  33.393  39.654  1.00  0.00     0.029 C 
BRANCH  39  40
HETATM   40  C24 UNL     1      82.940  34.791  40.092  1.00  0.00     0.232 C 
BRANCH  40  41
HETATM   41  N6  UNL     1      82.710  35.634  38.947  1.00  0.00    -0.073 N 
ATOM     42  H62 UNL     1      83.552  36.138  38.667  1.00  0.00     0.277 HD
ATOM     43  H61 UNL     1      82.572  35.091  38.094  1.00  0.00     0.277 HD
BRANCH  41  44
HETATM   44  C25 UNL     1      81.614  36.519  39.206  1.00  0.00     0.258 C 
BRANCH  44  45
HETATM   45  C26 UNL     1      81.641  37.631  38.166  1.00  0.00     0.191 C 
BRANCH  45  46
HETATM   46  O1  UNL     1      82.444  37.278  37.093  1.00  0.00    -0.399 OA
ATOM     47  H1  UNL     1      83.356  37.459  37.284  1.00  0.00     0.209 HD
ENDBRANCH  45  46
ENDBRANCH  44  45
ENDBRANCH  41  44
ENDBRANCH  40  41
ENDBRANCH  39  40
ENDBRANCH  38  39
ENDBRANCH  37  38
ENDBRANCH  34  37
ENDBRANCH  33  34
ENDBRANCH  24  33
BRANCH   1  48
HETATM   48  C2  UNL     1      81.045  26.241  34.402  1.00  0.00     0.034 C 
BRANCH  48  49
HETATM   49  C1  UNL     1      80.084  25.134  34.245  1.00  0.00     0.230 C 
BRANCH  49  50
HETATM   50  N1  UNL     1      80.531  24.110  33.308  1.00  0.00    -0.079 N 
ATOM     51  H13 UNL     1      79.739  23.699  32.814  1.00  0.00     0.274 HD
ATOM     52  H12 UNL     1      81.022  24.531  32.518  1.00  0.00     0.274 HD
ATOM     53  H11 UNL     1      81.101  23.385  33.744  1.00  0.00     0.274 HD
ENDBRANCH  49  50
ENDBRANCH  48  49
ENDBRANCH   1  48
TORSDOF 13
ENDMDL
MODEL 3
REMARK VINA RESULT: -7.762278467      2.174      5.673
REMARK  13 active torsions:
REMARK  status: ('A' for Active; 'I' for Inactive)
REMARK    1  A    between atoms: N1_1  and  C1_5 
REMARK    2  A    between atoms: C1_5  and  C2_6 
REMARK    3  A    between atoms: C2_6  and  C3_7 
REMARK    4  A    between atoms: C19_30  and  C20_31 
REMARK    5  A    between atoms: C20_31  and  N5_32 
REMARK    6  A    between atoms: N5_32  and  C21_35 
REMARK    7  A    between atoms: C21_35  and  C22_36 
REMARK    8  A    between atoms: C22_36  and  C23_37 
REMARK    9  A    between atoms: C23_37  and  C24_38 
REMARK   10  A    between atoms: C24_38  and  N6_39 
REMARK   11  A    between atoms: N6_39  and  C25_42 
REMARK   12  A    between atoms: C25_42  and  C26_43 
REMARK   13  A    between atoms: C26_43  and  O1_44 
ROOT
HETATM    1  C3  UNL     1      89.303  34.806  42.572  1.00  0.00     0.013 C 
HETATM    2  C4  UNL     1      90.073  34.064  43.627  1.00  0.00     0.026 C 
HETATM    3  C5  UNL     1      90.970  35.040  44.391  1.00  0.00     0.114 C 
HETATM    4  N2  UNL     1      90.477  35.348  45.697  1.00  0.00    -0.421 N 
ATOM      5  H2  UNL     1      90.094  36.266  45.928  1.00  0.00     0.153 HD
HETATM    6  C6  UNL     1      90.552  34.295  46.655  1.00  0.00     0.115 C 
HETATM    7  C7  UNL     1      91.432  34.780  47.814  1.00  0.00     0.046 C 
HETATM    8  C8  UNL     1      91.179  33.832  48.961  1.00  0.00     0.234 C 
HETATM    9  N3  UNL     1      90.228  32.808  48.642  1.00  0.00    -0.075 N 
ATOM     10  H31 UNL     1      90.649  31.883  48.722  1.00  0.00     0.277 HD
ATOM     11  H32 UNL     1      90.014  32.809  47.644  1.00  0.00     0.277 HD
HETATM   12  C9  UNL     1      89.024  32.893  49.422  1.00  0.00     0.237 C 
HETATM   13  C10 UNL     1      87.964  31.910  48.920  1.00  0.00     0.071 C 
HETATM   14  C11 UNL     1      86.870  32.767  48.303  1.00  0.00     0.057 C 
HETATM   15  N4  UNL     1      85.710  32.089  47.909  1.00  0.00    -0.398 N 
ATOM     16  H4  UNL     1      85.240  31.445  48.545  1.00  0.00     0.158 HD
HETATM   17  C12 UNL     1      85.197  32.320  46.589  1.00  0.00     0.158 C 
HETATM   18  C13 UNL     1      86.046  31.511  45.643  1.00  0.00    -0.031 A 
HETATM   19  C14 UNL     1      86.294  30.200  46.089  1.00  0.00     0.009 A 
HETATM   20  C15 UNL     1      87.041  29.315  45.369  1.00  0.00     0.002 A 
HETATM   21  C16 UNL     1      87.555  29.743  44.178  1.00  0.00     0.017 A 
HETATM   22  C17 UNL     1      87.320  31.028  43.725  1.00  0.00     0.041 A 
HETATM   23  C18 UNL     1      86.554  31.960  44.445  1.00  0.00    -0.011 A 
HETATM   24  C19 UNL     1      86.258  33.373  43.944  1.00  0.00     0.137 C 
HETATM   25  N7  UNL     1      87.400  33.955  43.563  1.00  0.00    -0.405 N 
ATOM     26  H7  UNL     1      88.014  34.207  44.337  1.00  0.00     0.154 HD
HETATM   27  C27 UNL     1      87.911  34.281  42.307  1.00  0.00     0.099 C 
HETATM   28  C28 UNL     1      87.802  33.306  41.218  1.00  0.00     0.148 C 
HETATM   29  N8  UNL     1      88.367  32.008  41.520  1.00  0.00    -0.355 N 
ATOM     30  H8  UNL     1      89.166  31.784  40.929  1.00  0.00     0.162 HD
HETATM   31  C29 UNL     1      88.068  30.973  42.450  1.00  0.00     0.252 C 
HETATM   32  O2  UNL     1      88.505  29.839  42.139  1.00  0.00    -0.268 OA
ENDROOT
BRANCH  24  33
HETATM   33  C20 UNL     1      85.049  33.173  43.093  1.00  0.00     0.261 C 
BRANCH  33  34
HETATM   34  N5  UNL     1      83.883  33.918  43.418  1.00  0.00    -0.073 N 
ATOM     35  H52 UNL     1      83.229  33.372  43.980  1.00  0.00     0.277 HD
ATOM     36  H51 UNL     1      84.081  34.658  44.091  1.00  0.00     0.277 HD
BRANCH  34  37
HETATM   37  C21 UNL     1      83.262  34.432  42.217  1.00  0.00     0.232 C 
BRANCH  37  38
HETATM   38  C22 UNL     1      81.923  35.073  42.433  1.00  0.00     0.029 C 
BRANCH  38  39
HETATM   39  C23 UNL     1      80.848  34.370  41.609  1.00  0.00     0.029 C 
BRANCH  39  40
HETATM   40  C24 UNL     1      81.515  33.767  40.401  1.00  0.00     0.232 C 
BRANCH  40  41
HETATM   41  N6  UNL     1      81.253  32.352  40.337  1.00  0.00    -0.073 N 
ATOM     42  H62 UNL     1      80.997  31.968  41.247  1.00  0.00     0.277 HD
ATOM     43  H61 UNL     1      80.387  32.145  39.839  1.00  0.00     0.277 HD
BRANCH  41  44
HETATM   44  C25 UNL     1      82.379  31.675  39.766  1.00  0.00     0.258 C 
BRANCH  44  45
HETATM   45  C26 UNL     1      81.889  30.375  39.141  1.00  0.00     0.191 C 
BRANCH  45  46
HETATM   46  O1  UNL     1      80.911  30.627  38.191  1.00  0.00    -0.399 OA
ATOM     47  H1  UNL     1      80.124  30.130  38.381  1.00  0.00     0.209 HD
ENDBRANCH  45  46
ENDBRANCH  44  45
ENDBRANCH  41  44
ENDBRANCH  40  41
ENDBRANCH  39  40
ENDBRANCH  38  39
ENDBRANCH  37  38
ENDBRANCH  34  37
ENDBRANCH  33  34
ENDBRANCH  24  33
BRANCH   1  48
HETATM   48  C2  UNL     1      90.057  35.397  41.471  1.00  0.00     0.034 C 
BRANCH  48  49
HETATM   49  C1  UNL     1      91.280  34.757  40.953  1.00  0.00     0.230 C 
BRANCH  49  50
HETATM   50  N1  UNL     1      91.099  34.144  39.642  1.00  0.00    -0.079 N 
ATOM     51  H13 UNL     1      91.804  34.478  38.985  1.00  0.00     0.274 HD
ATOM     52  H12 UNL     1      91.347  33.154  39.667  1.00  0.00     0.274 HD
ATOM     53  H11 UNL     1      90.161  34.273  39.263  1.00  0.00     0.274 HD
ENDBRANCH  49  50
ENDBRANCH  48  49
ENDBRANCH   1  48
TORSDOF 13
ENDMDL
MODEL 4
REMARK VINA RESULT: -7.707373031      2.115      3.745
REMARK  13 active torsions:
REMARK  status: ('A' for Active; 'I' for Inactive)
REMARK    1  A    between atoms: N1_1  and  C1_5 
REMARK    2  A    between atoms: C1_5  and  C2_6 
REMARK    3  A    between atoms: C2_6  and  C3_7 
REMARK    4  A    between atoms: C19_30  and  C20_31 
REMARK    5  A    between atoms: C20_31  and  N5_32 
REMARK    6  A    between atoms: N5_32  and  C21_35 
REMARK    7  A    between atoms: C21_35  and  C22_36 
REMARK    8  A    between atoms: C22_36  and  C23_37 
REMARK    9  A    between atoms: C23_37  and  C24_38 
REMARK   10  A    between atoms: C24_38  and  N6_39 
REMARK   11  A    between atoms: N6_39  and  C25_42 
REMARK   12  A    between atoms: C25_42  and  C26_43 
REMARK   13  A    between atoms: C26_43  and  O1_44 
ROOT
HETATM    1  C3  UNL     1      87.981  32.430  48.110  1.00  0.00     0.013 C 
HETATM    2  C4  UNL     1      88.269  33.790  47.541  1.00  0.00     0.026 C 
HETATM    3  C5  UNL     1      89.535  34.359  48.184  1.00  0.00     0.114 C 
HETATM    4  N2  UNL     1      90.669  34.320  47.314  1.00  0.00    -0.421 N 
ATOM      5  H2  UNL     1      91.451  33.683  47.471  1.00  0.00     0.153 HD
HETATM    6  C6  UNL     1      90.640  35.226  46.213  1.00  0.00     0.115 C 
HETATM    7  C7  UNL     1      91.853  36.156  46.342  1.00  0.00     0.046 C 
HETATM    8  C8  UNL     1      92.018  36.822  44.996  1.00  0.00     0.234 C 
HETATM    9  N3  UNL     1      91.037  36.401  44.040  1.00  0.00    -0.075 N 
ATOM     10  H31 UNL     1      90.477  37.192  43.721  1.00  0.00     0.277 HD
ATOM     11  H32 UNL     1      90.306  35.848  44.488  1.00  0.00     0.277 HD
HETATM   12  C9  UNL     1      91.604  35.692  42.925  1.00  0.00     0.237 C 
HETATM   13  C10 UNL     1      90.515  35.095  42.032  1.00  0.00     0.071 C 
HETATM   14  C11 UNL     1      90.608  33.590  42.222  1.00  0.00     0.057 C 
HETATM   15  N4  UNL     1      89.802  32.815  41.379  1.00  0.00    -0.398 N 
ATOM     16  H4  UNL     1      89.796  32.973  40.372  1.00  0.00     0.158 HD
HETATM   17  C12 UNL     1      88.982  31.793  41.965  1.00  0.00     0.158 C 
HETATM   18  C13 UNL     1      87.780  32.483  42.556  1.00  0.00    -0.031 A 
HETATM   19  C14 UNL     1      87.211  33.449  41.707  1.00  0.00     0.009 A 
HETATM   20  C15 UNL     1      86.115  34.178  42.065  1.00  0.00     0.002 A 
HETATM   21  C16 UNL     1      85.572  33.941  43.296  1.00  0.00     0.017 A 
HETATM   22  C17 UNL     1      86.119  32.995  44.142  1.00  0.00     0.041 A 
HETATM   23  C18 UNL     1      87.247  32.229  43.799  1.00  0.00    -0.011 A 
HETATM   24  C19 UNL     1      87.844  31.157  44.709  1.00  0.00     0.137 C 
HETATM   25  N7  UNL     1      88.023  31.665  45.933  1.00  0.00    -0.405 N 
ATOM     26  H7  UNL     1      88.785  32.339  45.994  1.00  0.00     0.154 HD
HETATM   27  C27 UNL     1      87.363  31.447  47.142  1.00  0.00     0.099 C 
HETATM   28  C28 UNL     1      85.899  31.388  47.154  1.00  0.00     0.148 C 
HETATM   29  N8  UNL     1      85.249  32.548  46.583  1.00  0.00    -0.355 N 
ATOM     30  H8  UNL     1      84.704  33.068  47.270  1.00  0.00     0.162 HD
HETATM   31  C29 UNL     1      85.194  33.134  45.287  1.00  0.00     0.252 C 
HETATM   32  O2  UNL     1      84.209  33.883  45.086  1.00  0.00    -0.268 OA
ENDROOT
BRANCH  24  33
HETATM   33  C20 UNL     1      87.035  29.950  44.370  1.00  0.00     0.261 C 
BRANCH  33  34
HETATM   34  N5  UNL     1      87.409  28.716  44.966  1.00  0.00    -0.073 N 
ATOM     35  H52 UNL     1      88.246  28.811  45.543  1.00  0.00     0.277 HD
ATOM     36  H51 UNL     1      86.754  28.433  45.695  1.00  0.00     0.277 HD
BRANCH  34  37
HETATM   37  C21 UNL     1      87.565  27.693  43.956  1.00  0.00     0.232 C 
BRANCH  37  38
HETATM   38  C22 UNL     1      87.312  28.160  42.553  1.00  0.00     0.029 C 
BRANCH  38  39
HETATM   39  C23 UNL     1      88.540  27.930  41.676  1.00  0.00     0.029 C 
BRANCH  39  40
HETATM   40  C24 UNL     1      89.635  27.383  42.554  1.00  0.00     0.232 C 
BRANCH  40  41
HETATM   41  N6  UNL     1      90.864  28.100  42.329  1.00  0.00    -0.073 N 
ATOM     42  H62 UNL     1      91.653  27.472  42.181  1.00  0.00     0.277 HD
ATOM     43  H61 UNL     1      90.874  28.567  41.422  1.00  0.00     0.277 HD
BRANCH  41  44
HETATM   44  C25 UNL     1      91.098  29.014  43.408  1.00  0.00     0.258 C 
BRANCH  44  45
HETATM   45  C26 UNL     1      92.538  29.501  43.318  1.00  0.00     0.191 C 
BRANCH  45  46
HETATM   46  O1  UNL     1      92.579  30.870  43.102  1.00  0.00    -0.399 OA
ATOM     47  H1  UNL     1      92.382  31.072  42.195  1.00  0.00     0.209 HD
ENDBRANCH  45  46
ENDBRANCH  44  45
ENDBRANCH  41  44
ENDBRANCH  40  41
ENDBRANCH  39  40
ENDBRANCH  38  39
ENDBRANCH  37  38
ENDBRANCH  34  37
ENDBRANCH  33  34
ENDBRANCH  24  33
BRANCH   1  48
HETATM   48  C2  UNL     1      87.627  32.346  49.524  1.00  0.00     0.034 C 
BRANCH  48  49
HETATM   49  C1  UNL     1      86.999  33.483  50.222  1.00  0.00     0.230 C 
BRANCH  49  50
HETATM   50  N1  UNL     1      85.584  33.642  49.908  1.00  0.00    -0.079 N 
ATOM     51  H13 UNL     1      85.461  34.164  49.040  1.00  0.00     0.274 HD
ATOM     52  H12 UNL     1      85.172  32.751  49.628  1.00  0.00     0.274 HD
ATOM     53  H11 UNL     1      85.048  34.066  50.664  1.00  0.00     0.274 HD
ENDBRANCH  49  50
ENDBRANCH  48  49
ENDBRANCH   1  48
TORSDOF 13
ENDMDL
MODEL 5
REMARK VINA RESULT: -7.543455339      2.533      5.701
REMARK  13 active torsions:
REMARK  status: ('A' for Active; 'I' for Inactive)
REMARK    1  A    between atoms: N1_1  and  C1_5 
REMARK    2  A    between atoms: C1_5  and  C2_6 
REMARK    3  A    between atoms: C2_6  and  C3_7 
REMARK    4  A    between atoms: C19_30  and  C20_31 
REMARK    5  A    between atoms: C20_31  and  N5_32 
REMARK    6  A    between atoms: N5_32  and  C21_35 
REMARK    7  A    between atoms: C21_35  and  C22_36 
REMARK    8  A    between atoms: C22_36  and  C23_37 
REMARK    9  A    between atoms: C23_37  and  C24_38 
REMARK   10  A    between atoms: C24_38  and  N6_39 
REMARK   11  A    between atoms: N6_39  and  C25_42 
REMARK   12  A    between atoms: C25_42  and  C26_43 
REMARK   13  A    between atoms: C26_43  and  O1_44 
ROOT
HETATM    1  C3  UNL     1      90.063  35.273  44.640  1.00  0.00     0.013 C 
HETATM    2  C4  UNL     1      90.469  34.425  45.811  1.00  0.00     0.026 C 
HETATM    3  C5  UNL     1      90.147  35.160  47.114  1.00  0.00     0.114 C 
HETATM    4  N2  UNL     1      89.000  34.632  47.785  1.00  0.00    -0.421 N 
ATOM      5  H2  UNL     1      88.119  35.145  47.837  1.00  0.00     0.153 HD
HETATM    6  C6  UNL     1      89.164  33.345  48.376  1.00  0.00     0.115 C 
HETATM    7  C7  UNL     1      88.909  33.486  49.882  1.00  0.00     0.046 C 
HETATM    8  C8  UNL     1      88.701  32.086  50.408  1.00  0.00     0.234 C 
HETATM    9  N3  UNL     1      88.794  31.085  49.386  1.00  0.00    -0.075 N 
ATOM     10  H31 UNL     1      89.551  30.431  49.586  1.00  0.00     0.277 HD
ATOM     11  H32 UNL     1      89.144  31.485  48.516  1.00  0.00     0.277 HD
HETATM   12  C9  UNL     1      87.557  30.385  49.167  1.00  0.00     0.237 C 
HETATM   13  C10 UNL     1      87.646  29.468  47.945  1.00  0.00     0.071 C 
HETATM   14  C11 UNL     1      86.743  30.096  46.895  1.00  0.00     0.057 C 
HETATM   15  N4  UNL     1      86.541  29.343  45.732  1.00  0.00    -0.398 N 
ATOM     16  H4  UNL     1      86.272  28.361  45.786  1.00  0.00     0.158 HD
HETATM   17  C12 UNL     1      86.723  29.983  44.461  1.00  0.00     0.158 C 
HETATM   18  C13 UNL     1      88.207  30.052  44.214  1.00  0.00    -0.031 A 
HETATM   19  C14 UNL     1      88.882  28.853  44.507  1.00  0.00     0.009 A 
HETATM   20  C15 UNL     1      90.230  28.718  44.346  1.00  0.00     0.002 A 
HETATM   21  C16 UNL     1      90.923  29.800  43.883  1.00  0.00     0.017 A 
HETATM   22  C17 UNL     1      90.274  30.985  43.590  1.00  0.00     0.041 A 
HETATM   23  C18 UNL     1      88.888  31.152  43.746  1.00  0.00    -0.011 A 
HETATM   24  C19 UNL     1      88.151  32.444  43.396  1.00  0.00     0.137 C 
HETATM   25  N7  UNL     1      88.777  33.479  43.966  1.00  0.00    -0.405 N 
ATOM     26  H7  UNL     1      88.664  33.524  44.979  1.00  0.00     0.154 HD
HETATM   27  C27 UNL     1      89.557  34.508  43.439  1.00  0.00     0.099 C 
HETATM   28  C28 UNL     1      90.565  34.189  42.424  1.00  0.00     0.148 C 
HETATM   29  N8  UNL     1      91.516  33.174  42.826  1.00  0.00    -0.355 N 
ATOM     30  H8  UNL     1      92.467  33.535  42.893  1.00  0.00     0.162 HD
HETATM   31  C29 UNL     1      91.434  31.791  43.149  1.00  0.00     0.252 C 
HETATM   32  O2  UNL     1      92.510  31.157  43.042  1.00  0.00    -0.268 OA
ENDROOT
BRANCH  24  33
HETATM   33  C20 UNL     1      87.875  32.281  41.939  1.00  0.00     0.261 C 
BRANCH  33  34
HETATM   34  N5  UNL     1      86.774  32.993  41.392  1.00  0.00    -0.073 N 
ATOM     35  H52 UNL     1      86.943  33.999  41.377  1.00  0.00     0.277 HD
ATOM     36  H51 UNL     1      86.684  32.839  40.388  1.00  0.00     0.277 HD
BRANCH  34  37
HETATM   37  C21 UNL     1      85.557  32.661  42.099  1.00  0.00     0.232 C 
BRANCH  37  38
HETATM   38  C22 UNL     1      84.807  33.843  42.637  1.00  0.00     0.029 C 
BRANCH  38  39
HETATM   39  C23 UNL     1      84.069  34.571  41.517  1.00  0.00     0.029 C 
BRANCH  39  40
HETATM   40  C24 UNL     1      82.619  34.672  41.911  1.00  0.00     0.232 C 
BRANCH  40  41
HETATM   41  N6  UNL     1      81.886  33.533  41.421  1.00  0.00    -0.073 N 
ATOM     42  H62 UNL     1      82.073  32.692  41.967  1.00  0.00     0.277 HD
ATOM     43  H61 UNL     1      80.886  33.612  41.608  1.00  0.00     0.277 HD
BRANCH  41  44
HETATM   44  C25 UNL     1      82.160  33.341  40.027  1.00  0.00     0.258 C 
BRANCH  44  45
HETATM   45  C26 UNL     1      82.290  31.846  39.767  1.00  0.00     0.191 C 
BRANCH  45  46
HETATM   46  O1  UNL     1      83.029  31.612  38.618  1.00  0.00    -0.399 OA
ATOM     47  H1  UNL     1      82.455  31.445  37.880  1.00  0.00     0.209 HD
ENDBRANCH  45  46
ENDBRANCH  44  45
ENDBRANCH  41  44
ENDBRANCH  40  41
ENDBRANCH  39  40
ENDBRANCH  38  39
ENDBRANCH  37  38
ENDBRANCH  34  37
ENDBRANCH  33  34
ENDBRANCH  24  33
BRANCH   1  48
HETATM   48  C2  UNL     1      90.781  36.526  44.427  1.00  0.00     0.034 C 
BRANCH  48  49
HETATM   49  C1  UNL     1      90.104  37.828  44.575  1.00  0.00     0.230 C 
BRANCH  49  50
HETATM   50  N1  UNL     1      89.728  38.430  43.302  1.00  0.00    -0.079 N 
ATOM     51  H13 UNL     1      90.457  39.062  42.970  1.00  0.00     0.274 HD
ATOM     52  H12 UNL     1      89.750  37.738  42.552  1.00  0.00     0.274 HD
ATOM     53  H11 UNL     1      88.825  38.903  43.331  1.00  0.00     0.274 HD
ENDBRANCH  49  50
ENDBRANCH  48  49
ENDBRANCH   1  48
TORSDOF 13
ENDMDL
