MODEL 1
REMARK VINA RESULT: -9.528693145      0.000      0.000
REMARK  15 active torsions:
REMARK  status: ('A' for Active; 'I' for Inactive)
REMARK    1  A    between atoms: C2_2  and  N1_3 
REMARK       I    between atoms: N1_3  and  C3_5 
REMARK    2  A    between atoms: C3_5  and  C4_7 
REMARK    3  A    between atoms: C4_7  and  N2_8 
REMARK    4  A    between atoms: N2_8  and  C5_10 
REMARK    5  A    between atoms: C6_13  and  N4_14 
REMARK    6  A    between atoms: N4_14  and  C7_16 
REMARK    7  A    between atoms: C7_16  and  C8_17 
REMARK    8  A    between atoms: C8_17  and  C9_18 
REMARK    9  A    between atoms: C9_18  and  C10_19 
REMARK   10  A    between atoms: C12_23  and  N6_24 
REMARK   11  A    between atoms: C14_34  and  N10_35 
REMARK   12  A    between atoms: N10_35  and  C15_37 
REMARK   13  A    between atoms: N11_44  and  C22_45 
REMARK   14  A    between atoms: C22_45  and  C23_46 
REMARK   15  A    between atoms: C23_46  and  O2_47 
ROOT
HETATM    1  C5  UNL     1      82.941  34.277  40.845  1.00  0.00     0.148 A 
HETATM    2  N3  UNL     1      82.157  33.445  40.107  1.00  0.00    -0.175 N 
ATOM      3  H3  UNL     1      81.384  33.838  39.570  1.00  0.00     0.186 HD
HETATM    4  C6  UNL     1      82.373  32.129  40.069  1.00  0.00     0.681 A 
HETATM    5  N8  UNL     1      83.413  31.631  40.796  1.00  0.00    -0.174 N 
ATOM      6  H8  UNL     1      83.590  30.626  40.776  1.00  0.00     0.186 HD
HETATM    7  C13 UNL     1      84.206  32.410  41.533  1.00  0.00     0.167 A 
HETATM    8  N9  UNL     1      85.285  32.172  42.333  1.00  0.00    -0.174 N 
ATOM      9  H9  UNL     1      85.689  31.251  42.503  1.00  0.00     0.186 HD
HETATM   10  C14 UNL     1      85.739  33.307  42.864  1.00  0.00     0.680 A 
HETATM   11  N12 UNL     1      84.923  34.273  42.383  1.00  0.00    -0.184 N 
ATOM     12  H12 UNL     1      85.014  35.264  42.610  1.00  0.00     0.184 HD
HETATM   13  C25 UNL     1      83.993  33.778  41.583  1.00  0.00     0.138 A 
ENDROOT
BRANCH   4  14
HETATM   14  N4  UNL     1      81.677  31.286  39.397  1.00  0.00    -0.226 N 
ATOM     15  H4  UNL     1      80.819  31.605  38.948  1.00  0.00     0.177 HD
BRANCH  14  16
HETATM   16  C7  UNL     1      82.061  29.916  39.255  1.00  0.00     0.138 C 
BRANCH  16  17
HETATM   17  C8  UNL     1      80.964  29.220  38.484  1.00  0.00     0.026 C 
BRANCH  17  18
HETATM   18  C9  UNL     1      81.104  27.751  38.360  1.00  0.00     0.060 C 
BRANCH  18  19
HETATM   19  C10 UNL     1      81.013  27.194  36.996  1.00  0.00     0.042 A 
HETATM   20  C11 UNL     1      79.891  26.891  36.257  1.00  0.00     0.131 A 
HETATM   21  N5  UNL     1      80.320  26.431  35.077  1.00  0.00    -0.200 N 
HETATM   22  C12 UNL     1      81.661  26.432  35.043  1.00  0.00     0.675 A 
ATOM     23  H5  UNL     1      79.716  26.124  34.314  1.00  0.00     0.183 HD
HETATM   24  N7  UNL     1      82.093  26.896  36.211  1.00  0.00    -0.195 N 
ATOM     25  H7  UNL     1      83.071  27.011  36.480  1.00  0.00     0.184 HD
BRANCH  22  26
HETATM   26  N6  UNL     1      82.433  26.057  34.066  1.00  0.00    -0.234 N 
ATOM     27  H62 UNL     1      83.298  26.526  33.798  1.00  0.00     0.174 HD
ATOM     28  H61 UNL     1      82.302  25.264  33.437  1.00  0.00     0.174 HD
ENDBRANCH  22  26
ENDBRANCH  18  19
ENDBRANCH  17  18
ENDBRANCH  16  17
ENDBRANCH  14  16
ENDBRANCH   4  14
BRANCH   1  29
HETATM   29  N2  UNL     1      82.663  35.511  40.828  1.00  0.00    -0.365 N 
ATOM     30  H2  UNL     1      83.265  36.084  41.420  1.00  0.00     0.161 HD
BRANCH  29  31
HETATM   31  C4  UNL     1      81.668  36.237  40.134  1.00  0.00     0.224 C 
BRANCH  31  32
HETATM   32  C3  UNL     1      82.054  36.588  38.746  1.00  0.00     0.235 C 
HETATM   33  N1  UNL     1      81.546  37.766  38.158  1.00  0.00    -0.360 N 
ATOM     34  H1  UNL     1      80.916  38.374  38.683  1.00  0.00     0.162 HD
HETATM   35  O1  UNL     1      82.829  35.800  38.155  1.00  0.00    -0.272 OA
BRANCH  33  36
HETATM   36  C2  UNL     1      81.929  38.104  36.796  1.00  0.00     0.118 C 
HETATM   37  C1  UNL     1      82.988  39.184  36.763  1.00  0.00     0.026 C 
ENDBRANCH  33  36
ENDBRANCH  31  32
ENDBRANCH  29  31
ENDBRANCH   1  29
BRANCH  10  38
HETATM   38  N10 UNL     1      86.822  33.533  43.757  1.00  0.00    -0.221 N 
ATOM     39  H10 UNL     1      86.620  33.507  44.756  1.00  0.00     0.178 HD
BRANCH  38  40
HETATM   40  C15 UNL     1      88.169  33.792  43.365  1.00  0.00     0.103 C 
HETATM   41  C16 UNL     1      88.335  34.888  42.345  1.00  0.00     0.061 C 
HETATM   42  C17 UNL     1      89.802  35.105  42.058  1.00  0.00     0.225 C 
HETATM   43  C18 UNL     1      90.473  33.774  41.774  1.00  0.00     0.038 C 
HETATM   44  N11 UNL     1      90.548  35.551  43.214  1.00  0.00     0.100 N 
HETATM   45  C19 UNL     1      90.881  33.291  43.152  1.00  0.00     0.038 C 
HETATM   46  C20 UNL     1      90.438  34.426  44.087  1.00  0.00     0.225 C 
HETATM   47  C21 UNL     1      89.042  34.167  44.561  1.00  0.00     0.061 C 
BRANCH  44  48
HETATM   48  C22 UNL     1      90.114  36.789  43.748  1.00  0.00     0.299 C 
BRANCH  48  49
HETATM   49  C23 UNL     1      91.121  37.234  44.800  1.00  0.00     0.197 C 
BRANCH  49  50
HETATM   50  O2  UNL     1      90.528  38.084  45.733  1.00  0.00    -0.394 OA
HETATM   51  C24 UNL     1      89.958  37.295  46.730  1.00  0.00     0.201 C 
ENDBRANCH  49  50
ENDBRANCH  48  49
ENDBRANCH  44  48
ENDBRANCH  38  40
ENDBRANCH  10  38
TORSDOF 15
ENDMDL
MODEL 2
REMARK VINA RESULT: -9.341589623      1.488      1.986
REMARK  15 active torsions:
REMARK  status: ('A' for Active; 'I' for Inactive)
REMARK    1  A    between atoms: C2_2  and  N1_3 
REMARK       I    between atoms: N1_3  and  C3_5 
REMARK    2  A    between atoms: C3_5  and  C4_7 
REMARK    3  A    between atoms: C4_7  and  N2_8 
REMARK    4  A    between atoms: N2_8  and  C5_10 
REMARK    5  A    between atoms: C6_13  and  N4_14 
REMARK    6  A    between atoms: N4_14  and  C7_16 
REMARK    7  A    between atoms: C7_16  and  C8_17 
REMARK    8  A    between atoms: C8_17  and  C9_18 
REMARK    9  A    between atoms: C9_18  and  C10_19 
REMARK   10  A    between atoms: C12_23  and  N6_24 
REMARK   11  A    between atoms: C14_34  and  N10_35 
REMARK   12  A    between atoms: N10_35  and  C15_37 
REMARK   13  A    between atoms: N11_44  and  C22_45 
REMARK   14  A    between atoms: C22_45  and  C23_46 
REMARK   15  A    between atoms: C23_46  and  O2_47 
ROOT
HETATM    1  C5  UNL     1      82.092  32.797  40.080  1.00  0.00     0.148 A 
HETATM    2  N3  UNL     1      81.599  31.604  39.653  1.00  0.00    -0.175 N 
ATOM      3  H3  UNL     1      80.770  31.593  39.058  1.00  0.00     0.186 HD
HETATM    4  C6  UNL     1      82.172  30.446  39.991  1.00  0.00     0.681 A 
HETATM    5  N8  UNL     1      83.279  30.490  40.785  1.00  0.00    -0.174 N 
ATOM      6  H8  UNL     1      83.727  29.613  41.051  1.00  0.00     0.186 HD
HETATM    7  C13 UNL     1      83.795  31.638  41.227  1.00  0.00     0.167 A 
HETATM    8  N9  UNL     1      84.865  31.952  42.013  1.00  0.00    -0.174 N 
ATOM      9  H9  UNL     1      85.501  31.269  42.426  1.00  0.00     0.186 HD
HETATM   10  C14 UNL     1      84.966  33.271  42.169  1.00  0.00     0.680 A 
HETATM   11  N12 UNL     1      83.934  33.790  41.463  1.00  0.00    -0.184 N 
ATOM     12  H12 UNL     1      83.738  34.788  41.387  1.00  0.00     0.184 HD
HETATM   13  C25 UNL     1      83.210  32.846  40.884  1.00  0.00     0.138 A 
ENDROOT
BRANCH   4  14
HETATM   14  N4  UNL     1      81.764  29.286  39.625  1.00  0.00    -0.226 N 
ATOM     15  H4  UNL     1      82.109  28.465  40.122  1.00  0.00     0.177 HD
BRANCH  14  16
HETATM   16  C7  UNL     1      80.843  29.103  38.546  1.00  0.00     0.138 C 
BRANCH  16  17
HETATM   17  C8  UNL     1      81.190  27.794  37.878  1.00  0.00     0.026 C 
BRANCH  17  18
HETATM   18  C9  UNL     1      80.048  27.050  37.299  1.00  0.00     0.060 C 
BRANCH  18  19
HETATM   19  C10 UNL     1      80.179  26.636  35.888  1.00  0.00     0.042 A 
HETATM   20  C11 UNL     1      81.320  26.367  35.166  1.00  0.00     0.131 A 
HETATM   21  N5  UNL     1      80.925  26.012  33.938  1.00  0.00    -0.200 N 
HETATM   22  C12 UNL     1      79.587  26.046  33.860  1.00  0.00     0.675 A 
ATOM     23  H5  UNL     1      81.550  25.752  33.175  1.00  0.00     0.183 HD
HETATM   24  N7  UNL     1      79.122  26.427  35.045  1.00  0.00    -0.195 N 
ATOM     25  H7  UNL     1      78.138  26.545  35.287  1.00  0.00     0.184 HD
BRANCH  22  26
HETATM   26  N6  UNL     1      78.843  25.766  32.830  1.00  0.00    -0.234 N 
ATOM     27  H62 UNL     1      78.657  26.406  32.057  1.00  0.00     0.174 HD
ATOM     28  H61 UNL     1      78.346  24.895  32.638  1.00  0.00     0.174 HD
ENDBRANCH  22  26
ENDBRANCH  18  19
ENDBRANCH  17  18
ENDBRANCH  16  17
ENDBRANCH  14  16
ENDBRANCH   4  14
BRANCH   1  29
HETATM   29  N2  UNL     1      81.485  33.845  39.716  1.00  0.00    -0.365 N 
ATOM     30  H2  UNL     1      81.342  33.917  38.708  1.00  0.00     0.161 HD
BRANCH  29  31
HETATM   31  C4  UNL     1      80.969  34.934  40.455  1.00  0.00     0.224 C 
BRANCH  31  32
HETATM   32  C3  UNL     1      81.545  36.242  40.059  1.00  0.00     0.235 C 
HETATM   33  N1  UNL     1      81.117  36.858  38.863  1.00  0.00    -0.360 N 
ATOM     34  H1  UNL     1      80.417  36.408  38.273  1.00  0.00     0.162 HD
HETATM   35  O1  UNL     1      82.402  36.742  40.825  1.00  0.00    -0.272 OA
BRANCH  33  36
HETATM   36  C2  UNL     1      81.687  38.141  38.481  1.00  0.00     0.118 C 
HETATM   37  C1  UNL     1      82.212  38.122  37.063  1.00  0.00     0.026 C 
ENDBRANCH  33  36
ENDBRANCH  31  32
ENDBRANCH  29  31
ENDBRANCH   1  29
BRANCH  10  38
HETATM   38  N10 UNL     1      85.907  34.038  42.909  1.00  0.00    -0.221 N 
ATOM     39  H10 UNL     1      85.645  34.992  43.155  1.00  0.00     0.178 HD
BRANCH  38  40
HETATM   40  C15 UNL     1      87.189  33.578  43.332  1.00  0.00     0.103 C 
HETATM   41  C16 UNL     1      88.345  34.457  42.933  1.00  0.00     0.061 C 
HETATM   42  C17 UNL     1      89.633  33.895  43.486  1.00  0.00     0.225 C 
HETATM   43  C18 UNL     1      89.731  32.416  43.162  1.00  0.00     0.038 C 
HETATM   44  N11 UNL     1      89.666  33.866  44.932  1.00  0.00     0.100 N 
HETATM   45  C19 UNL     1      89.019  31.759  44.328  1.00  0.00     0.038 C 
HETATM   46  C20 UNL     1      88.623  32.936  45.231  1.00  0.00     0.225 C 
HETATM   47  C21 UNL     1      87.258  33.421  44.850  1.00  0.00     0.061 C 
BRANCH  44  48
HETATM   48  C22 UNL     1      89.551  35.137  45.545  1.00  0.00     0.299 C 
BRANCH  48  49
HETATM   49  C23 UNL     1      89.857  34.980  47.029  1.00  0.00     0.197 C 
BRANCH  49  50
HETATM   50  O2  UNL     1      89.782  36.207  47.688  1.00  0.00    -0.394 OA
HETATM   51  C24 UNL     1      89.959  37.213  46.741  1.00  0.00     0.201 C 
ENDBRANCH  49  50
ENDBRANCH  48  49
ENDBRANCH  44  48
ENDBRANCH  38  40
ENDBRANCH  10  38
TORSDOF 15
ENDMDL
MODEL 3
REMARK VINA RESULT: -9.265991889      2.438     10.575
REMARK  15 active torsions:
REMARK  status: ('A' for Active; 'I' for Inactive)
REMARK    1  A    between atoms: C2_2  and  N1_3 
REMARK       I    between atoms: N1_3  and  C3_5 
REMARK    2  A    between atoms: C3_5  and  C4_7 
REMARK    3  A    between atoms: C4_7  and  N2_8 
REMARK    4  A    between atoms: N2_8  and  C5_10 
REMARK    5  A    between atoms: C6_13  and  N4_14 
REMARK    6  A    between atoms: N4_14  and  C7_16 
REMARK    7  A    between atoms: C7_16  and  C8_17 
REMARK    8  A    between atoms: C8_17  and  C9_18 
REMARK    9  A    between atoms: C9_18  and  C10_19 
REMARK   10  A    between atoms: C12_23  and  N6_24 
REMARK   11  A    between atoms: C14_34  and  N10_35 
REMARK   12  A    between atoms: N10_35  and  C15_37 
REMARK   13  A    between atoms: N11_44  and  C22_45 
REMARK   14  A    between atoms: C22_45  and  C23_46 
REMARK   15  A    between atoms: C23_46  and  O2_47 
ROOT
HETATM    1  C5  UNL     1      83.078  33.281  40.371  1.00  0.00     0.148 A 
HETATM    2  N3  UNL     1      84.122  33.401  41.236  1.00  0.00    -0.175 N 
ATOM      3  H3  UNL     1      84.489  34.329  41.447  1.00  0.00     0.186 HD
HETATM    4  C6  UNL     1      84.677  32.335  41.817  1.00  0.00     0.681 A 
HETATM    5  N8  UNL     1      84.168  31.107  41.518  1.00  0.00    -0.174 N 
ATOM      6  H8  UNL     1      84.582  30.283  41.954  1.00  0.00     0.186 HD
HETATM    7  C13 UNL     1      83.145  30.944  40.676  1.00  0.00     0.167 A 
HETATM    8  N9  UNL     1      82.464  29.855  40.217  1.00  0.00    -0.174 N 
ATOM      9  H9  UNL     1      82.663  28.891  40.486  1.00  0.00     0.186 HD
HETATM   10  C14 UNL     1      81.504  30.222  39.369  1.00  0.00     0.680 A 
HETATM   11  N12 UNL     1      81.590  31.570  39.299  1.00  0.00    -0.184 N 
ATOM     12  H12 UNL     1      80.981  32.153  38.724  1.00  0.00     0.184 HD
HETATM   13  C25 UNL     1      82.559  32.041  40.066  1.00  0.00     0.138 A 
ENDROOT
BRANCH   4  14
HETATM   14  N4  UNL     1      85.661  32.372  42.640  1.00  0.00    -0.226 N 
ATOM     15  H4  UNL     1      85.531  32.836  43.539  1.00  0.00     0.177 HD
BRANCH  14  16
HETATM   16  C7  UNL     1      86.931  31.787  42.343  1.00  0.00     0.138 C 
BRANCH  16  17
HETATM   17  C8  UNL     1      87.649  32.725  41.404  1.00  0.00     0.026 C 
BRANCH  17  18
HETATM   18  C9  UNL     1      88.114  33.997  42.004  1.00  0.00     0.060 C 
BRANCH  18  19
HETATM   19  C10 UNL     1      89.409  34.518  41.523  1.00  0.00     0.042 A 
HETATM   20  C11 UNL     1      90.047  35.693  41.856  1.00  0.00     0.131 A 
HETATM   21  N5  UNL     1      91.200  35.710  41.179  1.00  0.00    -0.200 N 
HETATM   22  C12 UNL     1      91.312  34.598  40.436  1.00  0.00     0.675 A 
ATOM     23  H5  UNL     1      91.893  36.458  41.221  1.00  0.00     0.183 HD
HETATM   24  N7  UNL     1      90.222  33.865  40.640  1.00  0.00    -0.195 N 
ATOM     25  H7  UNL     1      90.025  32.962  40.207  1.00  0.00     0.184 HD
BRANCH  22  26
HETATM   26  N6  UNL     1      92.292  34.263  39.649  1.00  0.00    -0.234 N 
ATOM     27  H62 UNL     1      93.111  33.728  39.938  1.00  0.00     0.174 HD
ATOM     28  H61 UNL     1      92.393  34.472  38.655  1.00  0.00     0.174 HD
ENDBRANCH  22  26
ENDBRANCH  18  19
ENDBRANCH  17  18
ENDBRANCH  16  17
ENDBRANCH  14  16
ENDBRANCH   4  14
BRANCH   1  29
HETATM   29  N2  UNL     1      82.614  34.343  39.864  1.00  0.00    -0.365 N 
ATOM     30  H2  UNL     1      83.099  34.651  39.021  1.00  0.00     0.161 HD
BRANCH  29  31
HETATM   31  C4  UNL     1      81.544  35.179  40.257  1.00  0.00     0.224 C 
BRANCH  31  32
HETATM   32  C3  UNL     1      81.739  36.601  39.883  1.00  0.00     0.235 C 
HETATM   33  N1  UNL     1      81.424  37.026  38.574  1.00  0.00    -0.360 N 
ATOM     34  H1  UNL     1      81.066  36.362  37.888  1.00  0.00     0.162 HD
HETATM   35  O1  UNL     1      82.184  37.367  40.769  1.00  0.00    -0.272 OA
BRANCH  33  36
HETATM   36  C2  UNL     1      81.617  38.422  38.214  1.00  0.00     0.118 C 
HETATM   37  C1  UNL     1      82.367  38.567  36.908  1.00  0.00     0.026 C 
ENDBRANCH  33  36
ENDBRANCH  31  32
ENDBRANCH  29  31
ENDBRANCH   1  29
BRANCH  10  38
HETATM   38  N10 UNL     1      80.567  29.432  38.647  1.00  0.00    -0.221 N 
ATOM     39  H10 UNL     1      79.737  29.901  38.286  1.00  0.00     0.178 HD
BRANCH  38  40
HETATM   40  C15 UNL     1      80.698  28.035  38.389  1.00  0.00     0.103 C 
HETATM   41  C16 UNL     1      79.778  27.496  37.325  1.00  0.00     0.061 C 
HETATM   42  C17 UNL     1      80.052  26.027  37.105  1.00  0.00     0.225 C 
HETATM   43  C18 UNL     1      80.083  25.304  38.439  1.00  0.00     0.038 C 
HETATM   44  N11 UNL     1      81.387  25.764  36.615  1.00  0.00     0.100 N 
HETATM   45  C19 UNL     1      81.529  25.442  38.873  1.00  0.00     0.038 C 
HETATM   46  C20 UNL     1      82.194  26.197  37.713  1.00  0.00     0.225 C 
HETATM   47  C21 UNL     1      82.120  27.671  37.968  1.00  0.00     0.061 C 
BRANCH  44  48
HETATM   48  C22 UNL     1      81.679  26.362  35.365  1.00  0.00     0.299 C 
BRANCH  48  49
HETATM   49  C23 UNL     1      80.985  25.553  34.276  1.00  0.00     0.197 C 
BRANCH  49  50
HETATM   50  O2  UNL     1      80.388  26.390  33.335  1.00  0.00    -0.394 OA
HETATM   51  C24 UNL     1      79.553  25.610  32.537  1.00  0.00     0.201 C 
ENDBRANCH  49  50
ENDBRANCH  48  49
ENDBRANCH  44  48
ENDBRANCH  38  40
ENDBRANCH  10  38
TORSDOF 15
ENDMDL
MODEL 4
REMARK VINA RESULT: -9.249998844      1.433      1.973
REMARK  15 active torsions:
REMARK  status: ('A' for Active; 'I' for Inactive)
REMARK    1  A    between atoms: C2_2  and  N1_3 
REMARK       I    between atoms: N1_3  and  C3_5 
REMARK    2  A    between atoms: C3_5  and  C4_7 
REMARK    3  A    between atoms: C4_7  and  N2_8 
REMARK    4  A    between atoms: N2_8  and  C5_10 
REMARK    5  A    between atoms: C6_13  and  N4_14 
REMARK    6  A    between atoms: N4_14  and  C7_16 
REMARK    7  A    between atoms: C7_16  and  C8_17 
REMARK    8  A    between atoms: C8_17  and  C9_18 
REMARK    9  A    between atoms: C9_18  and  C10_19 
REMARK   10  A    between atoms: C12_23  and  N6_24 
REMARK   11  A    between atoms: C14_34  and  N10_35 
REMARK   12  A    between atoms: N10_35  and  C15_37 
REMARK   13  A    between atoms: N11_44  and  C22_45 
REMARK   14  A    between atoms: C22_45  and  C23_46 
REMARK   15  A    between atoms: C23_46  and  O2_47 
ROOT
HETATM    1  C5  UNL     1      81.972  32.437  40.075  1.00  0.00     0.148 A 
HETATM    2  N3  UNL     1      81.452  31.272  39.600  1.00  0.00    -0.175 N 
ATOM      3  H3  UNL     1      80.614  31.302  39.019  1.00  0.00     0.186 HD
HETATM    4  C6  UNL     1      82.010  30.091  39.876  1.00  0.00     0.681 A 
HETATM    5  N8  UNL     1      83.129  30.080  40.653  1.00  0.00    -0.174 N 
ATOM      6  H8  UNL     1      83.567  29.185  40.872  1.00  0.00     0.186 HD
HETATM    7  C13 UNL     1      83.672  31.197  41.140  1.00  0.00     0.167 A 
HETATM    8  N9  UNL     1      84.759  31.457  41.923  1.00  0.00    -0.174 N 
ATOM      9  H9  UNL     1      85.389  30.746  42.294  1.00  0.00     0.186 HD
HETATM   10  C14 UNL     1      84.884  32.766  42.137  1.00  0.00     0.680 A 
HETATM   11  N12 UNL     1      83.851  33.334  41.473  1.00  0.00    -0.184 N 
ATOM     12  H12 UNL     1      83.672  34.338  41.445  1.00  0.00     0.184 HD
HETATM   13  C25 UNL     1      83.103  32.430  40.862  1.00  0.00     0.138 A 
ENDROOT
BRANCH   4  14
HETATM   14  N4  UNL     1      81.577  28.956  39.464  1.00  0.00    -0.226 N 
ATOM     15  H4  UNL     1      81.758  28.126  40.029  1.00  0.00     0.177 HD
BRANCH  14  16
HETATM   16  C7  UNL     1      80.849  28.811  38.241  1.00  0.00     0.138 C 
BRANCH  16  17
HETATM   17  C8  UNL     1      81.307  27.525  37.596  1.00  0.00     0.026 C 
BRANCH  17  18
HETATM   18  C9  UNL     1      80.256  26.753  36.895  1.00  0.00     0.060 C 
BRANCH  18  19
HETATM   19  C10 UNL     1      80.501  26.446  35.472  1.00  0.00     0.042 A 
HETATM   20  C11 UNL     1      81.695  26.193  34.834  1.00  0.00     0.131 A 
HETATM   21  N5  UNL     1      81.402  25.950  33.552  1.00  0.00    -0.200 N 
HETATM   22  C12 UNL     1      80.078  26.039  33.359  1.00  0.00     0.675 A 
ATOM     23  H5  UNL     1      82.086  25.728  32.827  1.00  0.00     0.183 HD
HETATM   24  N7  UNL     1      79.520  26.343  34.526  1.00  0.00    -0.195 N 
ATOM     25  H7  UNL     1      78.521  26.477  34.689  1.00  0.00     0.184 HD
BRANCH  22  26
HETATM   26  N6  UNL     1      79.422  25.868  32.248  1.00  0.00    -0.234 N 
ATOM     27  H62 UNL     1      79.686  25.209  31.515  1.00  0.00     0.174 HD
ATOM     28  H61 UNL     1      78.574  26.346  31.945  1.00  0.00     0.174 HD
ENDBRANCH  22  26
ENDBRANCH  18  19
ENDBRANCH  17  18
ENDBRANCH  16  17
ENDBRANCH  14  16
ENDBRANCH   4  14
BRANCH   1  29
HETATM   29  N2  UNL     1      81.377  33.510  39.768  1.00  0.00    -0.365 N 
ATOM     30  H2  UNL     1      80.673  33.405  39.038  1.00  0.00     0.161 HD
BRANCH  29  31
HETATM   31  C4  UNL     1      81.515  34.829  40.257  1.00  0.00     0.224 C 
BRANCH  31  32
HETATM   32  C3  UNL     1      82.009  35.787  39.238  1.00  0.00     0.235 C 
HETATM   33  N1  UNL     1      81.231  36.918  38.909  1.00  0.00    -0.360 N 
ATOM     34  H1  UNL     1      80.333  37.077  39.368  1.00  0.00     0.162 HD
HETATM   35  O1  UNL     1      83.117  35.535  38.710  1.00  0.00    -0.272 OA
BRANCH  33  36
HETATM   36  C2  UNL     1      81.722  37.853  37.909  1.00  0.00     0.118 C 
HETATM   37  C1  UNL     1      81.845  39.255  38.464  1.00  0.00     0.026 C 
ENDBRANCH  33  36
ENDBRANCH  31  32
ENDBRANCH  29  31
ENDBRANCH   1  29
BRANCH  10  38
HETATM   38  N10 UNL     1      85.850  33.482  42.896  1.00  0.00    -0.221 N 
ATOM     39  H10 UNL     1      85.530  34.305  43.406  1.00  0.00     0.178 HD
BRANCH  38  40
HETATM   40  C15 UNL     1      87.231  33.140  43.000  1.00  0.00     0.103 C 
HETATM   41  C16 UNL     1      88.032  33.336  41.739  1.00  0.00     0.061 C 
HETATM   42  C17 UNL     1      89.481  32.996  41.993  1.00  0.00     0.225 C 
HETATM   43  C18 UNL     1      89.580  31.650  42.686  1.00  0.00     0.038 C 
HETATM   44  N11 UNL     1      90.105  33.859  42.972  1.00  0.00     0.100 N 
HETATM   45  C19 UNL     1      89.474  32.008  44.155  1.00  0.00     0.038 C 
HETATM   46  C20 UNL     1      89.371  33.540  44.156  1.00  0.00     0.225 C 
HETATM   47  C21 UNL     1      87.930  33.943  44.095  1.00  0.00     0.061 C 
BRANCH  44  48
HETATM   48  C22 UNL     1      90.129  35.229  42.613  1.00  0.00     0.299 C 
BRANCH  48  49
HETATM   49  C23 UNL     1      91.489  35.798  42.993  1.00  0.00     0.197 C 
BRANCH  49  50
HETATM   50  O2  UNL     1      91.394  37.152  43.312  1.00  0.00    -0.394 OA
HETATM   51  C24 UNL     1      90.667  37.262  44.496  1.00  0.00     0.201 C 
ENDBRANCH  49  50
ENDBRANCH  48  49
ENDBRANCH  44  48
ENDBRANCH  38  40
ENDBRANCH  10  38
TORSDOF 15
ENDMDL
MODEL 5
REMARK VINA RESULT: -9.213597019      1.251      1.455
REMARK  15 active torsions:
REMARK  status: ('A' for Active; 'I' for Inactive)
REMARK    1  A    between atoms: C2_2  and  N1_3 
REMARK       I    between atoms: N1_3  and  C3_5 
REMARK    2  A    between atoms: C3_5  and  C4_7 
REMARK    3  A    between atoms: C4_7  and  N2_8 
REMARK    4  A    between atoms: N2_8  and  C5_10 
REMARK    5  A    between atoms: C6_13  and  N4_14 
REMARK    6  A    between atoms: N4_14  and  C7_16 
REMARK    7  A    between atoms: C7_16  and  C8_17 
REMARK    8  A    between atoms: C8_17  and  C9_18 
REMARK    9  A    between atoms: C9_18  and  C10_19 
REMARK   10  A    between atoms: C12_23  and  N6_24 
REMARK   11  A    between atoms: C14_34  and  N10_35 
REMARK   12  A    between atoms: N10_35  and  C15_37 
REMARK   13  A    between atoms: N11_44  and  C22_45 
REMARK   14  A    between atoms: C22_45  and  C23_46 
REMARK   15  A    between atoms: C23_46  and  O2_47 
ROOT
HETATM    1  C5  UNL     1      82.642  33.064  40.282  1.00  0.00     0.148 A 
HETATM    2  N3  UNL     1      82.055  31.846  40.131  1.00  0.00    -0.175 N 
ATOM      3  H3  UNL     1      81.146  31.786  39.672  1.00  0.00     0.186 HD
HETATM    4  C6  UNL     1      82.638  30.728  40.568  1.00  0.00     0.681 A 
HETATM    5  N8  UNL     1      83.852  30.837  41.177  1.00  0.00    -0.174 N 
ATOM      6  H8  UNL     1      84.310  29.990  41.516  1.00  0.00     0.186 HD
HETATM    7  C13 UNL     1      84.463  32.011  41.346  1.00  0.00     0.167 A 
HETATM    8  N9  UNL     1      85.648  32.387  41.908  1.00  0.00    -0.174 N 
ATOM      9  H9  UNL     1      86.318  31.745  42.331  1.00  0.00     0.186 HD
HETATM   10  C14 UNL     1      85.810  33.707  41.829  1.00  0.00     0.680 A 
HETATM   11  N12 UNL     1      84.700  34.163  41.204  1.00  0.00    -0.184 N 
ATOM     12  H12 UNL     1      84.525  35.146  40.994  1.00  0.00     0.184 HD
HETATM   13  C25 UNL     1      83.869  33.180  40.897  1.00  0.00     0.138 A 
ENDROOT
BRANCH   4  14
HETATM   14  N4  UNL     1      82.145  29.548  40.460  1.00  0.00    -0.226 N 
ATOM     15  H4  UNL     1      81.571  29.184  41.221  1.00  0.00     0.177 HD
BRANCH  14  16
HETATM   16  C7  UNL     1      82.372  28.724  39.314  1.00  0.00     0.138 C 
BRANCH  16  17
HETATM   17  C8  UNL     1      81.169  28.867  38.413  1.00  0.00     0.026 C 
BRANCH  17  18
HETATM   18  C9  UNL     1      80.464  27.607  38.086  1.00  0.00     0.060 C 
BRANCH  18  19
HETATM   19  C10 UNL     1      80.688  27.058  36.734  1.00  0.00     0.042 A 
HETATM   20  C11 UNL     1      79.761  26.668  35.792  1.00  0.00     0.131 A 
HETATM   21  N5  UNL     1      80.448  26.259  34.721  1.00  0.00    -0.200 N 
HETATM   22  C12 UNL     1      81.765  26.376  34.949  1.00  0.00     0.675 A 
ATOM     23  H5  UNL     1      80.033  25.911  33.857  1.00  0.00     0.183 HD
HETATM   24  N7  UNL     1      81.920  26.862  36.176  1.00  0.00    -0.195 N 
ATOM     25  H7  UNL     1      82.814  27.057  36.628  1.00  0.00     0.184 HD
BRANCH  22  26
HETATM   26  N6  UNL     1      82.742  26.078  34.143  1.00  0.00    -0.234 N 
ATOM     27  H62 UNL     1      83.532  25.480  34.386  1.00  0.00     0.174 HD
ATOM     28  H61 UNL     1      82.868  26.381  33.177  1.00  0.00     0.174 HD
ENDBRANCH  22  26
ENDBRANCH  18  19
ENDBRANCH  17  18
ENDBRANCH  16  17
ENDBRANCH  14  16
ENDBRANCH   4  14
BRANCH   1  29
HETATM   29  N2  UNL     1      82.018  34.072  39.841  1.00  0.00    -0.365 N 
ATOM     30  H2  UNL     1      82.057  34.179  38.828  1.00  0.00     0.161 HD
BRANCH  29  31
HETATM   31  C4  UNL     1      81.276  35.078  40.503  1.00  0.00     0.224 C 
BRANCH  31  32
HETATM   32  C3  UNL     1      81.629  36.452  40.071  1.00  0.00     0.235 C 
HETATM   33  N1  UNL     1      81.249  36.898  38.787  1.00  0.00    -0.360 N 
ATOM     34  H1  UNL     1      80.735  36.280  38.158  1.00  0.00     0.162 HD
HETATM   35  O1  UNL     1      82.262  37.160  40.889  1.00  0.00    -0.272 OA
BRANCH  33  36
HETATM   36  C2  UNL     1      81.598  38.247  38.370  1.00  0.00     0.118 C 
HETATM   37  C1  UNL     1      82.218  38.266  36.991  1.00  0.00     0.026 C 
ENDBRANCH  33  36
ENDBRANCH  31  32
ENDBRANCH  29  31
ENDBRANCH   1  29
BRANCH  10  38
HETATM   38  N10 UNL     1      86.875  34.529  42.289  1.00  0.00    -0.221 N 
ATOM     39  H10 UNL     1      86.747  35.539  42.230  1.00  0.00     0.178 HD
BRANCH  38  40
HETATM   40  C15 UNL     1      88.107  34.053  42.827  1.00  0.00     0.103 C 
HETATM   41  C16 UNL     1      89.244  35.040  42.786  1.00  0.00     0.061 C 
HETATM   42  C17 UNL     1      90.469  34.440  43.434  1.00  0.00     0.225 C 
HETATM   43  C18 UNL     1      90.722  33.054  42.871  1.00  0.00     0.038 C 
HETATM   44  N11 UNL     1      90.282  34.140  44.836  1.00  0.00     0.100 N 
HETATM   45  C19 UNL     1      89.889  32.159  43.768  1.00  0.00     0.038 C 
HETATM   46  C20 UNL     1      89.276  33.127  44.790  1.00  0.00     0.225 C 
HETATM   47  C21 UNL     1      87.954  33.616  44.283  1.00  0.00     0.061 C 
BRANCH  44  48
HETATM   48  C22 UNL     1      89.983  35.267  45.640  1.00  0.00     0.299 C 
BRANCH  48  49
HETATM   49  C23 UNL     1      90.903  35.245  46.854  1.00  0.00     0.197 C 
BRANCH  49  50
HETATM   50  O2  UNL     1      90.998  36.510  47.433  1.00  0.00    -0.394 OA
HETATM   51  C24 UNL     1      89.925  37.272  46.976  1.00  0.00     0.201 C 
ENDBRANCH  49  50
ENDBRANCH  48  49
ENDBRANCH  44  48
ENDBRANCH  38  40
ENDBRANCH  10  38
TORSDOF 15
ENDMDL
