MODEL 1
REMARK VINA RESULT: -9.659407862      0.000      0.000
REMARK  14 active torsions:
REMARK  status: ('A' for Active; 'I' for Inactive)
REMARK    1  A    between atoms: N1_1  and  C1_4 
REMARK    2  A    between atoms: C2_11  and  N5_12 
REMARK    3  A    between atoms: N5_12  and  S1_14 
REMARK    4  A    between atoms: S1_14  and  C3_17 
REMARK    5  A    between atoms: C6_20  and  N6_21 
REMARK    6  A    between atoms: N6_21  and  C7_23 
REMARK    7  A    between atoms: C7_23  and  C8_24 
REMARK    8  A    between atoms: C8_24  and  N7_25 
REMARK    9  A    between atoms: N7_25  and  C9_28 
REMARK   10  A    between atoms: C9_28  and  C10_29 
REMARK   11  A    between atoms: C10_29  and  C11_30 
REMARK   12  A    between atoms: C14_33  and  N8_34 
REMARK   13  A    between atoms: N8_34  and  S2_36 
REMARK   14  A    between atoms: S2_36  and  C15_39 
ROOT
HETATM    1  C7  UNL     1      82.805  32.012  40.078  1.00  0.00     0.147 C 
ENDROOT
BRANCH   1   2
HETATM    2  N6  UNL     1      82.121  30.810  40.362  1.00  0.00    -0.388 N 
ATOM      3  H6  UNL     1      81.644  30.766  41.262  1.00  0.00     0.159 HD
BRANCH   2   4
HETATM    4  C6  UNL     1      82.020  29.658  39.544  1.00  0.00     0.028 A 
HETATM    5  C5  UNL     1      81.030  29.426  38.622  1.00  0.00     0.030 A 
HETATM    6  C4  UNL     1      81.035  28.275  37.818  1.00  0.00     0.027 A 
HETATM    7  C3  UNL     1      82.026  27.321  37.909  1.00  0.00     0.080 A 
HETATM    8  C21 UNL     1      83.013  27.545  38.825  1.00  0.00     0.027 A 
HETATM    9  C20 UNL     1      83.015  28.671  39.617  1.00  0.00     0.030 A 
BRANCH   7  10
HETATM   10  S1  UNL     1      82.002  25.908  36.862  1.00  0.00     0.264 S 
HETATM   11  O1  UNL     1      83.348  25.202  37.155  1.00  0.00    -0.200 OA
HETATM   12  O2  UNL     1      80.905  24.975  37.345  1.00  0.00    -0.200 OA
BRANCH  10  13
HETATM   13  N5  UNL     1      81.917  26.215  35.234  1.00  0.00    -0.262 N 
ATOM     14  H5  UNL     1      82.804  26.547  34.856  1.00  0.00     0.180 HD
BRANCH  13  15
HETATM   15  C2  UNL     1      81.016  26.136  34.346  1.00  0.00     0.176 A 
HETATM   16  C1  UNL     1      79.636  26.200  34.399  1.00  0.00     0.162 A 
HETATM   17  N2  UNL     1      79.195  26.032  33.132  1.00  0.00    -0.268 N 
HETATM   18  N3  UNL     1      80.230  25.874  32.335  1.00  0.00    -0.239 N 
ATOM     19  H2  UNL     1      78.217  26.027  32.841  1.00  0.00     0.190 HD
HETATM   20  N4  UNL     1      81.333  25.930  33.027  1.00  0.00    -0.267 N 
ATOM     21  H3  UNL     1      80.177  25.730  31.327  1.00  0.00     0.208 HD
ATOM     22  H4  UNL     1      82.276  25.837  32.650  1.00  0.00     0.190 HD
BRANCH  16  23
HETATM   23  N1  UNL     1      78.922  26.383  35.447  1.00  0.00    -0.381 N 
ATOM     24  H12 UNL     1      78.153  25.794  35.767  1.00  0.00     0.157 HD
ATOM     25  H11 UNL     1      79.007  27.141  36.124  1.00  0.00     0.157 HD
ENDBRANCH  16  23
ENDBRANCH  13  15
ENDBRANCH  10  13
ENDBRANCH   7  10
ENDBRANCH   2   4
ENDBRANCH   1   2
BRANCH   1  26
HETATM   26  C8  UNL     1      82.109  33.308  40.367  1.00  0.00     0.251 C 
BRANCH  26  27
HETATM   27  N7  UNL     1      82.524  33.788  41.685  1.00  0.00    -0.073 N 
ATOM     28  H72 UNL     1      82.053  34.658  41.935  1.00  0.00     0.277 HD
ATOM     29  H71 UNL     1      82.161  33.198  42.433  1.00  0.00     0.277 HD
BRANCH  27  30
HETATM   30  C9  UNL     1      83.949  33.917  41.755  1.00  0.00     0.238 C 
BRANCH  30  31
HETATM   31  C10 UNL     1      84.452  33.852  43.173  1.00  0.00     0.084 C 
BRANCH  31  32
HETATM   32  C11 UNL     1      85.914  33.896  43.240  1.00  0.00     0.010 A 
HETATM   33  C12 UNL     1      86.680  34.219  42.142  1.00  0.00     0.027 A 
HETATM   34  C13 UNL     1      88.050  34.235  42.175  1.00  0.00     0.033 A 
HETATM   35  C14 UNL     1      88.721  33.912  43.365  1.00  0.00     0.058 A 
HETATM   36  C19 UNL     1      87.935  33.595  44.445  1.00  0.00     0.118 A 
HETATM   37  N10 UNL     1      86.598  33.593  44.362  1.00  0.00    -0.367 N 
ATOM     38  H10 UNL     1      86.066  33.348  45.197  1.00  0.00     0.165 HD
BRANCH  35  39
HETATM   39  N8  UNL     1      90.137  33.909  43.393  1.00  0.00    -0.279 N 
ATOM     40  H8  UNL     1      90.643  33.024  43.376  1.00  0.00     0.179 HD
BRANCH  39  41
HETATM   41  S2  UNL     1      91.002  35.383  43.455  1.00  0.00     0.264 S 
HETATM   42  O3  UNL     1      92.465  35.146  43.150  1.00  0.00    -0.200 OA
HETATM   43  O4  UNL     1      90.430  36.424  42.573  1.00  0.00    -0.200 OA
BRANCH  41  44
HETATM   44  C15 UNL     1      90.942  35.945  45.132  1.00  0.00     0.096 A 
HETATM   45  C16 UNL     1      90.194  36.981  45.615  1.00  0.00     0.043 A 
HETATM   46  C17 UNL     1      90.467  37.050  46.983  1.00  0.00     0.089 A 
HETATM   47  N9  UNL     1      91.349  36.094  47.326  1.00  0.00    -0.374 N 
HETATM   48  C18 UNL     1      91.637  35.420  46.199  1.00  0.00     0.112 A 
ATOM     49  H9  UNL     1      91.724  35.915  48.258  1.00  0.00     0.164 HD
ENDBRANCH  41  44
ENDBRANCH  39  41
ENDBRANCH  35  39
ENDBRANCH  31  32
ENDBRANCH  30  31
ENDBRANCH  27  30
ENDBRANCH  26  27
ENDBRANCH   1  26
TORSDOF 14
ENDMDL
MODEL 2
REMARK VINA RESULT: -9.512076770      0.959      1.387
REMARK  14 active torsions:
REMARK  status: ('A' for Active; 'I' for Inactive)
REMARK    1  A    between atoms: N1_1  and  C1_4 
REMARK    2  A    between atoms: C2_11  and  N5_12 
REMARK    3  A    between atoms: N5_12  and  S1_14 
REMARK    4  A    between atoms: S1_14  and  C3_17 
REMARK    5  A    between atoms: C6_20  and  N6_21 
REMARK    6  A    between atoms: N6_21  and  C7_23 
REMARK    7  A    between atoms: C7_23  and  C8_24 
REMARK    8  A    between atoms: C8_24  and  N7_25 
REMARK    9  A    between atoms: N7_25  and  C9_28 
REMARK   10  A    between atoms: C9_28  and  C10_29 
REMARK   11  A    between atoms: C10_29  and  C11_30 
REMARK   12  A    between atoms: C14_33  and  N8_34 
REMARK   13  A    between atoms: N8_34  and  S2_36 
REMARK   14  A    between atoms: S2_36  and  C15_39 
ROOT
HETATM    1  C7  UNL     1      83.237  32.433  40.193  1.00  0.00     0.147 C 
ENDROOT
BRANCH   1   2
HETATM    2  N6  UNL     1      83.024  31.082  40.543  1.00  0.00    -0.388 N 
ATOM      3  H6  UNL     1      83.347  30.801  41.468  1.00  0.00     0.159 HD
BRANCH   2   4
HETATM    4  C6  UNL     1      82.414  30.071  39.760  1.00  0.00     0.028 A 
HETATM    5  C5  UNL     1      81.280  30.231  39.004  1.00  0.00     0.030 A 
HETATM    6  C4  UNL     1      80.771  29.185  38.219  1.00  0.00     0.027 A 
HETATM    7  C3  UNL     1      81.378  27.948  38.163  1.00  0.00     0.080 A 
HETATM    8  C21 UNL     1      82.505  27.782  38.913  1.00  0.00     0.027 A 
HETATM    9  C20 UNL     1      83.011  28.803  39.686  1.00  0.00     0.030 A 
BRANCH   7  10
HETATM   10  S1  UNL     1      80.716  26.677  37.144  1.00  0.00     0.264 S 
HETATM   11  O1  UNL     1      80.373  25.541  38.138  1.00  0.00    -0.200 OA
HETATM   12  O2  UNL     1      79.399  27.164  36.566  1.00  0.00    -0.200 OA
BRANCH  10  13
HETATM   13  N5  UNL     1      81.740  26.068  35.989  1.00  0.00    -0.262 N 
ATOM     14  H5  UNL     1      82.502  25.525  36.396  1.00  0.00     0.180 HD
BRANCH  13  15
HETATM   15  C2  UNL     1      81.805  26.114  34.724  1.00  0.00     0.176 A 
HETATM   16  C1  UNL     1      80.878  25.876  33.727  1.00  0.00     0.162 A 
HETATM   17  N2  UNL     1      81.522  26.060  32.552  1.00  0.00    -0.268 N 
HETATM   18  N3  UNL     1      82.771  26.394  32.796  1.00  0.00    -0.239 N 
ATOM     19  H2  UNL     1      81.107  25.957  31.627  1.00  0.00     0.190 HD
HETATM   20  N4  UNL     1      82.975  26.435  34.083  1.00  0.00    -0.267 N 
ATOM     21  H3  UNL     1      83.475  26.590  32.085  1.00  0.00     0.208 HD
ATOM     22  H4  UNL     1      83.858  26.666  34.538  1.00  0.00     0.190 HD
BRANCH  16  23
HETATM   23  N1  UNL     1      79.651  25.546  33.891  1.00  0.00    -0.381 N 
ATOM     24  H12 UNL     1      79.004  25.937  34.575  1.00  0.00     0.157 HD
ATOM     25  H11 UNL     1      79.129  24.844  33.367  1.00  0.00     0.157 HD
ENDBRANCH  16  23
ENDBRANCH  13  15
ENDBRANCH  10  13
ENDBRANCH   7  10
ENDBRANCH   2   4
ENDBRANCH   1   2
BRANCH   1  26
HETATM   26  C8  UNL     1      82.233  33.449  40.647  1.00  0.00     0.251 C 
BRANCH  26  27
HETATM   27  N7  UNL     1      82.571  33.881  42.003  1.00  0.00    -0.073 N 
ATOM     28  H72 UNL     1      81.972  34.646  42.315  1.00  0.00     0.277 HD
ATOM     29  H71 UNL     1      82.304  33.185  42.698  1.00  0.00     0.277 HD
BRANCH  27  30
HETATM   30  C9  UNL     1      83.959  34.221  42.098  1.00  0.00     0.238 C 
BRANCH  30  31
HETATM   31  C10 UNL     1      84.544  33.833  43.431  1.00  0.00     0.084 C 
BRANCH  31  32
HETATM   32  C11 UNL     1      86.008  33.835  43.410  1.00  0.00     0.010 A 
HETATM   33  C12 UNL     1      86.749  33.518  44.528  1.00  0.00     0.027 A 
HETATM   34  C13 UNL     1      88.119  33.544  44.539  1.00  0.00     0.033 A 
HETATM   35  C14 UNL     1      88.817  33.905  43.375  1.00  0.00     0.058 A 
HETATM   36  C19 UNL     1      88.057  34.216  42.275  1.00  0.00     0.118 A 
HETATM   37  N10 UNL     1      86.718  34.176  42.315  1.00  0.00    -0.367 N 
ATOM     38  H10 UNL     1      86.205  34.418  41.467  1.00  0.00     0.165 HD
BRANCH  35  39
HETATM   39  N8  UNL     1      90.233  33.951  43.393  1.00  0.00    -0.279 N 
ATOM     40  H8  UNL     1      90.769  33.084  43.352  1.00  0.00     0.179 HD
BRANCH  39  41
HETATM   41  S2  UNL     1      91.046  35.452  43.482  1.00  0.00     0.264 S 
HETATM   42  O3  UNL     1      92.517  35.271  43.178  1.00  0.00    -0.200 OA
HETATM   43  O4  UNL     1      90.440  36.488  42.617  1.00  0.00    -0.200 OA
BRANCH  41  44
HETATM   44  C15 UNL     1      90.962  35.983  45.169  1.00  0.00     0.096 A 
HETATM   45  C16 UNL     1      90.197  37.002  45.663  1.00  0.00     0.043 A 
HETATM   46  C17 UNL     1      90.456  37.050  47.034  1.00  0.00     0.089 A 
HETATM   47  N9  UNL     1      91.345  36.098  47.369  1.00  0.00    -0.374 N 
HETATM   48  C18 UNL     1      91.653  35.448  46.233  1.00  0.00     0.112 A 
ATOM     49  H9  UNL     1      91.713  35.906  48.301  1.00  0.00     0.164 HD
ENDBRANCH  41  44
ENDBRANCH  39  41
ENDBRANCH  35  39
ENDBRANCH  31  32
ENDBRANCH  30  31
ENDBRANCH  27  30
ENDBRANCH  26  27
ENDBRANCH   1  26
TORSDOF 14
ENDMDL
MODEL 3
REMARK VINA RESULT: -9.483200295      2.501     13.229
REMARK  14 active torsions:
REMARK  status: ('A' for Active; 'I' for Inactive)
REMARK    1  A    between atoms: N1_1  and  C1_4 
REMARK    2  A    between atoms: C2_11  and  N5_12 
REMARK    3  A    between atoms: N5_12  and  S1_14 
REMARK    4  A    between atoms: S1_14  and  C3_17 
REMARK    5  A    between atoms: C6_20  and  N6_21 
REMARK    6  A    between atoms: N6_21  and  C7_23 
REMARK    7  A    between atoms: C7_23  and  C8_24 
REMARK    8  A    between atoms: C8_24  and  N7_25 
REMARK    9  A    between atoms: N7_25  and  C9_28 
REMARK   10  A    between atoms: C9_28  and  C10_29 
REMARK   11  A    between atoms: C10_29  and  C11_30 
REMARK   12  A    between atoms: C14_33  and  N8_34 
REMARK   13  A    between atoms: N8_34  and  S2_36 
REMARK   14  A    between atoms: S2_36  and  C15_39 
ROOT
HETATM    1  C7  UNL     1      82.301  34.760  41.506  1.00  0.00     0.147 C 
ENDROOT
BRANCH   1   2
HETATM    2  N6  UNL     1      83.027  33.978  42.431  1.00  0.00    -0.388 N 
ATOM      3  H6  UNL     1      82.477  33.358  43.025  1.00  0.00     0.159 HD
BRANCH   2   4
HETATM    4  C6  UNL     1      84.429  33.954  42.631  1.00  0.00     0.028 A 
HETATM    5  C5  UNL     1      85.370  34.254  41.678  1.00  0.00     0.030 A 
HETATM    6  C4  UNL     1      86.742  34.251  41.978  1.00  0.00     0.027 A 
HETATM    7  C3  UNL     1      87.216  33.950  43.236  1.00  0.00     0.080 A 
HETATM    8  C21 UNL     1      86.286  33.649  44.189  1.00  0.00     0.027 A 
HETATM    9  C20 UNL     1      84.939  33.650  43.903  1.00  0.00     0.030 A 
BRANCH   7  10
HETATM   10  S1  UNL     1      88.942  33.984  43.570  1.00  0.00     0.264 S 
HETATM   11  O1  UNL     1      89.039  33.660  45.081  1.00  0.00    -0.200 OA
HETATM   12  O2  UNL     1      89.594  32.827  42.833  1.00  0.00    -0.200 OA
BRANCH  10  13
HETATM   13  N5  UNL     1      89.704  35.432  43.296  1.00  0.00    -0.262 N 
ATOM     14  H5  UNL     1      89.089  36.229  43.463  1.00  0.00     0.180 HD
BRANCH  13  15
HETATM   15  C2  UNL     1      90.864  35.789  42.931  1.00  0.00     0.176 A 
HETATM   16  C1  UNL     1      91.788  35.234  42.065  1.00  0.00     0.162 A 
HETATM   17  N2  UNL     1      92.868  36.047  42.083  1.00  0.00    -0.268 N 
HETATM   18  N3  UNL     1      92.637  37.048  42.905  1.00  0.00    -0.239 N 
ATOM     19  H2  UNL     1      93.724  35.907  41.546  1.00  0.00     0.190 HD
HETATM   20  N4  UNL     1      91.450  36.925  43.429  1.00  0.00    -0.267 N 
ATOM     21  H3  UNL     1      93.289  37.807  43.102  1.00  0.00     0.208 HD
ATOM     22  H4  UNL     1      91.027  37.567  44.099  1.00  0.00     0.190 HD
BRANCH  16  23
HETATM   23  N1  UNL     1      91.642  34.159  41.383  1.00  0.00    -0.381 N 
ATOM     24  H12 UNL     1      92.385  33.531  41.075  1.00  0.00     0.157 HD
ATOM     25  H11 UNL     1      90.767  33.762  41.041  1.00  0.00     0.157 HD
ENDBRANCH  16  23
ENDBRANCH  13  15
ENDBRANCH  10  13
ENDBRANCH   7  10
ENDBRANCH   2   4
ENDBRANCH   1   2
BRANCH   1  26
HETATM   26  C8  UNL     1      81.120  34.136  40.825  1.00  0.00     0.251 C 
BRANCH  26  27
HETATM   27  N7  UNL     1      81.258  32.681  40.868  1.00  0.00    -0.073 N 
ATOM     28  H72 UNL     1      81.651  32.365  41.755  1.00  0.00     0.277 HD
ATOM     29  H71 UNL     1      80.352  32.217  40.929  1.00  0.00     0.277 HD
BRANCH  27  30
HETATM   30  C9  UNL     1      82.021  32.208  39.752  1.00  0.00     0.238 C 
BRANCH  30  31
HETATM   31  C10 UNL     1      82.754  30.931  40.070  1.00  0.00     0.084 C 
BRANCH  31  32
HETATM   32  C11 UNL     1      82.130  29.767  39.437  1.00  0.00     0.010 A 
HETATM   33  C12 UNL     1      82.759  28.542  39.395  1.00  0.00     0.027 A 
HETATM   34  C13 UNL     1      82.208  27.448  38.781  1.00  0.00     0.033 A 
HETATM   35  C14 UNL     1      80.952  27.557  38.162  1.00  0.00     0.058 A 
HETATM   36  C19 UNL     1      80.346  28.788  38.218  1.00  0.00     0.118 A 
HETATM   37  N10 UNL     1      80.927  29.828  38.831  1.00  0.00    -0.367 N 
ATOM     38  H10 UNL     1      80.430  30.718  38.841  1.00  0.00     0.165 HD
BRANCH  35  39
HETATM   39  N8  UNL     1      80.392  26.432  37.509  1.00  0.00    -0.279 N 
ATOM     40  H8  UNL     1      79.937  25.702  38.058  1.00  0.00     0.179 HD
BRANCH  39  41
HETATM   41  S2  UNL     1      80.474  26.292  35.808  1.00  0.00     0.264 S 
HETATM   42  O3  UNL     1      79.121  26.576  35.192  1.00  0.00    -0.200 OA
HETATM   43  O4  UNL     1      81.527  27.142  35.209  1.00  0.00    -0.200 OA
BRANCH  41  44
HETATM   44  C15 UNL     1      80.824  24.595  35.447  1.00  0.00     0.096 A 
HETATM   45  C16 UNL     1      79.910  23.587  35.314  1.00  0.00     0.043 A 
HETATM   46  C17 UNL     1      80.645  22.434  35.032  1.00  0.00     0.089 A 
HETATM   47  N9  UNL     1      81.958  22.722  34.993  1.00  0.00    -0.374 N 
HETATM   48  C18 UNL     1      82.067  24.038  35.246  1.00  0.00     0.112 A 
ATOM     49  H9  UNL     1      82.722  22.071  34.809  1.00  0.00     0.164 HD
ENDBRANCH  41  44
ENDBRANCH  39  41
ENDBRANCH  35  39
ENDBRANCH  31  32
ENDBRANCH  30  31
ENDBRANCH  27  30
ENDBRANCH  26  27
ENDBRANCH   1  26
TORSDOF 14
ENDMDL
MODEL 4
REMARK VINA RESULT: -9.324988196      6.298     11.867
REMARK  14 active torsions:
REMARK  status: ('A' for Active; 'I' for Inactive)
REMARK    1  A    between atoms: N1_1  and  C1_4 
REMARK    2  A    between atoms: C2_11  and  N5_12 
REMARK    3  A    between atoms: N5_12  and  S1_14 
REMARK    4  A    between atoms: S1_14  and  C3_17 
REMARK    5  A    between atoms: C6_20  and  N6_21 
REMARK    6  A    between atoms: N6_21  and  C7_23 
REMARK    7  A    between atoms: C7_23  and  C8_24 
REMARK    8  A    between atoms: C8_24  and  N7_25 
REMARK    9  A    between atoms: N7_25  and  C9_28 
REMARK   10  A    between atoms: C9_28  and  C10_29 
REMARK   11  A    between atoms: C10_29  and  C11_30 
REMARK   12  A    between atoms: C14_33  and  N8_34 
REMARK   13  A    between atoms: N8_34  and  S2_36 
REMARK   14  A    between atoms: S2_36  and  C15_39 
ROOT
HETATM    1  C7  UNL     1      91.123  35.876  42.419  1.00  0.00     0.147 C 
ENDROOT
BRANCH   1   2
HETATM    2  N6  UNL     1      91.354  36.152  43.784  1.00  0.00    -0.388 N 
ATOM      3  H6  UNL     1      91.988  36.925  43.986  1.00  0.00     0.159 HD
BRANCH   2   4
HETATM    4  C6  UNL     1      90.810  35.481  44.907  1.00  0.00     0.028 A 
HETATM    5  C5  UNL     1      89.535  34.980  44.987  1.00  0.00     0.030 A 
HETATM    6  C4  UNL     1      89.093  34.285  46.125  1.00  0.00     0.027 A 
HETATM    7  C3  UNL     1      89.909  34.068  47.214  1.00  0.00     0.080 A 
HETATM    8  C21 UNL     1      91.178  34.565  47.141  1.00  0.00     0.027 A 
HETATM    9  C20 UNL     1      91.618  35.248  46.030  1.00  0.00     0.030 A 
BRANCH   7  10
HETATM   10  S1  UNL     1      89.318  33.170  48.606  1.00  0.00     0.264 S 
HETATM   11  O1  UNL     1      90.511  32.268  49.004  1.00  0.00    -0.200 OA
HETATM   12  O2  UNL     1      89.108  34.146  49.750  1.00  0.00    -0.200 OA
BRANCH  10  13
HETATM   13  N5  UNL     1      87.998  32.201  48.335  1.00  0.00    -0.262 N 
ATOM     14  H5  UNL     1      88.263  31.238  48.127  1.00  0.00     0.180 HD
BRANCH  13  15
HETATM   15  C2  UNL     1      86.742  32.368  48.324  1.00  0.00     0.176 A 
HETATM   16  C1  UNL     1      85.871  32.999  49.191  1.00  0.00     0.162 A 
HETATM   17  N2  UNL     1      84.631  32.840  48.674  1.00  0.00    -0.268 N 
HETATM   18  N3  UNL     1      84.719  32.155  47.555  1.00  0.00    -0.239 N 
ATOM     19  H2  UNL     1      83.768  33.194  49.086  1.00  0.00     0.190 HD
HETATM   20  N4  UNL     1      85.965  31.856  47.315  1.00  0.00    -0.267 N 
ATOM     21  H3  UNL     1      83.930  31.896  46.962  1.00  0.00     0.208 HD
ATOM     22  H4  UNL     1      86.306  31.328  46.512  1.00  0.00     0.190 HD
BRANCH  16  23
HETATM   23  N1  UNL     1      86.183  33.613  50.271  1.00  0.00    -0.381 N 
ATOM     24  H12 UNL     1      85.682  33.572  51.159  1.00  0.00     0.157 HD
ATOM     25  H11 UNL     1      86.976  34.238  50.416  1.00  0.00     0.157 HD
ENDBRANCH  16  23
ENDBRANCH  13  15
ENDBRANCH  10  13
ENDBRANCH   7  10
ENDBRANCH   2   4
ENDBRANCH   1   2
BRANCH   1  26
HETATM   26  C8  UNL     1      91.969  34.832  41.754  1.00  0.00     0.251 C 
BRANCH  26  27
HETATM   27  N7  UNL     1      91.317  33.530  41.895  1.00  0.00    -0.073 N 
ATOM     28  H72 UNL     1      91.767  32.819  41.318  1.00  0.00     0.277 HD
ATOM     29  H71 UNL     1      91.491  33.117  42.811  1.00  0.00     0.277 HD
BRANCH  27  30
HETATM   30  C9  UNL     1      89.915  33.629  41.617  1.00  0.00     0.238 C 
BRANCH  30  31
HETATM   31  C10 UNL     1      89.126  32.545  42.304  1.00  0.00     0.084 C 
BRANCH  31  32
HETATM   32  C11 UNL     1      87.685  32.694  42.089  1.00  0.00     0.010 A 
HETATM   33  C12 UNL     1      87.099  33.932  41.941  1.00  0.00     0.027 A 
HETATM   34  C13 UNL     1      85.750  34.096  41.770  1.00  0.00     0.033 A 
HETATM   35  C14 UNL     1      84.910  32.970  41.742  1.00  0.00     0.058 A 
HETATM   36  C19 UNL     1      85.519  31.748  41.890  1.00  0.00     0.118 A 
HETATM   37  N10 UNL     1      86.844  31.641  42.055  1.00  0.00    -0.367 N 
ATOM     38  H10 UNL     1      87.240  30.707  42.161  1.00  0.00     0.165 HD
BRANCH  35  39
HETATM   39  N8  UNL     1      83.513  33.141  41.586  1.00  0.00    -0.279 N 
ATOM     40  H8  UNL     1      82.897  33.045  42.393  1.00  0.00     0.179 HD
BRANCH  39  41
HETATM   41  S2  UNL     1      82.854  33.506  40.051  1.00  0.00     0.264 S 
HETATM   42  O3  UNL     1      83.902  33.328  38.974  1.00  0.00    -0.200 OA
HETATM   43  O4  UNL     1      81.633  32.728  39.748  1.00  0.00    -0.200 OA
BRANCH  41  44
HETATM   44  C15 UNL     1      82.456  35.231  40.060  1.00  0.00     0.096 A 
HETATM   45  C16 UNL     1      82.414  36.050  41.154  1.00  0.00     0.043 A 
HETATM   46  C17 UNL     1      82.059  37.313  40.677  1.00  0.00     0.089 A 
HETATM   47  N9  UNL     1      81.889  37.272  39.343  1.00  0.00    -0.374 N 
HETATM   48  C18 UNL     1      82.132  36.004  38.968  1.00  0.00     0.112 A 
ATOM     49  H9  UNL     1      81.628  38.049  38.736  1.00  0.00     0.164 HD
ENDBRANCH  41  44
ENDBRANCH  39  41
ENDBRANCH  35  39
ENDBRANCH  31  32
ENDBRANCH  30  31
ENDBRANCH  27  30
ENDBRANCH  26  27
ENDBRANCH   1  26
TORSDOF 14
ENDMDL
MODEL 5
REMARK VINA RESULT: -9.321623237      1.024      1.761
REMARK  14 active torsions:
REMARK  status: ('A' for Active; 'I' for Inactive)
REMARK    1  A    between atoms: N1_1  and  C1_4 
REMARK    2  A    between atoms: C2_11  and  N5_12 
REMARK    3  A    between atoms: N5_12  and  S1_14 
REMARK    4  A    between atoms: S1_14  and  C3_17 
REMARK    5  A    between atoms: C6_20  and  N6_21 
REMARK    6  A    between atoms: N6_21  and  C7_23 
REMARK    7  A    between atoms: C7_23  and  C8_24 
REMARK    8  A    between atoms: C8_24  and  N7_25 
REMARK    9  A    between atoms: N7_25  and  C9_28 
REMARK   10  A    between atoms: C9_28  and  C10_29 
REMARK   11  A    between atoms: C10_29  and  C11_30 
REMARK   12  A    between atoms: C14_33  and  N8_34 
REMARK   13  A    between atoms: N8_34  and  S2_36 
REMARK   14  A    between atoms: S2_36  and  C15_39 
ROOT
HETATM    1  C7  UNL     1      82.122  31.907  39.651  1.00  0.00     0.147 C 
ENDROOT
BRANCH   1   2
HETATM    2  N6  UNL     1      82.519  30.582  39.932  1.00  0.00    -0.388 N 
ATOM      3  H6  UNL     1      83.163  30.462  40.714  1.00  0.00     0.159 HD
BRANCH   2   4
HETATM    4  C6  UNL     1      82.127  29.399  39.258  1.00  0.00     0.028 A 
HETATM    5  C5  UNL     1      82.834  28.222  39.248  1.00  0.00     0.030 A 
HETATM    6  C4  UNL     1      82.346  27.082  38.590  1.00  0.00     0.027 A 
HETATM    7  C3  UNL     1      81.139  27.080  37.924  1.00  0.00     0.080 A 
HETATM    8  C21 UNL     1      80.432  28.248  37.929  1.00  0.00     0.027 A 
HETATM    9  C20 UNL     1      80.904  29.370  38.571  1.00  0.00     0.030 A 
BRANCH   7  10
HETATM   10  S1  UNL     1      80.558  25.619  37.137  1.00  0.00     0.264 S 
HETATM   11  O1  UNL     1      81.847  24.817  36.835  1.00  0.00    -0.200 OA
HETATM   12  O2  UNL     1      79.768  24.811  38.152  1.00  0.00    -0.200 OA
BRANCH  10  13
HETATM   13  N5  UNL     1      79.736  25.842  35.713  1.00  0.00    -0.262 N 
ATOM     14  H5  UNL     1      78.737  25.985  35.862  1.00  0.00     0.180 HD
BRANCH  13  15
HETATM   15  C2  UNL     1      80.049  25.878  34.485  1.00  0.00     0.176 A 
HETATM   16  C1  UNL     1      81.262  25.945  33.827  1.00  0.00     0.162 A 
HETATM   17  N2  UNL     1      80.980  25.977  32.504  1.00  0.00    -0.268 N 
HETATM   18  N3  UNL     1      79.676  25.930  32.343  1.00  0.00    -0.239 N 
ATOM     19  H2  UNL     1      81.668  26.028  31.753  1.00  0.00     0.190 HD
HETATM   20  N4  UNL     1      79.088  25.871  33.505  1.00  0.00    -0.267 N 
ATOM     21  H3  UNL     1      79.195  25.939  31.443  1.00  0.00     0.208 HD
ATOM     22  H4  UNL     1      78.081  25.828  33.661  1.00  0.00     0.190 HD
BRANCH  16  23
HETATM   23  N1  UNL     1      82.423  25.973  34.369  1.00  0.00    -0.381 N 
ATOM     24  H12 UNL     1      82.971  25.166  34.669  1.00  0.00     0.157 HD
ATOM     25  H11 UNL     1      82.980  26.799  34.586  1.00  0.00     0.157 HD
ENDBRANCH  16  23
ENDBRANCH  13  15
ENDBRANCH  10  13
ENDBRANCH   7  10
ENDBRANCH   2   4
ENDBRANCH   1   2
BRANCH   1  26
HETATM   26  C8  UNL     1      83.034  33.022  40.064  1.00  0.00     0.251 C 
BRANCH  26  27
HETATM   27  N7  UNL     1      83.147  33.031  41.522  1.00  0.00    -0.073 N 
ATOM     28  H72 UNL     1      82.231  33.039  41.972  1.00  0.00     0.277 HD
ATOM     29  H71 UNL     1      83.486  32.138  41.880  1.00  0.00     0.277 HD
BRANCH  27  30
HETATM   30  C9  UNL     1      83.963  34.123  41.963  1.00  0.00     0.238 C 
BRANCH  30  31
HETATM   31  C10 UNL     1      84.550  33.873  43.328  1.00  0.00     0.084 C 
BRANCH  31  32
HETATM   32  C11 UNL     1      86.014  33.865  43.304  1.00  0.00     0.010 A 
HETATM   33  C12 UNL     1      86.755  33.533  44.417  1.00  0.00     0.027 A 
HETATM   34  C13 UNL     1      88.124  33.550  44.426  1.00  0.00     0.033 A 
HETATM   35  C14 UNL     1      88.823  33.918  43.265  1.00  0.00     0.058 A 
HETATM   36  C19 UNL     1      88.062  34.244  42.169  1.00  0.00     0.118 A 
HETATM   37  N10 UNL     1      86.723  34.212  42.211  1.00  0.00    -0.367 N 
ATOM     38  H10 UNL     1      86.211  34.465  41.367  1.00  0.00     0.165 HD
BRANCH  35  39
HETATM   39  N8  UNL     1      90.239  33.955  43.280  1.00  0.00    -0.279 N 
ATOM     40  H8  UNL     1      90.767  33.097  43.437  1.00  0.00     0.179 HD
BRANCH  39  41
HETATM   41  S2  UNL     1      91.066  35.431  43.036  1.00  0.00     0.264 S 
HETATM   42  O3  UNL     1      92.554  35.237  43.227  1.00  0.00    -0.200 OA
HETATM   43  O4  UNL     1      90.768  36.050  41.725  1.00  0.00    -0.200 OA
BRANCH  41  44
HETATM   44  C15 UNL     1      90.551  36.529  44.326  1.00  0.00     0.096 A 
HETATM   45  C16 UNL     1      90.470  36.235  45.658  1.00  0.00     0.043 A 
HETATM   46  C17 UNL     1      90.022  37.401  46.284  1.00  0.00     0.089 A 
HETATM   47  N9  UNL     1      89.836  38.371  45.371  1.00  0.00    -0.374 N 
HETATM   48  C18 UNL     1      90.158  37.840  44.179  1.00  0.00     0.112 A 
ATOM     49  H9  UNL     1      89.513  39.323  45.549  1.00  0.00     0.164 HD
ENDBRANCH  41  44
ENDBRANCH  39  41
ENDBRANCH  35  39
ENDBRANCH  31  32
ENDBRANCH  30  31
ENDBRANCH  27  30
ENDBRANCH  26  27
ENDBRANCH   1  26
TORSDOF 14
ENDMDL
