MODEL 1
REMARK VINA RESULT: -8.804858501      0.000      0.000
REMARK  15 active torsions:
REMARK  status: ('A' for Active; 'I' for Inactive)
REMARK    1  A    between atoms: C2_2  and  N1_3 
REMARK    2  A    between atoms: N1_3  and  C3_6 
REMARK    3  A    between atoms: C3_6  and  C4_7 
REMARK    4  A    between atoms: C4_7  and  C5_8 
REMARK    5  A    between atoms: C5_8  and  N2_9 
REMARK    6  A    between atoms: N2_9  and  C6_10 
REMARK       I    between atoms: N2_9  and  C13_17 
REMARK    7  A    between atoms: C6_10  and  C7_11 
REMARK       I    between atoms: C13_17  and  N3_19 
REMARK    8  A    between atoms: N3_19  and  N4_21 
REMARK       I    between atoms: N4_21  and  C14_23 
REMARK    9  A    between atoms: C14_23  and  C15_25 
REMARK   10  A    between atoms: C16_26  and  O3_27 
REMARK   11  A    between atoms: C20_34  and  N6_35 
REMARK   12  A    between atoms: N6_35  and  C21_37 
REMARK   13  A    between atoms: C21_37  and  C22_38 
REMARK   14  A    between atoms: C22_38  and  C23_39 
REMARK   15  A    between atoms: C23_39  and  N7_40 
ROOT
HETATM    1  C15 UNL     1      82.108  28.708  38.907  1.00  0.00     0.111 A 
HETATM    2  C16 UNL     1      82.671  27.476  38.689  1.00  0.00     0.107 A 
HETATM    3  C18 UNL     1      82.028  26.432  38.013  1.00  0.00     0.111 A 
HETATM    4  C19 UNL     1      82.598  25.210  37.775  1.00  0.00     0.276 A 
HETATM    5  O4  UNL     1      83.743  24.949  38.165  1.00  0.00    -0.267 OA
HETATM    6  N5  UNL     1      81.920  24.269  37.107  1.00  0.00    -0.155 N 
ATOM      7  H5  UNL     1      82.347  23.358  36.933  1.00  0.00     0.187 HD
HETATM    8  C20 UNL     1      80.669  24.527  36.663  1.00  0.00     0.682 A 
HETATM    9  N8  UNL     1      80.089  25.730  36.887  1.00  0.00    -0.175 N 
ATOM     10  H8  UNL     1      79.143  25.900  36.543  1.00  0.00     0.186 HD
HETATM   11  C24 UNL     1      80.731  26.705  37.552  1.00  0.00     0.141 A 
HETATM   12  N9  UNL     1      80.157  27.902  37.758  1.00  0.00    -0.327 N 
ATOM     13  H9  UNL     1      79.212  28.067  37.413  1.00  0.00     0.169 HD
HETATM   14  C25 UNL     1      80.798  28.882  38.405  1.00  0.00     0.119 A 
HETATM   15  N10 UNL     1      80.214  30.015  38.580  1.00  0.00    -0.385 N 
ATOM     16 1H10 UNL     1      79.268  30.140  38.218  1.00  0.00     0.157 HD
ATOM     17 2H10 UNL     1      80.702  30.762  39.073  1.00  0.00     0.157 HD
ENDROOT
BRANCH   1  18
HETATM   18  C14 UNL     1      82.766  29.842  39.513  1.00  0.00     0.276 C 
HETATM   19  N4  UNL     1      83.064  30.085  40.845  1.00  0.00    -0.262 N 
ATOM     20  H4  UNL     1      82.808  29.398  41.554  1.00  0.00     0.190 HD
HETATM   21  O2  UNL     1      83.135  30.768  38.688  1.00  0.00    -0.266 OA
BRANCH  19  22
HETATM   22  N3  UNL     1      83.718  31.273  41.227  1.00  0.00    -0.249 N 
HETATM   23  C13 UNL     1      84.904  31.254  41.996  1.00  0.00     0.337 C 
HETATM   24  N2  UNL     1      85.525  32.474  42.357  1.00  0.00    -0.333 N 
HETATM   25  O1  UNL     1      85.388  30.128  42.346  1.00  0.00    -0.245 OA
ATOM     26  H3  UNL     1      83.326  32.170  40.942  1.00  0.00     0.192 HD
BRANCH  24  27
HETATM   27  C5  UNL     1      84.907  33.723  41.997  1.00  0.00     0.129 C 
BRANCH  27  28
HETATM   28  C4  UNL     1      83.832  34.204  42.909  1.00  0.00     0.047 C 
BRANCH  28  29
HETATM   29  C3  UNL     1      82.664  34.810  42.154  1.00  0.00     0.234 C 
BRANCH  29  30
HETATM   30  N1  UNL     1      81.599  33.875  41.939  1.00  0.00    -0.075 N 
ATOM     31  H12 UNL     1      80.806  34.023  42.563  1.00  0.00     0.277 HD
ATOM     32  H11 UNL     1      81.831  32.929  42.243  1.00  0.00     0.277 HD
BRANCH  30  33
HETATM   33  C2  UNL     1      81.237  33.948  40.531  1.00  0.00     0.228 C 
HETATM   34  C1  UNL     1      81.403  35.350  39.980  1.00  0.00     0.034 C 
ENDBRANCH  30  33
ENDBRANCH  29  30
ENDBRANCH  28  29
ENDBRANCH  27  28
ENDBRANCH  24  27
BRANCH  24  35
HETATM   35  C6  UNL     1      86.749  32.445  43.099  1.00  0.00     0.132 C 
BRANCH  35  36
HETATM   36  C7  UNL     1      87.378  33.777  43.342  1.00  0.00     0.004 C 
HETATM   37  C8  UNL     1      88.451  34.163  42.356  1.00  0.00     0.006 C 
HETATM   38  C9  UNL     1      89.099  35.490  42.786  1.00  0.00     0.000 C 
HETATM   39  C10 UNL     1      89.920  35.181  44.004  1.00  0.00     0.000 C 
HETATM   40  C11 UNL     1      89.363  34.097  44.845  1.00  0.00     0.000 C 
HETATM   41  C12 UNL     1      87.884  33.882  44.768  1.00  0.00     0.006 C 
ENDBRANCH  35  36
ENDBRANCH  24  35
ENDBRANCH  19  22
ENDBRANCH   1  18
BRANCH   2  42
HETATM   42  O3  UNL     1      83.952  27.229  39.171  1.00  0.00    -0.354 OA
HETATM   43  C17 UNL     1      84.005  26.885  40.574  1.00  0.00     0.210 C 
ENDBRANCH   2  42
BRANCH   8  44
HETATM   44  N6  UNL     1      80.024  23.636  36.029  1.00  0.00    -0.226 N 
ATOM     45  H6  UNL     1      79.295  23.107  36.508  1.00  0.00     0.177 HD
BRANCH  44  46
HETATM   46  C21 UNL     1      80.305  23.362  34.654  1.00  0.00     0.139 C 
BRANCH  46  47
HETATM   47  C22 UNL     1      79.439  24.228  33.762  1.00  0.00     0.047 C 
BRANCH  47  48
HETATM   48  C23 UNL     1      80.236  25.298  33.070  1.00  0.00     0.231 C 
BRANCH  48  49
HETATM   49  N7  UNL     1      79.425  26.112  32.191  1.00  0.00    -0.079 N 
ATOM     50  H73 UNL     1      79.973  26.870  31.783  1.00  0.00     0.274 HD
ATOM     51  H72 UNL     1      79.185  25.605  31.339  1.00  0.00     0.274 HD
ATOM     52  H71 UNL     1      78.589  26.471  32.653  1.00  0.00     0.274 HD
ENDBRANCH  48  49
ENDBRANCH  47  48
ENDBRANCH  46  47
ENDBRANCH  44  46
ENDBRANCH   8  44
TORSDOF 15
ENDMDL
MODEL 2
REMARK VINA RESULT: -8.566369294      1.777      2.520
REMARK  15 active torsions:
REMARK  status: ('A' for Active; 'I' for Inactive)
REMARK    1  A    between atoms: C2_2  and  N1_3 
REMARK    2  A    between atoms: N1_3  and  C3_6 
REMARK    3  A    between atoms: C3_6  and  C4_7 
REMARK    4  A    between atoms: C4_7  and  C5_8 
REMARK    5  A    between atoms: C5_8  and  N2_9 
REMARK    6  A    between atoms: N2_9  and  C6_10 
REMARK       I    between atoms: N2_9  and  C13_17 
REMARK    7  A    between atoms: C6_10  and  C7_11 
REMARK       I    between atoms: C13_17  and  N3_19 
REMARK    8  A    between atoms: N3_19  and  N4_21 
REMARK       I    between atoms: N4_21  and  C14_23 
REMARK    9  A    between atoms: C14_23  and  C15_25 
REMARK   10  A    between atoms: C16_26  and  O3_27 
REMARK   11  A    between atoms: C20_34  and  N6_35 
REMARK   12  A    between atoms: N6_35  and  C21_37 
REMARK   13  A    between atoms: C21_37  and  C22_38 
REMARK   14  A    between atoms: C22_38  and  C23_39 
REMARK   15  A    between atoms: C23_39  and  N7_40 
ROOT
HETATM    1  C15 UNL     1      81.813  28.504  39.415  1.00  0.00     0.111 A 
HETATM    2  C16 UNL     1      82.135  27.200  39.694  1.00  0.00     0.107 A 
HETATM    3  C18 UNL     1      81.436  26.098  39.188  1.00  0.00     0.111 A 
HETATM    4  C19 UNL     1      81.770  24.795  39.447  1.00  0.00     0.276 A 
HETATM    5  O4  UNL     1      82.731  24.512  40.173  1.00  0.00    -0.267 OA
HETATM    6  N5  UNL     1      81.058  23.796  38.912  1.00  0.00    -0.155 N 
ATOM      7  H5  UNL     1      81.308  22.827  39.109  1.00  0.00     0.187 HD
HETATM    8  C20 UNL     1      80.005  24.075  38.110  1.00  0.00     0.682 A 
HETATM    9  N8  UNL     1      79.660  25.356  37.840  1.00  0.00    -0.175 N 
ATOM     10  H8  UNL     1      78.861  25.540  37.232  1.00  0.00     0.186 HD
HETATM   11  C24 UNL     1      80.346  26.390  38.354  1.00  0.00     0.141 A 
HETATM   12  N9  UNL     1      80.009  27.659  38.071  1.00  0.00    -0.327 N 
ATOM     13  H9  UNL     1      79.209  27.839  37.464  1.00  0.00     0.169 HD
HETATM   14  C25 UNL     1      80.699  28.694  38.567  1.00  0.00     0.119 A 
HETATM   15  N10 UNL     1      80.344  29.894  38.269  1.00  0.00    -0.385 N 
ATOM     16 1H10 UNL     1      79.540  30.031  37.657  1.00  0.00     0.157 HD
ATOM     17 2H10 UNL     1      80.870  30.682  38.646  1.00  0.00     0.157 HD
ENDROOT
BRANCH   1  18
HETATM   18  C14 UNL     1      82.560  29.667  39.835  1.00  0.00     0.276 C 
HETATM   19  N4  UNL     1      82.834  30.129  41.112  1.00  0.00    -0.262 N 
ATOM     20  H4  UNL     1      82.486  29.616  41.922  1.00  0.00     0.190 HD
HETATM   21  O2  UNL     1      83.050  30.381  38.873  1.00  0.00    -0.266 OA
BRANCH  19  22
HETATM   22  N3  UNL     1      83.591  31.303  41.303  1.00  0.00    -0.249 N 
HETATM   23  C13 UNL     1      84.869  31.273  41.904  1.00  0.00     0.337 C 
HETATM   24  N2  UNL     1      85.593  32.478  42.075  1.00  0.00    -0.333 N 
HETATM   25  O1  UNL     1      85.343  30.150  42.279  1.00  0.00    -0.245 OA
ATOM     26  H3  UNL     1      83.206  32.197  40.998  1.00  0.00     0.192 HD
BRANCH  24  27
HETATM   27  C5  UNL     1      84.990  33.730  41.698  1.00  0.00     0.129 C 
BRANCH  27  28
HETATM   28  C4  UNL     1      83.981  34.279  42.646  1.00  0.00     0.047 C 
BRANCH  28  29
HETATM   29  C3  UNL     1      82.786  34.880  41.930  1.00  0.00     0.234 C 
BRANCH  29  30
HETATM   30  N1  UNL     1      81.551  34.242  42.282  1.00  0.00    -0.075 N 
ATOM     31  H12 UNL     1      81.014  34.766  42.973  1.00  0.00     0.277 HD
ATOM     32  H11 UNL     1      81.683  33.394  42.833  1.00  0.00     0.277 HD
BRANCH  30  33
HETATM   33  C2  UNL     1      80.817  34.010  41.047  1.00  0.00     0.228 C 
HETATM   34  C1  UNL     1      81.052  35.116  40.038  1.00  0.00     0.034 C 
ENDBRANCH  30  33
ENDBRANCH  29  30
ENDBRANCH  28  29
ENDBRANCH  27  28
ENDBRANCH  24  27
BRANCH  24  35
HETATM   35  C6  UNL     1      86.904  32.434  42.645  1.00  0.00     0.132 C 
BRANCH  35  36
HETATM   36  C7  UNL     1      87.467  33.756  43.051  1.00  0.00     0.004 C 
HETATM   37  C8  UNL     1      88.632  34.233  42.221  1.00  0.00     0.006 C 
HETATM   38  C9  UNL     1      89.193  35.537  42.813  1.00  0.00     0.000 C 
HETATM   39  C10 UNL     1      89.883  35.154  44.091  1.00  0.00     0.000 C 
HETATM   40  C11 UNL     1      89.265  34.002  44.785  1.00  0.00     0.000 C 
HETATM   41  C12 UNL     1      87.810  33.766  44.529  1.00  0.00     0.006 C 
ENDBRANCH  35  36
ENDBRANCH  24  35
ENDBRANCH  19  22
ENDBRANCH   1  18
BRANCH   2  42
HETATM   42  O3  UNL     1      83.211  26.939  40.536  1.00  0.00    -0.354 OA
HETATM   43  C17 UNL     1      84.507  27.100  39.913  1.00  0.00     0.210 C 
ENDBRANCH   2  42
BRANCH   8  44
HETATM   44  N6  UNL     1      79.327  23.130  37.601  1.00  0.00    -0.226 N 
ATOM     45  H6  UNL     1      79.160  23.117  36.595  1.00  0.00     0.177 HD
BRANCH  44  46
HETATM   46  C21 UNL     1      78.794  22.083  38.417  1.00  0.00     0.139 C 
BRANCH  46  47
HETATM   47  C22 UNL     1      77.445  22.492  38.974  1.00  0.00     0.047 C 
BRANCH  47  48
HETATM   48  C23 UNL     1      77.352  22.254  40.455  1.00  0.00     0.231 C 
BRANCH  48  49
HETATM   49  N7  UNL     1      78.475  22.810  41.177  1.00  0.00    -0.079 N 
ATOM     50  H73 UNL     1      79.008  23.451  40.590  1.00  0.00     0.274 HD
ATOM     51  H72 UNL     1      78.163  23.465  41.894  1.00  0.00     0.274 HD
ATOM     52  H71 UNL     1      79.078  22.089  41.575  1.00  0.00     0.274 HD
ENDBRANCH  48  49
ENDBRANCH  47  48
ENDBRANCH  46  47
ENDBRANCH  44  46
ENDBRANCH   8  44
TORSDOF 15
ENDMDL
MODEL 3
REMARK VINA RESULT: -8.511110641      1.337      1.386
REMARK  15 active torsions:
REMARK  status: ('A' for Active; 'I' for Inactive)
REMARK    1  A    between atoms: C2_2  and  N1_3 
REMARK    2  A    between atoms: N1_3  and  C3_6 
REMARK    3  A    between atoms: C3_6  and  C4_7 
REMARK    4  A    between atoms: C4_7  and  C5_8 
REMARK    5  A    between atoms: C5_8  and  N2_9 
REMARK    6  A    between atoms: N2_9  and  C6_10 
REMARK       I    between atoms: N2_9  and  C13_17 
REMARK    7  A    between atoms: C6_10  and  C7_11 
REMARK       I    between atoms: C13_17  and  N3_19 
REMARK    8  A    between atoms: N3_19  and  N4_21 
REMARK       I    between atoms: N4_21  and  C14_23 
REMARK    9  A    between atoms: C14_23  and  C15_25 
REMARK   10  A    between atoms: C16_26  and  O3_27 
REMARK   11  A    between atoms: C20_34  and  N6_35 
REMARK   12  A    between atoms: N6_35  and  C21_37 
REMARK   13  A    between atoms: C21_37  and  C22_38 
REMARK   14  A    between atoms: C22_38  and  C23_39 
REMARK   15  A    between atoms: C23_39  and  N7_40 
ROOT
HETATM    1  C15 UNL     1      81.802  28.503  39.383  1.00  0.00     0.111 A 
HETATM    2  C16 UNL     1      82.128  27.196  39.646  1.00  0.00     0.107 A 
HETATM    3  C18 UNL     1      81.425  26.098  39.137  1.00  0.00     0.111 A 
HETATM    4  C19 UNL     1      81.762  24.794  39.381  1.00  0.00     0.276 A 
HETATM    5  O4  UNL     1      82.731  24.504  40.095  1.00  0.00    -0.267 OA
HETATM    6  N5  UNL     1      81.045  23.799  38.843  1.00  0.00    -0.155 N 
ATOM      7  H5  UNL     1      81.299  22.829  39.029  1.00  0.00     0.187 HD
HETATM    8  C20 UNL     1      79.985  24.085  38.054  1.00  0.00     0.682 A 
HETATM    9  N8  UNL     1      79.636  25.368  37.800  1.00  0.00    -0.175 N 
ATOM     10  H8  UNL     1      78.831  25.557  37.202  1.00  0.00     0.186 HD
HETATM   11  C24 UNL     1      80.326  26.398  38.317  1.00  0.00     0.141 A 
HETATM   12  N9  UNL     1      79.986  27.670  38.049  1.00  0.00    -0.327 N 
ATOM     13  H9  UNL     1      79.180  27.854  37.452  1.00  0.00     0.169 HD
HETATM   14  C25 UNL     1      80.679  28.700  38.547  1.00  0.00     0.119 A 
HETATM   15  N10 UNL     1      80.321  29.902  38.264  1.00  0.00    -0.385 N 
ATOM     16 1H10 UNL     1      79.510  30.044  37.662  1.00  0.00     0.157 HD
ATOM     17 2H10 UNL     1      80.850  30.687  38.644  1.00  0.00     0.157 HD
ENDROOT
BRANCH   1  18
HETATM   18  C14 UNL     1      82.553  29.662  39.806  1.00  0.00     0.276 C 
HETATM   19  N4  UNL     1      82.818  30.126  41.085  1.00  0.00    -0.262 N 
ATOM     20  H4  UNL     1      82.459  29.617  41.893  1.00  0.00     0.190 HD
HETATM   21  O2  UNL     1      83.055  30.371  38.847  1.00  0.00    -0.266 OA
BRANCH  19  22
HETATM   22  N3  UNL     1      83.580  31.296  41.279  1.00  0.00    -0.249 N 
HETATM   23  C13 UNL     1      84.856  31.259  41.884  1.00  0.00     0.337 C 
HETATM   24  N2  UNL     1      85.585  32.461  42.059  1.00  0.00    -0.333 N 
HETATM   25  O1  UNL     1      85.323  30.134  42.261  1.00  0.00    -0.245 OA
ATOM     26  H3  UNL     1      83.201  32.192  40.974  1.00  0.00     0.192 HD
BRANCH  24  27
HETATM   27  C5  UNL     1      84.990  33.715  41.681  1.00  0.00     0.129 C 
BRANCH  27  28
HETATM   28  C4  UNL     1      83.976  34.266  42.623  1.00  0.00     0.047 C 
BRANCH  28  29
HETATM   29  C3  UNL     1      82.788  34.873  41.900  1.00  0.00     0.234 C 
BRANCH  29  30
HETATM   30  N1  UNL     1      81.544  34.269  42.276  1.00  0.00    -0.075 N 
ATOM     31  H12 UNL     1      80.993  34.851  42.907  1.00  0.00     0.277 HD
ATOM     32  H11 UNL     1      81.660  33.471  42.901  1.00  0.00     0.277 HD
BRANCH  30  33
HETATM   33  C2  UNL     1      80.838  33.933  41.048  1.00  0.00     0.228 C 
HETATM   34  C1  UNL     1      80.968  35.027  40.008  1.00  0.00     0.034 C 
ENDBRANCH  30  33
ENDBRANCH  29  30
ENDBRANCH  28  29
ENDBRANCH  27  28
ENDBRANCH  24  27
BRANCH  24  35
HETATM   35  C6  UNL     1      86.895  32.409  42.634  1.00  0.00     0.132 C 
BRANCH  35  36
HETATM   36  C7  UNL     1      87.459  33.727  43.051  1.00  0.00     0.004 C 
HETATM   37  C8  UNL     1      88.641  34.196  42.242  1.00  0.00     0.006 C 
HETATM   38  C9  UNL     1      89.201  35.496  42.845  1.00  0.00     0.000 C 
HETATM   39  C10 UNL     1      89.866  35.108  44.134  1.00  0.00     0.000 C 
HETATM   40  C11 UNL     1      89.229  33.959  44.816  1.00  0.00     0.000 C 
HETATM   41  C12 UNL     1      87.777  33.733  44.534  1.00  0.00     0.006 C 
ENDBRANCH  35  36
ENDBRANCH  24  35
ENDBRANCH  19  22
ENDBRANCH   1  18
BRANCH   2  42
HETATM   42  O3  UNL     1      83.212  26.929  40.475  1.00  0.00    -0.354 OA
HETATM   43  C17 UNL     1      84.501  27.090  39.840  1.00  0.00     0.210 C 
ENDBRANCH   2  42
BRANCH   8  44
HETATM   44  N6  UNL     1      79.302  23.144  37.543  1.00  0.00    -0.226 N 
ATOM     45  H6  UNL     1      78.286  23.161  37.621  1.00  0.00     0.177 HD
BRANCH  44  46
HETATM   46  C21 UNL     1      79.939  22.060  36.860  1.00  0.00     0.139 C 
BRANCH  46  47
HETATM   47  C22 UNL     1      80.188  22.429  35.412  1.00  0.00     0.047 C 
BRANCH  47  48
HETATM   48  C23 UNL     1      81.652  22.600  35.118  1.00  0.00     0.231 C 
BRANCH  48  49
HETATM   49  N7  UNL     1      82.023  23.987  34.941  1.00  0.00    -0.079 N 
ATOM     50  H73 UNL     1      81.750  24.325  34.018  1.00  0.00     0.274 HD
ATOM     51  H72 UNL     1      81.445  24.598  35.518  1.00  0.00     0.274 HD
ATOM     52  H71 UNL     1      83.016  24.150  35.113  1.00  0.00     0.274 HD
ENDBRANCH  48  49
ENDBRANCH  47  48
ENDBRANCH  46  47
ENDBRANCH  44  46
ENDBRANCH   8  44
TORSDOF 15
ENDMDL
MODEL 4
REMARK VINA RESULT: -8.444985724      1.130      1.581
REMARK  15 active torsions:
REMARK  status: ('A' for Active; 'I' for Inactive)
REMARK    1  A    between atoms: C2_2  and  N1_3 
REMARK    2  A    between atoms: N1_3  and  C3_6 
REMARK    3  A    between atoms: C3_6  and  C4_7 
REMARK    4  A    between atoms: C4_7  and  C5_8 
REMARK    5  A    between atoms: C5_8  and  N2_9 
REMARK    6  A    between atoms: N2_9  and  C6_10 
REMARK       I    between atoms: N2_9  and  C13_17 
REMARK    7  A    between atoms: C6_10  and  C7_11 
REMARK       I    between atoms: C13_17  and  N3_19 
REMARK    8  A    between atoms: N3_19  and  N4_21 
REMARK       I    between atoms: N4_21  and  C14_23 
REMARK    9  A    between atoms: C14_23  and  C15_25 
REMARK   10  A    between atoms: C16_26  and  O3_27 
REMARK   11  A    between atoms: C20_34  and  N6_35 
REMARK   12  A    between atoms: N6_35  and  C21_37 
REMARK   13  A    between atoms: C21_37  and  C22_38 
REMARK   14  A    between atoms: C22_38  and  C23_39 
REMARK   15  A    between atoms: C23_39  and  N7_40 
ROOT
HETATM    1  C15 UNL     1      82.132  28.664  38.845  1.00  0.00     0.111 A 
HETATM    2  C16 UNL     1      82.786  27.484  38.594  1.00  0.00     0.107 A 
HETATM    3  C18 UNL     1      82.214  26.406  37.908  1.00  0.00     0.111 A 
HETATM    4  C19 UNL     1      82.872  25.236  37.637  1.00  0.00     0.276 A 
HETATM    5  O4  UNL     1      84.041  25.059  38.002  1.00  0.00    -0.267 OA
HETATM    6  N5  UNL     1      82.258  24.257  36.963  1.00  0.00    -0.155 N 
ATOM      7  H5  UNL     1      82.751  23.386  36.764  1.00  0.00     0.187 HD
HETATM    8  C20 UNL     1      80.983  24.424  36.545  1.00  0.00     0.682 A 
HETATM    9  N8  UNL     1      80.315  25.574  36.802  1.00  0.00    -0.175 N 
ATOM     10  H8  UNL     1      79.353  25.676  36.478  1.00  0.00     0.186 HD
HETATM   11  C24 UNL     1      80.891  26.584  37.475  1.00  0.00     0.141 A 
HETATM   12  N9  UNL     1      80.230  27.729  37.714  1.00  0.00    -0.327 N 
ATOM     13  H9  UNL     1      79.268  27.826  37.389  1.00  0.00     0.169 HD
HETATM   14  C25 UNL     1      80.804  28.745  38.369  1.00  0.00     0.119 A 
HETATM   15  N10 UNL     1      80.137  29.825  38.575  1.00  0.00    -0.385 N 
ATOM     16 1H10 UNL     1      79.178  29.883  38.232  1.00  0.00     0.157 HD
ATOM     17 2H10 UNL     1      80.574  30.599  39.074  1.00  0.00     0.157 HD
ENDROOT
BRANCH   1  18
HETATM   18  C14 UNL     1      82.711  29.836  39.462  1.00  0.00     0.276 C 
HETATM   19  N4  UNL     1      83.076  30.052  40.781  1.00  0.00    -0.262 N 
ATOM     20  H4  UNL     1      82.944  29.313  41.471  1.00  0.00     0.190 HD
HETATM   21  O2  UNL     1      82.924  30.830  38.660  1.00  0.00    -0.266 OA
BRANCH  19  22
HETATM   22  N3  UNL     1      83.630  31.286  41.178  1.00  0.00    -0.249 N 
HETATM   23  C13 UNL     1      84.791  31.356  41.981  1.00  0.00     0.337 C 
HETATM   24  N2  UNL     1      85.310  32.619  42.355  1.00  0.00    -0.333 N 
HETATM   25  O1  UNL     1      85.345  30.269  42.350  1.00  0.00    -0.245 OA
ATOM     26  H3  UNL     1      83.182  32.152  40.877  1.00  0.00     0.192 HD
BRANCH  24  27
HETATM   27  C5  UNL     1      84.612  33.818  41.972  1.00  0.00     0.129 C 
BRANCH  27  28
HETATM   28  C4  UNL     1      83.528  34.263  42.891  1.00  0.00     0.047 C 
BRANCH  28  29
HETATM   29  C3  UNL     1      82.380  34.922  42.150  1.00  0.00     0.234 C 
BRANCH  29  30
HETATM   30  N1  UNL     1      81.360  33.991  41.767  1.00  0.00    -0.075 N 
ATOM     31  H12 UNL     1      80.520  34.060  42.341  1.00  0.00     0.277 HD
ATOM     32  H11 UNL     1      81.596  33.025  41.995  1.00  0.00     0.277 HD
BRANCH  30  33
HETATM   33  C2  UNL     1      81.100  34.193  40.349  1.00  0.00     0.228 C 
HETATM   34  C1  UNL     1      81.592  35.547  39.876  1.00  0.00     0.034 C 
ENDBRANCH  30  33
ENDBRANCH  29  30
ENDBRANCH  28  29
ENDBRANCH  27  28
ENDBRANCH  24  27
BRANCH  24  35
HETATM   35  C6  UNL     1      86.510  32.681  43.132  1.00  0.00     0.132 C 
BRANCH  35  36
HETATM   36  C7  UNL     1      86.378  32.215  44.545  1.00  0.00     0.004 C 
HETATM   37  C8  UNL     1      85.632  33.154  45.457  1.00  0.00     0.006 C 
HETATM   38  C9  UNL     1      85.672  32.620  46.899  1.00  0.00     0.000 C 
HETATM   39  C10 UNL     1      87.083  32.810  47.377  1.00  0.00     0.000 C 
HETATM   40  C11 UNL     1      88.100  32.693  46.308  1.00  0.00     0.000 C 
HETATM   41  C12 UNL     1      87.734  31.855  45.123  1.00  0.00     0.006 C 
ENDBRANCH  35  36
ENDBRANCH  24  35
ENDBRANCH  19  22
ENDBRANCH   1  18
BRANCH   2  42
HETATM   42  O3  UNL     1      84.091  27.330  39.048  1.00  0.00    -0.354 OA
HETATM   43  C17 UNL     1      84.197  26.984  40.449  1.00  0.00     0.210 C 
ENDBRANCH   2  42
BRANCH   8  44
HETATM   44  N6  UNL     1      80.397  23.497  35.905  1.00  0.00    -0.226 N 
ATOM     45  H6  UNL     1      79.762  22.870  36.399  1.00  0.00     0.177 HD
BRANCH  44  46
HETATM   46  C21 UNL     1      80.617  23.318  34.503  1.00  0.00     0.139 C 
BRANCH  46  47
HETATM   47  C22 UNL     1      79.646  24.169  33.711  1.00  0.00     0.047 C 
BRANCH  47  48
HETATM   48  C23 UNL     1      80.347  25.253  32.940  1.00  0.00     0.231 C 
BRANCH  48  49
HETATM   49  N7  UNL     1      79.427  26.085  32.193  1.00  0.00    -0.079 N 
ATOM     50  H73 UNL     1      78.462  25.904  32.469  1.00  0.00     0.274 HD
ATOM     51  H72 UNL     1      79.500  27.061  32.481  1.00  0.00     0.274 HD
ATOM     52  H71 UNL     1      79.545  25.989  31.185  1.00  0.00     0.274 HD
ENDBRANCH  48  49
ENDBRANCH  47  48
ENDBRANCH  46  47
ENDBRANCH  44  46
ENDBRANCH   8  44
TORSDOF 15
ENDMDL
MODEL 5
REMARK VINA RESULT: -8.407733645      1.093      1.241
REMARK  15 active torsions:
REMARK  status: ('A' for Active; 'I' for Inactive)
REMARK    1  A    between atoms: C2_2  and  N1_3 
REMARK    2  A    between atoms: N1_3  and  C3_6 
REMARK    3  A    between atoms: C3_6  and  C4_7 
REMARK    4  A    between atoms: C4_7  and  C5_8 
REMARK    5  A    between atoms: C5_8  and  N2_9 
REMARK    6  A    between atoms: N2_9  and  C6_10 
REMARK       I    between atoms: N2_9  and  C13_17 
REMARK    7  A    between atoms: C6_10  and  C7_11 
REMARK       I    between atoms: C13_17  and  N3_19 
REMARK    8  A    between atoms: N3_19  and  N4_21 
REMARK       I    between atoms: N4_21  and  C14_23 
REMARK    9  A    between atoms: C14_23  and  C15_25 
REMARK   10  A    between atoms: C16_26  and  O3_27 
REMARK   11  A    between atoms: C20_34  and  N6_35 
REMARK   12  A    between atoms: N6_35  and  C21_37 
REMARK   13  A    between atoms: C21_37  and  C22_38 
REMARK   14  A    between atoms: C22_38  and  C23_39 
REMARK   15  A    between atoms: C23_39  and  N7_40 
ROOT
HETATM    1  C15 UNL     1      81.927  28.444  39.004  1.00  0.00     0.111 A 
HETATM    2  C16 UNL     1      82.434  27.171  38.950  1.00  0.00     0.107 A 
HETATM    3  C18 UNL     1      81.787  26.098  38.327  1.00  0.00     0.111 A 
HETATM    4  C19 UNL     1      82.303  24.831  38.252  1.00  0.00     0.276 A 
HETATM    5  O4  UNL     1      83.398  24.554  38.756  1.00  0.00    -0.267 OA
HETATM    6  N5  UNL     1      81.625  23.862  37.625  1.00  0.00    -0.155 N 
ATOM      7  H5  UNL     1      82.012  22.920  37.573  1.00  0.00     0.187 HD
HETATM    8  C20 UNL     1      80.427  24.136  37.059  1.00  0.00     0.682 A 
HETATM    9  N8  UNL     1      79.901  25.383  37.121  1.00  0.00    -0.175 N 
ATOM     10  H8  UNL     1      78.995  25.563  36.687  1.00  0.00     0.186 HD
HETATM   11  C24 UNL     1      80.545  26.386  37.739  1.00  0.00     0.141 A 
HETATM   12  N9  UNL     1      80.026  27.624  37.784  1.00  0.00    -0.327 N 
ATOM     13  H9  UNL     1      79.120  27.800  37.351  1.00  0.00     0.169 HD
HETATM   14  C25 UNL     1      80.671  28.632  38.384  1.00  0.00     0.119 A 
HETATM   15  N10 UNL     1      80.140  29.803  38.403  1.00  0.00    -0.385 N 
ATOM     16 1H10 UNL     1      79.233  29.938  37.956  1.00  0.00     0.157 HD
ATOM     17 2H10 UNL     1      80.631  30.571  38.860  1.00  0.00     0.157 HD
ENDROOT
BRANCH   1  18
HETATM   18  C14 UNL     1      82.601  29.599  39.550  1.00  0.00     0.276 C 
HETATM   19  N4  UNL     1      82.844  29.940  40.871  1.00  0.00    -0.262 N 
ATOM     20  H4  UNL     1      82.526  29.323  41.619  1.00  0.00     0.190 HD
HETATM   21  O2  UNL     1      83.047  30.440  38.673  1.00  0.00    -0.266 OA
BRANCH  19  22
HETATM   22  N3  UNL     1      83.527  31.131  41.190  1.00  0.00    -0.249 N 
HETATM   23  C13 UNL     1      84.743  31.119  41.910  1.00  0.00     0.337 C 
HETATM   24  N2  UNL     1      85.393  32.342  42.208  1.00  0.00    -0.333 N 
HETATM   25  O1  UNL     1      85.228  29.998  42.274  1.00  0.00    -0.245 OA
ATOM     26  H3  UNL     1      83.133  32.024  40.894  1.00  0.00     0.192 HD
BRANCH  24  27
HETATM   27  C5  UNL     1      84.774  33.587  41.836  1.00  0.00     0.129 C 
BRANCH  27  28
HETATM   28  C4  UNL     1      83.812  34.156  42.820  1.00  0.00     0.047 C 
BRANCH  28  29
HETATM   29  C3  UNL     1      82.637  34.840  42.148  1.00  0.00     0.234 C 
BRANCH  29  30
HETATM   30  N1  UNL     1      81.498  33.980  42.014  1.00  0.00    -0.075 N 
ATOM     31  H12 UNL     1      80.780  34.156  42.717  1.00  0.00     0.277 HD
ATOM     32  H11 UNL     1      81.697  33.012  42.268  1.00  0.00     0.277 HD
BRANCH  30  33
HETATM   33  C2  UNL     1      81.007  34.122  40.651  1.00  0.00     0.228 C 
HETATM   34  C1  UNL     1      81.286  35.503  40.095  1.00  0.00     0.034 C 
ENDBRANCH  30  33
ENDBRANCH  29  30
ENDBRANCH  28  29
ENDBRANCH  27  28
ENDBRANCH  24  27
BRANCH  24  35
HETATM   35  C6  UNL     1      86.646  32.319  42.899  1.00  0.00     0.132 C 
BRANCH  35  36
HETATM   36  C7  UNL     1      87.254  33.658  43.159  1.00  0.00     0.004 C 
HETATM   37  C8  UNL     1      88.398  34.024  42.249  1.00  0.00     0.006 C 
HETATM   38  C9  UNL     1      89.011  35.362  42.695  1.00  0.00     0.000 C 
HETATM   39  C10 UNL     1      89.738  35.082  43.979  1.00  0.00     0.000 C 
HETATM   40  C11 UNL     1      89.119  34.017  44.800  1.00  0.00     0.000 C 
HETATM   41  C12 UNL     1      87.650  33.797  44.617  1.00  0.00     0.006 C 
ENDBRANCH  35  36
ENDBRANCH  24  35
ENDBRANCH  19  22
ENDBRANCH   1  18
BRANCH   2  42
HETATM   42  O3  UNL     1      83.660  26.910  39.554  1.00  0.00    -0.354 OA
HETATM   43  C17 UNL     1      83.587  26.702  40.983  1.00  0.00     0.210 C 
ENDBRANCH   2  42
BRANCH   8  44
HETATM   44  N6  UNL     1      79.782  23.219  36.464  1.00  0.00    -0.226 N 
ATOM     45  H6  UNL     1      78.763  23.254  36.443  1.00  0.00     0.177 HD
BRANCH  44  46
HETATM   46  C21 UNL     1      80.463  22.137  35.822  1.00  0.00     0.139 C 
BRANCH  46  47
HETATM   47  C22 UNL     1      80.637  22.432  34.346  1.00  0.00     0.047 C 
BRANCH  47  48
HETATM   48  C23 UNL     1      81.145  21.237  33.589  1.00  0.00     0.231 C 
BRANCH  48  49
HETATM   49  N7  UNL     1      80.216  20.788  32.574  1.00  0.00    -0.079 N 
ATOM     50  H73 UNL     1      79.250  20.921  32.876  1.00  0.00     0.274 HD
ATOM     51  H72 UNL     1      80.223  21.414  31.768  1.00  0.00     0.274 HD
ATOM     52  H71 UNL     1      80.382  19.822  32.292  1.00  0.00     0.274 HD
ENDBRANCH  48  49
ENDBRANCH  47  48
ENDBRANCH  46  47
ENDBRANCH  44  46
ENDBRANCH   8  44
TORSDOF 15
ENDMDL
