MODEL 1
REMARK VINA RESULT: -6.330543954      0.000      0.000
REMARK  2 active torsions:
REMARK  status: ('A' for Active; 'I' for Inactive)
REMARK    1  A    between atoms: N1_1  and  C1_4 
REMARK    2  A    between atoms: N4_9  and  O1_10 
ROOT
HETATM    1  C1  UNL     1      30.265  65.392   9.407  1.00  0.00     0.695 A 
HETATM    2  N2  UNL     1      31.460  65.152   9.976  1.00  0.00    -0.116 N 
ATOM      3  H2  UNL     1      31.488  64.585  10.823  1.00  0.00     0.207 HD
HETATM    4  N3  UNL     1      32.599  65.612   9.493  1.00  0.00    -0.197 N 
ATOM      5  H3  UNL     1      33.488  65.408   9.952  1.00  0.00     0.211 HD
HETATM    6  N4  UNL     1      32.549  66.345   8.395  1.00  0.00    -0.091 N 
HETATM    7  C2  UNL     1      31.366  66.604   7.800  1.00  0.00     0.381 A 
HETATM    8  O2  UNL     1      31.361  67.312   6.746  1.00  0.00    -0.242 OA
HETATM    9  N5  UNL     1      30.202  66.137   8.288  1.00  0.00    -0.137 N 
ATOM     10  H5  UNL     1      29.313  66.338   7.830  1.00  0.00     0.189 HD
ENDROOT
BRANCH   1  11
HETATM   11  N1  UNL     1      29.148  64.943   9.876  1.00  0.00    -0.233 N 
ATOM     12  H12 UNL     1      28.948  65.134  10.858  1.00  0.00     0.174 HD
ATOM     13  H11 UNL     1      28.473  64.419   9.320  1.00  0.00     0.174 HD
ENDBRANCH   1  11
BRANCH   6  14
HETATM   14  O1  UNL     1      33.622  66.788   7.927  1.00  0.00    -0.263 OA
ATOM     15  H1  UNL     1      33.625  67.111   7.033  1.00  0.00     0.247 HD
ENDBRANCH   6  14
TORSDOF 2
ENDMDL
MODEL 2
REMARK VINA RESULT: -6.248227715      2.069      3.054
REMARK  2 active torsions:
REMARK  status: ('A' for Active; 'I' for Inactive)
REMARK    1  A    between atoms: N1_1  and  C1_4 
REMARK    2  A    between atoms: N4_9  and  O1_10 
ROOT
HETATM    1  C1  UNL     1      32.488  66.308   8.434  1.00  0.00     0.695 A 
HETATM    2  N2  UNL     1      32.571  65.546   9.539  1.00  0.00    -0.116 N 
ATOM      3  H2  UNL     1      33.462  65.505  10.033  1.00  0.00     0.207 HD
HETATM    4  N3  UNL     1      31.557  64.849  10.019  1.00  0.00    -0.197 N 
ATOM      5  H3  UNL     1      31.658  64.282  10.861  1.00  0.00     0.211 HD
HETATM    6  N4  UNL     1      30.408  64.912   9.370  1.00  0.00    -0.091 N 
HETATM    7  C2  UNL     1      30.292  65.667   8.257  1.00  0.00     0.381 A 
HETATM    8  O2  UNL     1      29.170  65.701   7.663  1.00  0.00    -0.242 OA
HETATM    9  N5  UNL     1      31.322  66.380   7.765  1.00  0.00    -0.137 N 
ATOM     10  H5  UNL     1      31.223  66.949   6.924  1.00  0.00     0.189 HD
ENDROOT
BRANCH   1  11
HETATM   11  N1  UNL     1      33.477  66.992   7.963  1.00  0.00    -0.233 N 
ATOM     12  H12 UNL     1      33.427  68.006   8.057  1.00  0.00     0.174 HD
ATOM     13  H11 UNL     1      34.289  66.571   7.511  1.00  0.00     0.174 HD
ENDBRANCH   1  11
BRANCH   6  14
HETATM   14  O1  UNL     1      29.439  64.256   9.813  1.00  0.00    -0.263 OA
ATOM     15  H1  UNL     1      28.922  64.633  10.515  1.00  0.00     0.247 HD
ENDBRANCH   6  14
TORSDOF 2
ENDMDL
MODEL 3
REMARK VINA RESULT: -5.994005650      2.294      3.681
REMARK  2 active torsions:
REMARK  status: ('A' for Active; 'I' for Inactive)
REMARK    1  A    between atoms: N1_1  and  C1_4 
REMARK    2  A    between atoms: N4_9  and  O1_10 
ROOT
HETATM    1  C1  UNL     1      32.277  66.656   7.778  1.00  0.00     0.695 A 
HETATM    2  N2  UNL     1      31.599  67.177   6.740  1.00  0.00    -0.116 N 
ATOM      3  H2  UNL     1      32.103  67.772   6.082  1.00  0.00     0.207 HD
HETATM    4  N3  UNL     1      30.314  66.959   6.528  1.00  0.00    -0.197 N 
ATOM      5  H3  UNL     1      29.833  67.371   5.728  1.00  0.00     0.211 HD
HETATM    6  N4  UNL     1      29.673  66.187   7.387  1.00  0.00    -0.091 N 
HETATM    7  C2  UNL     1      30.324  65.648   8.440  1.00  0.00     0.381 A 
HETATM    8  O2  UNL     1      29.672  64.911   9.242  1.00  0.00    -0.242 OA
HETATM    9  N5  UNL     1      31.634  65.867   8.660  1.00  0.00    -0.137 N 
ATOM     10  H5  UNL     1      32.117  65.455   9.458  1.00  0.00     0.189 HD
ENDROOT
BRANCH   1  11
HETATM   11  N1  UNL     1      33.533  66.867   7.988  1.00  0.00    -0.233 N 
ATOM     12  H12 UNL     1      34.160  66.068   7.893  1.00  0.00     0.174 HD
ATOM     13  H11 UNL     1      33.918  67.778   8.239  1.00  0.00     0.174 HD
ENDBRANCH   1  11
BRANCH   6  14
HETATM   14  O1  UNL     1      28.455  65.972   7.199  1.00  0.00    -0.263 OA
ATOM     15  H1  UNL     1      27.905  65.798   7.954  1.00  0.00     0.247 HD
ENDBRANCH   6  14
TORSDOF 2
ENDMDL
MODEL 4
REMARK VINA RESULT: -5.858168516      1.775      2.581
REMARK  2 active torsions:
REMARK  status: ('A' for Active; 'I' for Inactive)
REMARK    1  A    between atoms: N1_1  and  C1_4 
REMARK    2  A    between atoms: N4_9  and  O1_10 
ROOT
HETATM    1  C1  UNL     1      29.755  66.700   7.200  1.00  0.00     0.695 A 
HETATM    2  N2  UNL     1      30.645  66.739   6.193  1.00  0.00    -0.116 N 
ATOM      3  H2  UNL     1      30.293  66.822   5.239  1.00  0.00     0.207 HD
HETATM    4  N3  UNL     1      31.951  66.675   6.374  1.00  0.00    -0.197 N 
ATOM      5  H3  UNL     1      32.596  66.708   5.584  1.00  0.00     0.211 HD
HETATM    6  N4  UNL     1      32.394  66.567   7.614  1.00  0.00    -0.091 N 
HETATM    7  C2  UNL     1      31.527  66.525   8.648  1.00  0.00     0.381 A 
HETATM    8  O2  UNL     1      31.993  66.421   9.824  1.00  0.00    -0.242 OA
HETATM    9  N5  UNL     1      30.195  66.590   8.468  1.00  0.00    -0.137 N 
ATOM     10  H5  UNL     1      29.548  66.558   9.257  1.00  0.00     0.189 HD
ENDROOT
BRANCH   1  11
HETATM   11  N1  UNL     1      28.477  66.762   7.027  1.00  0.00    -0.233 N 
ATOM     12  H12 UNL     1      27.889  66.425   7.789  1.00  0.00     0.174 HD
ATOM     13  H11 UNL     1      28.040  67.126   6.180  1.00  0.00     0.174 HD
ENDBRANCH   1  11
BRANCH   6  14
HETATM   14  O1  UNL     1      33.630  66.505   7.800  1.00  0.00    -0.263 OA
ATOM     15  H1  UNL     1      34.203  66.921   7.166  1.00  0.00     0.247 HD
ENDBRANCH   6  14
TORSDOF 2
ENDMDL
MODEL 5
REMARK VINA RESULT: -5.676959431      2.327      3.125
REMARK  2 active torsions:
REMARK  status: ('A' for Active; 'I' for Inactive)
REMARK    1  A    between atoms: N1_1  and  C1_4 
REMARK    2  A    between atoms: N4_9  and  O1_10 
ROOT
HETATM    1  C1  UNL     1      31.454  66.582   7.660  1.00  0.00     0.695 A 
HETATM    2  N2  UNL     1      32.250  66.013   8.583  1.00  0.00    -0.116 N 
ATOM      3  H2  UNL     1      33.260  66.122   8.484  1.00  0.00     0.207 HD
HETATM    4  N3  UNL     1      31.794  65.322   9.611  1.00  0.00    -0.197 N 
ATOM      5  H3  UNL     1      32.430  64.905  10.291  1.00  0.00     0.211 HD
HETATM    6  N4  UNL     1      30.485  65.189   9.727  1.00  0.00    -0.091 N 
HETATM    7  C2  UNL     1      29.657  65.747   8.819  1.00  0.00     0.381 A 
HETATM    8  O2  UNL     1      28.405  65.596   8.967  1.00  0.00    -0.242 OA
HETATM    9  N5  UNL     1      30.118  66.453   7.770  1.00  0.00    -0.137 N 
ATOM     10  H5  UNL     1      29.484  66.871   7.089  1.00  0.00     0.189 HD
ENDROOT
BRANCH   1  11
HETATM   11  N1  UNL     1      31.897  67.259   6.654  1.00  0.00    -0.233 N 
ATOM     12  H12 UNL     1      32.718  66.891   6.173  1.00  0.00     0.174 HD
ATOM     13  H11 UNL     1      31.471  68.126   6.326  1.00  0.00     0.174 HD
ENDBRANCH   1  11
BRANCH   6  14
HETATM   14  O1  UNL     1      30.038  64.535  10.697  1.00  0.00    -0.263 OA
ATOM     15  H1  UNL     1      29.191  64.779  11.053  1.00  0.00     0.247 HD
ENDBRANCH   6  14
TORSDOF 2
ENDMDL
