MODEL 1
REMARK VINA RESULT: -5.655842033      0.000      0.000
REMARK  1 active torsions:
REMARK  status: ('A' for Active; 'I' for Inactive)
REMARK    1  A    between atoms: N3_4  and  N4_6 
ROOT
HETATM    1  N4  UNL     1      30.097  64.772  10.573  1.00  0.00    -0.269 N 
ATOM      2  H4  UNL     1      30.426  64.874  11.534  1.00  0.00     0.190 HD
HETATM    3  C2  UNL     1      30.721  65.411   9.660  1.00  0.00     0.206 A 
HETATM    4  N5  UNL     1      31.832  66.284   9.652  1.00  0.00    -0.279 N 
ATOM      5  H5  UNL     1      32.461  66.662  10.360  1.00  0.00     0.173 HD
HETATM    6  C3  UNL     1      31.702  66.417   8.221  1.00  0.00     0.329 A 
HETATM    7  O1  UNL     1      32.358  67.069   7.379  1.00  0.00    -0.246 OA
HETATM    8  N6  UNL     1      30.588  65.536   8.255  1.00  0.00    -0.279 N 
ATOM      9  H6  UNL     1      29.953  65.150   7.555  1.00  0.00     0.173 HD
ENDROOT
BRANCH   1  10
HETATM   10  N3  UNL     1      29.018  63.960  10.350  1.00  0.00    -0.273 N 
HETATM   11  C1  UNL     1      28.439  63.389  11.367  1.00  0.00     0.215 C 
HETATM   12  N1  UNL     1      28.951  63.631  12.661  1.00  0.00    -0.065 NA
HETATM   13  N2  UNL     1      27.312  62.541  11.141  1.00  0.00    -0.065 NA
ATOM     14  H3  UNL     1      28.673  63.805   9.402  1.00  0.00     0.189 HD
ENDBRANCH   1  10
TORSDOF 1
ENDMDL
MODEL 2
REMARK VINA RESULT: -5.615007045      1.034      1.490
REMARK  1 active torsions:
REMARK  status: ('A' for Active; 'I' for Inactive)
REMARK    1  A    between atoms: N3_4  and  N4_6 
ROOT
HETATM    1  N4  UNL     1      29.143  65.056  10.040  1.00  0.00    -0.269 N 
ATOM      2  H4  UNL     1      28.271  65.493   9.742  1.00  0.00     0.190 HD
HETATM    3  C2  UNL     1      30.233  65.520   9.564  1.00  0.00     0.206 A 
HETATM    4  N5  UNL     1      30.552  66.562   8.663  1.00  0.00    -0.279 N 
ATOM      5  H5  UNL     1      30.017  67.247   8.131  1.00  0.00     0.173 HD
HETATM    6  C3  UNL     1      31.952  66.248   8.814  1.00  0.00     0.329 A 
HETATM    7  O1  UNL     1      32.981  66.752   8.310  1.00  0.00    -0.246 OA
HETATM    8  N6  UNL     1      31.608  65.207   9.718  1.00  0.00    -0.279 N 
ATOM      9  H6  UNL     1      32.133  64.517  10.256  1.00  0.00     0.173 HD
ENDROOT
BRANCH   1  10
HETATM   10  N3  UNL     1      29.066  64.014  10.923  1.00  0.00    -0.273 N 
HETATM   11  C1  UNL     1      28.018  63.242  10.896  1.00  0.00     0.215 C 
HETATM   12  N1  UNL     1      27.001  63.515   9.954  1.00  0.00    -0.065 NA
HETATM   13  N2  UNL     1      27.931  62.152  11.815  1.00  0.00    -0.065 NA
ATOM     14  H3  UNL     1      29.818  63.844  11.592  1.00  0.00     0.189 HD
ENDBRANCH   1  10
TORSDOF 1
ENDMDL
MODEL 3
REMARK VINA RESULT: -5.415231752      1.201      1.457
REMARK  1 active torsions:
REMARK  status: ('A' for Active; 'I' for Inactive)
REMARK    1  A    between atoms: N3_4  and  N4_6 
ROOT
HETATM    1  N4  UNL     1      30.469  64.768  10.413  1.00  0.00    -0.269 N 
ATOM      2  H4  UNL     1      31.211  64.083  10.554  1.00  0.00     0.190 HD
HETATM    3  C2  UNL     1      30.539  65.517   9.381  1.00  0.00     0.206 A 
HETATM    4  N5  UNL     1      31.456  65.640   8.313  1.00  0.00    -0.279 N 
ATOM      5  H5  UNL     1      32.324  65.175   8.046  1.00  0.00     0.173 HD
HETATM    6  C3  UNL     1      30.648  66.699   7.757  1.00  0.00     0.329 A 
HETATM    7  O1  UNL     1      30.780  67.398   6.728  1.00  0.00    -0.246 OA
HETATM    8  N6  UNL     1      29.741  66.556   8.841  1.00  0.00    -0.279 N 
ATOM      9  H6  UNL     1      28.871  67.013   9.117  1.00  0.00     0.173 HD
ENDROOT
BRANCH   1  10
HETATM   10  N3  UNL     1      29.464  64.821  11.340  1.00  0.00    -0.273 N 
HETATM   11  C1  UNL     1      28.496  63.952  11.271  1.00  0.00     0.215 C 
HETATM   12  N1  UNL     1      28.524  62.990  10.237  1.00  0.00    -0.065 NA
HETATM   13  N2  UNL     1      27.445  64.002  12.236  1.00  0.00    -0.065 NA
ATOM     14  H3  UNL     1      29.473  65.529  12.075  1.00  0.00     0.189 HD
ENDBRANCH   1  10
TORSDOF 1
ENDMDL
MODEL 4
REMARK VINA RESULT: -5.397576524      1.255      1.390
REMARK  1 active torsions:
REMARK  status: ('A' for Active; 'I' for Inactive)
REMARK    1  A    between atoms: N3_4  and  N4_6 
ROOT
HETATM    1  N4  UNL     1      30.155  65.053  10.552  1.00  0.00    -0.269 N 
ATOM      2  H4  UNL     1      30.503  64.370  11.226  1.00  0.00     0.190 HD
HETATM    3  C2  UNL     1      31.004  65.612   9.780  1.00  0.00     0.206 A 
HETATM    4  N5  UNL     1      32.404  65.510   9.616  1.00  0.00    -0.279 N 
ATOM      5  H5  UNL     1      33.148  64.969  10.057  1.00  0.00     0.173 HD
HETATM    6  C3  UNL     1      32.341  66.494   8.562  1.00  0.00     0.329 A 
HETATM    7  O1  UNL     1      33.226  67.001   7.838  1.00  0.00    -0.246 OA
HETATM    8  N6  UNL     1      30.934  66.578   8.745  1.00  0.00    -0.279 N 
ATOM      9  H6  UNL     1      30.182  67.113   8.310  1.00  0.00     0.173 HD
ENDROOT
BRANCH   1  10
HETATM   10  N3  UNL     1      28.811  65.308  10.537  1.00  0.00    -0.273 N 
HETATM   11  C1  UNL     1      27.982  64.311  10.414  1.00  0.00     0.215 C 
HETATM   12  N1  UNL     1      28.508  63.004  10.301  1.00  0.00    -0.065 NA
HETATM   13  N2  UNL     1      26.578  64.570  10.399  1.00  0.00    -0.065 NA
ATOM     14  H3  UNL     1      28.463  66.263  10.621  1.00  0.00     0.189 HD
ENDBRANCH   1  10
TORSDOF 1
ENDMDL
MODEL 5
REMARK VINA RESULT: -5.312558980      2.719      4.909
REMARK  1 active torsions:
REMARK  status: ('A' for Active; 'I' for Inactive)
REMARK    1  A    between atoms: N3_4  and  N4_6 
ROOT
HETATM    1  N4  UNL     1      30.601  64.818   9.245  1.00  0.00    -0.269 N 
ATOM      2  H4  UNL     1      31.440  64.275   9.450  1.00  0.00     0.190 HD
HETATM    3  C2  UNL     1      29.681  64.848  10.130  1.00  0.00     0.206 A 
HETATM    4  N5  UNL     1      29.529  64.275  11.413  1.00  0.00    -0.279 N 
ATOM      5  H5  UNL     1      30.098  63.674  12.010  1.00  0.00     0.173 HD
HETATM    6  C3  UNL     1      28.231  64.896  11.524  1.00  0.00     0.329 A 
HETATM    7  O1  UNL     1      27.373  64.882  12.434  1.00  0.00    -0.246 OA
HETATM    8  N6  UNL     1      28.407  65.462  10.233  1.00  0.00    -0.279 N 
ATOM      9  H6  UNL     1      27.848  66.063   9.627  1.00  0.00     0.173 HD
ENDROOT
BRANCH   1  10
HETATM   10  N3  UNL     1      30.537  65.465   8.041  1.00  0.00    -0.273 N 
HETATM   11  C1  UNL     1      31.433  66.368   7.763  1.00  0.00     0.215 C 
HETATM   12  N1  UNL     1      32.436  66.643   8.719  1.00  0.00    -0.065 NA
HETATM   13  N2  UNL     1      31.372  67.047   6.508  1.00  0.00    -0.065 NA
ATOM     14  H3  UNL     1      29.799  65.244   7.372  1.00  0.00     0.189 HD
ENDBRANCH   1  10
TORSDOF 1
ENDMDL
