MODEL 1
REMARK VINA RESULT: -6.647391105      0.000      0.000
REMARK  2 active torsions:
REMARK  status: ('A' for Active; 'I' for Inactive)
REMARK    1  A    between atoms: N3_4  and  N4_6 
REMARK    2  A    between atoms: C2_8  and  N5_9 
ROOT
HETATM    1  N5  UNL     1      28.408  63.946  11.066  1.00  0.00    -0.284 N 
HETATM    2  C3  UNL     1      28.752  63.791  12.439  1.00  0.00     0.189 C 
HETATM    3  C4  UNL     1      27.593  63.586  13.366  1.00  0.00     0.076 C 
HETATM    4  N6  UNL     1      26.622  62.660  12.939  1.00  0.00    -0.399 N 
ATOM      5  H6  UNL     1      26.890  61.743  12.581  1.00  0.00     0.158 HD
HETATM    6  C5  UNL     1      25.262  63.043  13.022  1.00  0.00     0.146 C 
HETATM    7  C6  UNL     1      24.852  64.132  12.067  1.00  0.00     0.253 C 
HETATM    8  N7  UNL     1      25.030  63.768  10.689  1.00  0.00    -0.059 N 
ATOM      9  H71 UNL     1      24.256  64.094  10.109  1.00  0.00     0.278 HD
ATOM     10  H72 UNL     1      24.918  62.765  10.546  1.00  0.00     0.278 HD
HETATM   11  C7  UNL     1      26.317  64.244  10.187  1.00  0.00     0.366 C 
HETATM   12  N8  UNL     1      27.362  63.276  10.419  1.00  0.00    -0.110 NA
ENDROOT
BRANCH   1  13
HETATM   13  C2  UNL     1      29.171  64.840  10.272  1.00  0.00     0.213 C 
HETATM   14  N4  UNL     1      30.029  64.449   9.407  1.00  0.00    -0.293 N 
ATOM     15  H4  UNL     1      30.184  63.450   9.268  1.00  0.00     0.187 HD
BRANCH  14  16
HETATM   16  N3  UNL     1      30.755  65.368   8.651  1.00  0.00    -0.275 N 
HETATM   17  C1  UNL     1      30.424  65.744   7.464  1.00  0.00     0.215 C 
HETATM   18  N1  UNL     1      31.275  66.694   6.826  1.00  0.00    -0.065 NA
HETATM   19  N2  UNL     1      29.290  65.276   6.774  1.00  0.00    -0.065 NA
ATOM     20  H3  UNL     1      31.599  65.767   9.063  1.00  0.00     0.189 HD
ENDBRANCH  14  16
ENDBRANCH   1  13
TORSDOF 2
ENDMDL
MODEL 2
REMARK VINA RESULT: -6.496959491      2.965      6.349
REMARK  2 active torsions:
REMARK  status: ('A' for Active; 'I' for Inactive)
REMARK    1  A    between atoms: N3_4  and  N4_6 
REMARK    2  A    between atoms: C2_8  and  N5_9 
ROOT
HETATM    1  N5  UNL     1      28.885  65.658   8.120  1.00  0.00    -0.284 N 
HETATM    2  C3  UNL     1      29.151  66.585   7.074  1.00  0.00     0.189 C 
HETATM    3  C4  UNL     1      30.577  67.034   6.968  1.00  0.00     0.076 C 
HETATM    4  N6  UNL     1      31.547  66.018   7.057  1.00  0.00    -0.399 N 
ATOM      5  H6  UNL     1      31.459  65.158   6.517  1.00  0.00     0.158 HD
HETATM    6  C5  UNL     1      32.649  66.231   7.919  1.00  0.00     0.146 C 
HETATM    7  C6  UNL     1      32.312  66.235   9.386  1.00  0.00     0.253 C 
HETATM    8  N7  UNL     1      31.747  64.994   9.838  1.00  0.00    -0.059 N 
ATOM      9  H71 UNL     1      32.104  64.729  10.756  1.00  0.00     0.278 HD
ATOM     10  H72 UNL     1      32.099  64.201   9.301  1.00  0.00     0.278 HD
HETATM   11  C7  UNL     1      30.288  65.050   9.823  1.00  0.00     0.366 C 
HETATM   12  N8  UNL     1      29.760  64.648   8.541  1.00  0.00    -0.110 NA
ENDROOT
BRANCH   1  13
HETATM   13  C2  UNL     1      27.644  65.742   8.802  1.00  0.00     0.213 C 
HETATM   14  N4  UNL     1      26.517  65.809   8.199  1.00  0.00    -0.293 N 
ATOM     15  H4  UNL     1      26.492  65.803   7.179  1.00  0.00     0.187 HD
BRANCH  14  16
HETATM   16  N3  UNL     1      25.324  65.890   8.916  1.00  0.00    -0.275 N 
HETATM   17  C1  UNL     1      24.435  64.958   8.941  1.00  0.00     0.215 C 
HETATM   18  N1  UNL     1      23.269  65.199   9.725  1.00  0.00    -0.065 NA
HETATM   19  N2  UNL     1      24.550  63.738   8.250  1.00  0.00    -0.065 NA
ATOM     20  H3  UNL     1      25.144  66.740   9.452  1.00  0.00     0.189 HD
ENDBRANCH  14  16
ENDBRANCH   1  13
TORSDOF 2
ENDMDL
MODEL 3
REMARK VINA RESULT: -6.465369100      1.467      1.611
REMARK  2 active torsions:
REMARK  status: ('A' for Active; 'I' for Inactive)
REMARK    1  A    between atoms: N3_4  and  N4_6 
REMARK    2  A    between atoms: C2_8  and  N5_9 
ROOT
HETATM    1  N5  UNL     1      27.552  62.930  11.320  1.00  0.00    -0.284 N 
HETATM    2  C3  UNL     1      27.688  63.080  12.729  1.00  0.00     0.189 C 
HETATM    3  C4  UNL     1      26.405  63.296  13.473  1.00  0.00     0.076 C 
HETATM    4  N6  UNL     1      25.339  62.450  13.115  1.00  0.00    -0.399 N 
ATOM      5  H6  UNL     1      25.473  61.442  13.027  1.00  0.00     0.158 HD
HETATM    6  C5  UNL     1      24.075  63.042  12.881  1.00  0.00     0.146 C 
HETATM    7  C6  UNL     1      23.998  63.901  11.647  1.00  0.00     0.253 C 
HETATM    8  N7  UNL     1      24.274  63.176  10.438  1.00  0.00    -0.059 N 
ATOM      9  H71 UNL     1      23.652  63.456   9.679  1.00  0.00     0.278 HD
ATOM     10  H72 UNL     1      23.994  62.198  10.513  1.00  0.00     0.278 HD
HETATM   11  C7  UNL     1      25.679  63.307  10.061  1.00  0.00     0.366 C 
HETATM   12  N8  UNL     1      26.487  62.284  10.680  1.00  0.00    -0.110 NA
ENDROOT
BRANCH   1  13
HETATM   13  C2  UNL     1      28.561  63.467  10.480  1.00  0.00     0.213 C 
HETATM   14  N4  UNL     1      29.546  64.156  10.921  1.00  0.00    -0.293 N 
ATOM     15  H4  UNL     1      29.624  64.337  11.922  1.00  0.00     0.187 HD
BRANCH  14  16
HETATM   16  N3  UNL     1      30.512  64.662  10.053  1.00  0.00    -0.275 N 
HETATM   17  C1  UNL     1      30.440  65.819   9.492  1.00  0.00     0.215 C 
HETATM   18  N1  UNL     1      31.515  66.187   8.630  1.00  0.00    -0.065 NA
HETATM   19  N2  UNL     1      29.378  66.722   9.678  1.00  0.00    -0.065 NA
ATOM     20  H3  UNL     1      31.326  64.080   9.851  1.00  0.00     0.189 HD
ENDBRANCH  14  16
ENDBRANCH   1  13
TORSDOF 2
ENDMDL
MODEL 4
REMARK VINA RESULT: -6.398627877      1.797      2.878
REMARK  2 active torsions:
REMARK  status: ('A' for Active; 'I' for Inactive)
REMARK    1  A    between atoms: N3_4  and  N4_6 
REMARK    2  A    between atoms: C2_8  and  N5_9 
ROOT
HETATM    1  N5  UNL     1      27.334  65.271   9.773  1.00  0.00    -0.284 N 
HETATM    2  C3  UNL     1      26.615  65.585   8.586  1.00  0.00     0.189 C 
HETATM    3  C4  UNL     1      25.502  64.640   8.246  1.00  0.00     0.076 C 
HETATM    4  N6  UNL     1      24.661  64.275   9.313  1.00  0.00    -0.399 N 
ATOM      5  H6  UNL     1      24.279  64.977   9.947  1.00  0.00     0.158 HD
HETATM    6  C5  UNL     1      24.361  62.901   9.477  1.00  0.00     0.146 C 
HETATM    7  C6  UNL     1      25.522  62.048   9.912  1.00  0.00     0.253 C 
HETATM    8  N7  UNL     1      26.067  62.443  11.182  1.00  0.00    -0.059 N 
ATOM      9  H71 UNL     1      26.315  61.636  11.754  1.00  0.00     0.278 HD
ATOM     10  H72 UNL     1      25.354  62.849  11.789  1.00  0.00     0.278 HD
HETATM   11  C7  UNL     1      27.201  63.347  11.005  1.00  0.00     0.366 C 
HETATM   12  N8  UNL     1      26.771  64.722  10.933  1.00  0.00    -0.110 NA
ENDROOT
BRANCH   1  13
HETATM   13  C2  UNL     1      28.729  65.525   9.809  1.00  0.00     0.213 C 
HETATM   14  N4  UNL     1      29.487  65.418   8.783  1.00  0.00    -0.293 N 
ATOM     15  H4  UNL     1      29.084  65.137   7.889  1.00  0.00     0.187 HD
BRANCH  14  16
HETATM   16  N3  UNL     1      30.853  65.679   8.871  1.00  0.00    -0.275 N 
HETATM   17  C1  UNL     1      31.507  66.385   8.014  1.00  0.00     0.215 C 
HETATM   18  N1  UNL     1      32.902  66.557   8.250  1.00  0.00    -0.065 NA
HETATM   19  N2  UNL     1      30.929  66.983   6.879  1.00  0.00    -0.065 NA
ATOM     20  H3  UNL     1      31.366  65.286   9.660  1.00  0.00     0.189 HD
ENDBRANCH  14  16
ENDBRANCH   1  13
TORSDOF 2
ENDMDL
MODEL 5
REMARK VINA RESULT: -6.182973302      2.085      3.078
REMARK  2 active torsions:
REMARK  status: ('A' for Active; 'I' for Inactive)
REMARK    1  A    between atoms: N3_4  and  N4_6 
REMARK    2  A    between atoms: C2_8  and  N5_9 
ROOT
HETATM    1  N5  UNL     1      26.461  65.083   9.476  1.00  0.00    -0.284 N 
HETATM    2  C3  UNL     1      25.395  65.137   8.534  1.00  0.00     0.189 C 
HETATM    3  C4  UNL     1      24.562  63.895   8.443  1.00  0.00     0.076 C 
HETATM    4  N6  UNL     1      24.176  63.324   9.671  1.00  0.00    -0.399 N 
ATOM      5  H6  UNL     1      23.785  63.898  10.418  1.00  0.00     0.158 HD
HETATM    6  C5  UNL     1      24.348  61.929   9.834  1.00  0.00     0.146 C 
HETATM    7  C6  UNL     1      25.781  61.473   9.908  1.00  0.00     0.253 C 
HETATM    8  N7  UNL     1      26.498  62.046  11.012  1.00  0.00    -0.059 N 
ATOM      9  H71 UNL     1      27.114  61.365  11.457  1.00  0.00     0.278 HD
ATOM     10  H72 UNL     1      25.883  62.237  11.803  1.00  0.00     0.278 HD
HETATM   11  C7  UNL     1      27.228  63.241  10.596  1.00  0.00     0.366 C 
HETATM   12  N8  UNL     1      26.409  64.423  10.711  1.00  0.00    -0.110 NA
ENDROOT
BRANCH   1  13
HETATM   13  C2  UNL     1      27.677  65.742   9.163  1.00  0.00     0.213 C 
HETATM   14  N4  UNL     1      27.920  66.256   8.017  1.00  0.00    -0.293 N 
ATOM     15  H4  UNL     1      27.216  66.199   7.281  1.00  0.00     0.187 HD
BRANCH  14  16
HETATM   16  N3  UNL     1      29.133  66.894   7.759  1.00  0.00    -0.275 N 
HETATM   17  C1  UNL     1      30.122  66.338   7.148  1.00  0.00     0.215 C 
HETATM   18  N1  UNL     1      31.293  67.130   6.964  1.00  0.00    -0.065 NA
HETATM   19  N2  UNL     1      30.109  65.018   6.663  1.00  0.00    -0.065 NA
ATOM     20  H3  UNL     1      29.243  67.858   8.074  1.00  0.00     0.189 HD
ENDBRANCH  14  16
ENDBRANCH   1  13
TORSDOF 2
ENDMDL
