MODEL 1
REMARK VINA RESULT: -7.562002924      0.000      0.000
REMARK  2 active torsions:
REMARK  status: ('A' for Active; 'I' for Inactive)
REMARK    1  A    between atoms: C4_8  and  N3_9 
REMARK    2  A    between atoms: N3_9  and  C5_11 
ROOT
HETATM    1  N3  UNL     1      30.967  64.869   9.984  1.00  0.00    -0.197 N 
ATOM      2  H3  UNL     1      31.434  64.428  10.778  1.00  0.00     0.183 HD
ENDROOT
BRANCH   1   3
HETATM    3  C4  UNL     1      29.578  64.699   9.844  1.00  0.00     0.141 C 
HETATM    4  C3  UNL     1      28.874  64.211  10.851  1.00  0.00     0.116 A 
HETATM    5  N2  UNL     1      29.294  63.828  12.062  1.00  0.00    -0.295 N 
HETATM    6  C6  UNL     1      27.492  63.987  10.859  1.00  0.00     0.228 A 
HETATM    7  N1  UNL     1      28.276  63.390  12.803  1.00  0.00    -0.297 N 
ATOM      8  H2  UNL     1      30.263  63.866  12.377  1.00  0.00     0.187 HD
HETATM    9  C2  UNL     1      27.141  63.475  12.087  1.00  0.00     0.091 A 
ATOM     10  H1  UNL     1      28.347  63.046  13.761  1.00  0.00     0.187 HD
HETATM   11  C1  UNL     1      25.906  63.138  12.460  1.00  0.00     0.049 C 
HETATM   12  O1  UNL     1      26.744  64.238   9.864  1.00  0.00    -0.283 OA
ENDBRANCH   1   3
BRANCH   1  13
HETATM   13  C5  UNL     1      31.682  65.561   9.149  1.00  0.00     0.713 A 
HETATM   14  N4  UNL     1      32.957  65.915   9.385  1.00  0.00    -0.115 N 
HETATM   15  N5  UNL     1      33.366  66.613   8.314  1.00  0.00    -0.213 N 
ATOM     16  H4  UNL     1      33.506  65.695  10.215  1.00  0.00     0.207 HD
HETATM   17  N6  UNL     1      32.401  66.705   7.431  1.00  0.00    -0.213 N 
ATOM     18  H5  UNL     1      34.297  67.015   8.202  1.00  0.00     0.210 HD
HETATM   19  N7  UNL     1      31.352  66.052   7.947  1.00  0.00    -0.115 N 
ATOM     20  H6  UNL     1      32.441  67.181   6.530  1.00  0.00     0.210 HD
ATOM     21  H7  UNL     1      30.443  65.945   7.496  1.00  0.00     0.207 HD
ENDBRANCH   1  13
TORSDOF 2
ENDMDL
MODEL 2
REMARK VINA RESULT: -7.540448365      1.571      5.889
REMARK  2 active torsions:
REMARK  status: ('A' for Active; 'I' for Inactive)
REMARK    1  A    between atoms: C4_8  and  N3_9 
REMARK    2  A    between atoms: N3_9  and  C5_11 
ROOT
HETATM    1  N3  UNL     1      29.269  63.856  11.752  1.00  0.00    -0.197 N 
ATOM      2  H3  UNL     1      30.262  63.773  11.975  1.00  0.00     0.183 HD
ENDROOT
BRANCH   1   3
HETATM    3  C4  UNL     1      28.903  64.424  10.519  1.00  0.00     0.141 C 
HETATM    4  C3  UNL     1      29.834  64.940   9.735  1.00  0.00     0.116 A 
HETATM    5  N2  UNL     1      31.155  65.015   9.935  1.00  0.00    -0.295 N 
HETATM    6  C6  UNL     1      29.622  65.537   8.486  1.00  0.00     0.228 A 
HETATM    7  N1  UNL     1      31.760  65.609   8.906  1.00  0.00    -0.297 N 
ATOM      8  H2  UNL     1      31.634  64.664  10.763  1.00  0.00     0.187 HD
HETATM    9  C2  UNL     1      30.838  65.946   7.988  1.00  0.00     0.091 A 
ATOM     10  H1  UNL     1      32.763  65.779   8.829  1.00  0.00     0.187 HD
HETATM   11  C1  UNL     1      31.028  66.557   6.818  1.00  0.00     0.049 C 
HETATM   12  O1  UNL     1      28.473  65.649   7.958  1.00  0.00    -0.283 OA
ENDBRANCH   1   3
BRANCH   1  13
HETATM   13  C5  UNL     1      28.400  63.432  12.621  1.00  0.00     0.713 A 
HETATM   14  N4  UNL     1      27.468  62.506  12.341  1.00  0.00    -0.115 N 
HETATM   15  N5  UNL     1      26.760  62.322  13.467  1.00  0.00    -0.213 N 
ATOM     16  H4  UNL     1      27.325  62.035  11.448  1.00  0.00     0.207 HD
HETATM   17  N6  UNL     1      27.215  63.093  14.425  1.00  0.00    -0.213 N 
ATOM     18  H5  UNL     1      25.979  61.673  13.564  1.00  0.00     0.210 HD
HETATM   19  N7  UNL     1      28.236  63.784  13.903  1.00  0.00    -0.115 N 
ATOM     20  H6  UNL     1      26.861  63.154  15.380  1.00  0.00     0.210 HD
ATOM     21  H7  UNL     1      28.799  64.473  14.402  1.00  0.00     0.207 HD
ENDBRANCH   1  13
TORSDOF 2
ENDMDL
MODEL 3
REMARK VINA RESULT: -7.524922401      0.941      1.363
REMARK  2 active torsions:
REMARK  status: ('A' for Active; 'I' for Inactive)
REMARK    1  A    between atoms: C4_8  and  N3_9 
REMARK    2  A    between atoms: N3_9  and  C5_11 
ROOT
HETATM    1  N3  UNL     1      30.794  66.202  10.068  1.00  0.00    -0.197 N 
ATOM      2  H3  UNL     1      31.151  66.357  11.011  1.00  0.00     0.183 HD
ENDROOT
BRANCH   1   3
HETATM    3  C4  UNL     1      29.410  66.023   9.894  1.00  0.00     0.141 C 
HETATM    4  C3  UNL     1      28.814  64.973  10.432  1.00  0.00     0.116 A 
HETATM    5  N2  UNL     1      29.347  63.988  11.165  1.00  0.00    -0.295 N 
HETATM    6  C6  UNL     1      27.451  64.664  10.345  1.00  0.00     0.228 A 
HETATM    7  N1  UNL     1      28.414  63.108  11.529  1.00  0.00    -0.297 N 
ATOM      8  H2  UNL     1      30.334  63.920  11.412  1.00  0.00     0.187 HD
HETATM    9  C2  UNL     1      27.225  63.496  11.037  1.00  0.00     0.091 A 
ATOM     10  H1  UNL     1      28.578  62.272  12.091  1.00  0.00     0.187 HD
HETATM   11  C1  UNL     1      26.043  62.894  11.172  1.00  0.00     0.049 C 
HETATM   12  O1  UNL     1      26.617  65.385   9.717  1.00  0.00    -0.283 OA
ENDBRANCH   1   3
BRANCH   1  13
HETATM   13  C5  UNL     1      31.640  66.178   9.080  1.00  0.00     0.713 A 
HETATM   14  N4  UNL     1      31.268  66.147   7.790  1.00  0.00    -0.115 N 
HETATM   15  N5  UNL     1      32.397  66.131   7.065  1.00  0.00    -0.213 N 
ATOM     16  H4  UNL     1      30.314  66.138   7.431  1.00  0.00     0.207 HD
HETATM   17  N6  UNL     1      33.446  66.149   7.851  1.00  0.00    -0.213 N 
ATOM     18  H5  UNL     1      32.435  66.107   6.046  1.00  0.00     0.210 HD
HETATM   19  N7  UNL     1      32.979  66.179   9.106  1.00  0.00    -0.115 N 
ATOM     20  H6  UNL     1      34.425  66.142   7.564  1.00  0.00     0.210 HD
ATOM     21  H7  UNL     1      33.553  66.200   9.949  1.00  0.00     0.207 HD
ENDBRANCH   1  13
TORSDOF 2
ENDMDL
MODEL 4
REMARK VINA RESULT: -7.443826416      1.214      1.534
REMARK  2 active torsions:
REMARK  status: ('A' for Active; 'I' for Inactive)
REMARK    1  A    between atoms: C4_8  and  N3_9 
REMARK    2  A    between atoms: N3_9  and  C5_11 
ROOT
HETATM    1  N3  UNL     1      30.175  66.081   9.414  1.00  0.00    -0.197 N 
ATOM      2  H3  UNL     1      29.802  66.959   9.775  1.00  0.00     0.183 HD
ENDROOT
BRANCH   1   3
HETATM    3  C4  UNL     1      29.477  64.891   9.690  1.00  0.00     0.141 C 
HETATM    4  C3  UNL     1      29.071  64.643  10.924  1.00  0.00     0.116 A 
HETATM    5  N2  UNL     1      29.224  65.387  12.025  1.00  0.00    -0.295 N 
HETATM    6  C6  UNL     1      28.369  63.508  11.347  1.00  0.00     0.228 A 
HETATM    7  N1  UNL     1      28.670  64.793  13.082  1.00  0.00    -0.297 N 
ATOM      8  H2  UNL     1      29.701  66.288  12.052  1.00  0.00     0.187 HD
HETATM    9  C2  UNL     1      28.130  63.624  12.698  1.00  0.00     0.091 A 
ATOM     10  H1  UNL     1      28.659  65.167  14.031  1.00  0.00     0.187 HD
HETATM   11  C1  UNL     1      27.485  62.730  13.448  1.00  0.00     0.049 C 
HETATM   12  O1  UNL     1      28.038  62.566  10.564  1.00  0.00    -0.283 OA
ENDBRANCH   1   3
BRANCH   1  13
HETATM   13  C5  UNL     1      31.274  66.111   8.720  1.00  0.00     0.713 A 
HETATM   14  N4  UNL     1      31.304  66.006   7.381  1.00  0.00    -0.115 N 
HETATM   15  N5  UNL     1      32.595  66.078   7.020  1.00  0.00    -0.213 N 
ATOM     16  H4  UNL     1      30.503  65.894   6.760  1.00  0.00     0.207 HD
HETATM   17  N6  UNL     1      33.359  66.222   8.076  1.00  0.00    -0.213 N 
ATOM     18  H5  UNL     1      32.934  66.029   6.059  1.00  0.00     0.210 HD
HETATM   19  N7  UNL     1      32.540  66.243   9.135  1.00  0.00    -0.115 N 
ATOM     20  H6  UNL     1      34.375  66.301   8.088  1.00  0.00     0.210 HD
ATOM     21  H7  UNL     1      32.835  66.343  10.107  1.00  0.00     0.207 HD
ENDBRANCH   1  13
TORSDOF 2
ENDMDL
MODEL 5
REMARK VINA RESULT: -7.264056162      1.158      1.417
REMARK  2 active torsions:
REMARK  status: ('A' for Active; 'I' for Inactive)
REMARK    1  A    between atoms: C4_8  and  N3_9 
REMARK    2  A    between atoms: N3_9  and  C5_11 
ROOT
HETATM    1  N3  UNL     1      29.987  66.735   8.781  1.00  0.00    -0.197 N 
ATOM      2  H3  UNL     1      29.947  67.661   9.208  1.00  0.00     0.183 HD
ENDROOT
BRANCH   1   3
HETATM    3  C4  UNL     1      28.895  65.867   8.956  1.00  0.00     0.141 C 
HETATM    4  C3  UNL     1      28.882  65.030   9.979  1.00  0.00     0.116 A 
HETATM    5  N2  UNL     1      29.798  64.862  10.939  1.00  0.00    -0.295 N 
HETATM    6  C6  UNL     1      27.868  64.112  10.280  1.00  0.00     0.228 A 
HETATM    7  N1  UNL     1      29.420  63.916  11.799  1.00  0.00    -0.297 N 
ATOM      8  H2  UNL     1      30.669  65.388  11.005  1.00  0.00     0.187 HD
HETATM    9  C2  UNL     1      28.226  63.429  11.420  1.00  0.00     0.091 A 
ATOM     10  H1  UNL     1      29.952  63.612  12.614  1.00  0.00     0.187 HD
HETATM   11  C1  UNL     1      27.504  62.473  12.007  1.00  0.00     0.049 C 
HETATM   12  O1  UNL     1      26.819  63.984   9.577  1.00  0.00    -0.283 OA
ENDBRANCH   1   3
BRANCH   1  13
HETATM   13  C5  UNL     1      31.046  66.411   8.100  1.00  0.00     0.713 A 
HETATM   14  N4  UNL     1      32.298  66.567   8.563  1.00  0.00    -0.115 N 
HETATM   15  N5  UNL     1      33.121  66.128   7.598  1.00  0.00    -0.213 N 
ATOM     16  H4  UNL     1      32.570  66.944   9.470  1.00  0.00     0.207 HD
HETATM   17  N6  UNL     1      32.433  65.711   6.563  1.00  0.00    -0.213 N 
ATOM     18  H5  UNL     1      34.140  66.121   7.660  1.00  0.00     0.210 HD
HETATM   19  N7  UNL     1      31.141  65.885   6.872  1.00  0.00    -0.115 N 
ATOM     20  H6  UNL     1      32.806  65.330   5.694  1.00  0.00     0.210 HD
ATOM     21  H7  UNL     1      30.353  65.654   6.267  1.00  0.00     0.207 HD
ENDBRANCH   1  13
TORSDOF 2
ENDMDL
