MODEL 1
REMARK VINA RESULT: -6.774230165      0.000      0.000
REMARK  1 active torsions:
REMARK  status: ('A' for Active; 'I' for Inactive)
REMARK    1  A    between atoms: N3_4  and  C2_6 
ROOT
HETATM    1  C2  UNL     1      27.702  65.577   8.940  1.00  0.00     0.113 C 
HETATM    2  C3  UNL     1      28.968  65.821   8.763  1.00  0.00     0.115 A 
HETATM    3  C4  UNL     1      29.462  66.642   7.665  1.00  0.00     0.266 A 
HETATM    4  O1  UNL     1      28.644  67.139   6.853  1.00  0.00    -0.267 OA
HETATM    5  N4  UNL     1      30.859  66.890   7.499  1.00  0.00    -0.275 N 
ATOM      6  H4  UNL     1      31.185  67.468   6.723  1.00  0.00     0.173 HD
HETATM    7  C5  UNL     1      31.799  66.332   8.414  1.00  0.00     0.329 A 
HETATM    8  O2  UNL     1      33.037  66.538   8.288  1.00  0.00    -0.246 OA
HETATM    9  N5  UNL     1      31.373  65.522   9.505  1.00  0.00    -0.275 N 
ATOM     10  H5  UNL     1      32.052  65.127  10.155  1.00  0.00     0.173 HD
HETATM   11  C6  UNL     1      29.991  65.277   9.669  1.00  0.00     0.266 A 
HETATM   12  O3  UNL     1      29.589  64.569  10.619  1.00  0.00    -0.267 OA
ENDROOT
BRANCH   1  13
HETATM   13  N3  UNL     1      27.155  64.795   9.975  1.00  0.00    -0.342 N 
HETATM   14  C1  UNL     1      26.129  64.042   9.758  1.00  0.00     0.200 C 
HETATM   15  N1  UNL     1      25.548  64.001   8.461  1.00  0.00    -0.067 NA
HETATM   16  N2  UNL     1      25.543  63.239  10.765  1.00  0.00    -0.067 NA
ATOM     17  H3  UNL     1      27.573  64.823  10.906  1.00  0.00     0.167 HD
ENDBRANCH   1  13
TORSDOF 1
ENDMDL
MODEL 2
REMARK VINA RESULT: -6.496504002      1.477      1.477
REMARK  1 active torsions:
REMARK  status: ('A' for Active; 'I' for Inactive)
REMARK    1  A    between atoms: N3_4  and  C2_6 
ROOT
HETATM    1  C2  UNL     1      27.290  65.819   8.006  1.00  0.00     0.113 C 
HETATM    2  C3  UNL     1      28.550  65.911   8.319  1.00  0.00     0.115 A 
HETATM    3  C4  UNL     1      29.614  65.809   7.328  1.00  0.00     0.266 A 
HETATM    4  O1  UNL     1      29.315  65.626   6.122  1.00  0.00    -0.267 OA
HETATM    5  N4  UNL     1      30.988  65.916   7.704  1.00  0.00    -0.275 N 
ATOM      6  H4  UNL     1      31.717  65.841   6.994  1.00  0.00     0.173 HD
HETATM    7  C5  UNL     1      31.342  66.125   9.069  1.00  0.00     0.329 A 
HETATM    8  O2  UNL     1      32.548  66.222   9.425  1.00  0.00    -0.246 OA
HETATM    9  N5  UNL     1      30.344  66.231  10.080  1.00  0.00    -0.275 N 
ATOM     10  H5  UNL     1      30.606  66.381  11.054  1.00  0.00     0.173 HD
HETATM   11  C6  UNL     1      28.986  66.126   9.707  1.00  0.00     0.266 A 
HETATM   12  O3  UNL     1      28.088  66.217  10.575  1.00  0.00    -0.267 OA
ENDROOT
BRANCH   1  13
HETATM   13  N3  UNL     1      26.213  65.907   8.909  1.00  0.00    -0.342 N 
HETATM   14  C1  UNL     1      25.233  65.070   8.845  1.00  0.00     0.200 C 
HETATM   15  N1  UNL     1      25.241  64.049   7.856  1.00  0.00    -0.067 NA
HETATM   16  N2  UNL     1      24.128  65.118   9.728  1.00  0.00    -0.067 NA
ATOM     17  H3  UNL     1      26.208  66.638   9.620  1.00  0.00     0.167 HD
ENDBRANCH   1  13
TORSDOF 1
ENDMDL
MODEL 3
REMARK VINA RESULT: -6.250601469      1.178      2.330
REMARK  1 active torsions:
REMARK  status: ('A' for Active; 'I' for Inactive)
REMARK    1  A    between atoms: N3_4  and  C2_6 
ROOT
HETATM    1  C2  UNL     1      27.665  65.859   9.316  1.00  0.00     0.113 C 
HETATM    2  C3  UNL     1      28.940  65.953   9.072  1.00  0.00     0.115 A 
HETATM    3  C4  UNL     1      29.912  66.297  10.102  1.00  0.00     0.266 A 
HETATM    4  O1  UNL     1      29.516  66.512  11.275  1.00  0.00    -0.267 OA
HETATM    5  N4  UNL     1      31.305  66.393   9.802  1.00  0.00    -0.275 N 
ATOM      6  H4  UNL     1      31.970  66.636  10.538  1.00  0.00     0.173 HD
HETATM    7  C5  UNL     1      31.769  66.152   8.476  1.00  0.00     0.329 A 
HETATM    8  O2  UNL     1      32.995  66.230   8.186  1.00  0.00    -0.246 OA
HETATM    9  N5  UNL     1      30.865  65.812   7.430  1.00  0.00    -0.275 N 
ATOM     10  H5  UNL     1      31.205  65.641   6.483  1.00  0.00     0.173 HD
HETATM   11  C6  UNL     1      29.487  65.717   7.727  1.00  0.00     0.266 A 
HETATM   12  O3  UNL     1      28.670  65.421   6.827  1.00  0.00    -0.267 OA
ENDROOT
BRANCH   1  13
HETATM   13  N3  UNL     1      26.672  65.532   8.373  1.00  0.00    -0.342 N 
HETATM   14  C1  UNL     1      25.863  64.550   8.584  1.00  0.00     0.200 C 
HETATM   15  N1  UNL     1      25.974  63.791   9.782  1.00  0.00    -0.067 NA
HETATM   16  N2  UNL     1      24.850  64.182   7.668  1.00  0.00    -0.067 NA
ATOM     17  H3  UNL     1      26.592  66.077   7.514  1.00  0.00     0.167 HD
ENDBRANCH   1  13
TORSDOF 1
ENDMDL
MODEL 4
REMARK VINA RESULT: -6.182205294      1.883      2.233
REMARK  1 active torsions:
REMARK  status: ('A' for Active; 'I' for Inactive)
REMARK    1  A    between atoms: N3_4  and  C2_6 
ROOT
HETATM    1  C2  UNL     1      27.374  64.583  10.238  1.00  0.00     0.113 C 
HETATM    2  C3  UNL     1      28.152  65.103   9.334  1.00  0.00     0.115 A 
HETATM    3  C4  UNL     1      27.636  65.797   8.161  1.00  0.00     0.266 A 
HETATM    4  O1  UNL     1      26.394  65.904   8.006  1.00  0.00    -0.267 OA
HETATM    5  N4  UNL     1      28.517  66.358   7.186  1.00  0.00    -0.275 N 
ATOM      6  H4  UNL     1      28.136  66.840   6.372  1.00  0.00     0.173 HD
HETATM    7  C5  UNL     1      29.929  66.244   7.349  1.00  0.00     0.329 A 
HETATM    8  O2  UNL     1      30.727  66.732   6.503  1.00  0.00    -0.246 OA
HETATM    9  N5  UNL     1      30.489  65.577   8.476  1.00  0.00    -0.275 N 
ATOM     10  H5  UNL     1      31.500  65.500   8.584  1.00  0.00     0.173 HD
HETATM   11  C6  UNL     1      29.617  65.023   9.439  1.00  0.00     0.266 A 
HETATM   12  O3  UNL     1      30.081  64.430  10.439  1.00  0.00    -0.267 OA
ENDROOT
BRANCH   1  13
HETATM   13  N3  UNL     1      27.801  63.899  11.393  1.00  0.00    -0.342 N 
HETATM   14  C1  UNL     1      27.547  62.644  11.545  1.00  0.00     0.200 C 
HETATM   15  N1  UNL     1      26.830  61.943  10.537  1.00  0.00    -0.067 NA
HETATM   16  N2  UNL     1      27.954  61.914  12.686  1.00  0.00    -0.067 NA
ATOM     17  H3  UNL     1      28.317  64.402  12.115  1.00  0.00     0.167 HD
ENDBRANCH   1  13
TORSDOF 1
ENDMDL
MODEL 5
REMARK VINA RESULT: -5.993225712      4.911      6.291
REMARK  1 active torsions:
REMARK  status: ('A' for Active; 'I' for Inactive)
REMARK    1  A    between atoms: N3_4  and  C2_6 
ROOT
HETATM    1  C2  UNL     1      26.637  62.953  11.127  1.00  0.00     0.113 C 
HETATM    2  C3  UNL     1      26.649  63.276  12.387  1.00  0.00     0.115 A 
HETATM    3  C4  UNL     1      27.884  63.477  13.133  1.00  0.00     0.266 A 
HETATM    4  O1  UNL     1      28.986  63.338  12.548  1.00  0.00    -0.267 OA
HETATM    5  N4  UNL     1      27.863  63.831  14.517  1.00  0.00    -0.275 N 
ATOM      6  H4  UNL     1      28.739  63.968  15.022  1.00  0.00     0.173 HD
HETATM    7  C5  UNL     1      26.619  63.994  15.195  1.00  0.00     0.329 A 
HETATM    8  O2  UNL     1      26.575  64.306  16.416  1.00  0.00    -0.246 OA
HETATM    9  N5  UNL     1      25.381  63.809  14.516  1.00  0.00    -0.275 N 
ATOM     10  H5  UNL     1      24.496  63.927  15.009  1.00  0.00     0.173 HD
HETATM   11  C6  UNL     1      25.403  63.459  13.148  1.00  0.00     0.266 A 
HETATM   12  O3  UNL     1      24.330  63.290  12.526  1.00  0.00    -0.267 OA
ENDROOT
BRANCH   1  13
HETATM   13  N3  UNL     1      25.484  62.742  10.345  1.00  0.00    -0.342 N 
HETATM   14  C1  UNL     1      25.371  61.685   9.614  1.00  0.00     0.200 C 
HETATM   15  N1  UNL     1      26.418  60.723   9.599  1.00  0.00    -0.067 NA
HETATM   16  N2  UNL     1      24.234  61.429   8.812  1.00  0.00    -0.067 NA
ATOM     17  H3  UNL     1      24.732  63.432  10.357  1.00  0.00     0.167 HD
ENDBRANCH   1  13
TORSDOF 1
ENDMDL
