MODEL 1
REMARK VINA RESULT: -6.715510192      0.000      0.000
REMARK  1 active torsions:
REMARK  status: ('A' for Active; 'I' for Inactive)
REMARK       I    between atoms: N2_6  and  C3_7 
REMARK    1  A    between atoms: C3_7  and  C4_9 
ROOT
HETATM    1  C4  UNL     1      29.471  66.322   9.590  1.00  0.00     0.135 A 
HETATM    2  C5  UNL     1      30.621  66.366   8.935  1.00  0.00     0.110 A 
HETATM    3  N3  UNL     1      31.941  66.286   8.726  1.00  0.00    -0.347 N 
ATOM      4  H3  UNL     1      32.645  66.046   9.424  1.00  0.00     0.167 HD
HETATM    5  C6  UNL     1      32.175  66.573   7.444  1.00  0.00     0.182 A 
HETATM    6  N4  UNL     1      31.008  66.833   6.857  1.00  0.00    -0.337 N 
ATOM      7  H4  UNL     1      30.883  67.085   5.877  1.00  0.00     0.168 HD
HETATM    8  C7  UNL     1      30.026  66.712   7.760  1.00  0.00     0.136 A 
HETATM    9  N5  UNL     1      28.872  66.680   8.367  1.00  0.00    -0.334 N 
ATOM     10  H5  UNL     1      27.910  66.849   8.071  1.00  0.00     0.168 HD
ENDROOT
BRANCH   1  11
HETATM   11  C3  UNL     1      29.089  66.027  10.962  1.00  0.00     0.292 C 
HETATM   12  N2  UNL     1      28.753  64.686  11.295  1.00  0.00    -0.233 N 
HETATM   13  C2  UNL     1      28.742  63.538  10.420  1.00  0.00     0.279 C 
HETATM   14  N6  UNL     1      28.373  64.286  12.577  1.00  0.00    -0.245 N 
HETATM   15  N1  UNL     1      28.058  62.509  11.205  1.00  0.00    -0.324 N 
HETATM   16  C1  UNL     1      27.932  62.919  12.540  1.00  0.00     0.336 C 
ATOM     17  H1  UNL     1      27.721  61.621  10.833  1.00  0.00     0.166 HD
HETATM   18  O1  UNL     1      27.523  62.268  13.551  1.00  0.00    -0.246 OA
ATOM     19  H6  UNL     1      28.404  64.872  13.411  1.00  0.00     0.192 HD
HETATM   20  O2  UNL     1      29.060  66.955  11.834  1.00  0.00    -0.264 OA
ENDBRANCH   1  11
TORSDOF 1
ENDMDL
MODEL 2
REMARK VINA RESULT: -6.701045947      1.841      2.340
REMARK  1 active torsions:
REMARK  status: ('A' for Active; 'I' for Inactive)
REMARK       I    between atoms: N2_6  and  C3_7 
REMARK    1  A    between atoms: C3_7  and  C4_9 
ROOT
HETATM    1  C4  UNL     1      29.397  65.508   9.302  1.00  0.00     0.135 A 
HETATM    2  C5  UNL     1      30.522  65.870   8.704  1.00  0.00     0.110 A 
HETATM    3  N3  UNL     1      31.839  65.973   8.481  1.00  0.00    -0.347 N 
ATOM      4  H3  UNL     1      32.577  65.563   9.052  1.00  0.00     0.167 HD
HETATM    5  C6  UNL     1      32.015  66.706   7.381  1.00  0.00     0.182 A 
HETATM    6  N4  UNL     1      30.817  67.060   6.920  1.00  0.00    -0.337 N 
ATOM      7  H4  UNL     1      30.646  67.626   6.089  1.00  0.00     0.168 HD
HETATM    8  C7  UNL     1      29.871  66.554   7.723  1.00  0.00     0.136 A 
HETATM    9  N5  UNL     1      28.740  66.220   8.280  1.00  0.00    -0.334 N 
ATOM     10  H5  UNL     1      27.760  66.404   8.061  1.00  0.00     0.168 HD
ENDROOT
BRANCH   1  11
HETATM   11  C3  UNL     1      29.076  64.725  10.485  1.00  0.00     0.292 C 
HETATM   12  N2  UNL     1      28.968  65.399  11.731  1.00  0.00    -0.233 N 
HETATM   13  C2  UNL     1      29.140  66.809  11.988  1.00  0.00     0.279 C 
HETATM   14  N6  UNL     1      28.664  64.751  12.930  1.00  0.00    -0.245 N 
HETATM   15  N1  UNL     1      29.200  66.892  13.448  1.00  0.00    -0.324 N 
HETATM   16  C1  UNL     1      28.805  65.674  14.022  1.00  0.00     0.336 C 
ATOM     17  H1  UNL     1      29.488  67.717  13.973  1.00  0.00     0.166 HD
HETATM   18  O1  UNL     1      28.597  65.383  15.240  1.00  0.00    -0.246 OA
ATOM     19  H6  UNL     1      28.385  63.774  13.017  1.00  0.00     0.192 HD
HETATM   20  O2  UNL     1      28.899  63.467  10.391  1.00  0.00    -0.264 OA
ENDBRANCH   1  11
TORSDOF 1
ENDMDL
MODEL 3
REMARK VINA RESULT: -6.679048308      2.530      2.723
REMARK  1 active torsions:
REMARK  status: ('A' for Active; 'I' for Inactive)
REMARK       I    between atoms: N2_6  and  C3_7 
REMARK    1  A    between atoms: C3_7  and  C4_9 
ROOT
HETATM    1  C4  UNL     1      29.229  66.275   8.744  1.00  0.00     0.135 A 
HETATM    2  C5  UNL     1      30.540  66.273   8.555  1.00  0.00     0.110 A 
HETATM    3  N3  UNL     1      31.836  66.042   8.803  1.00  0.00    -0.347 N 
ATOM      4  H3  UNL     1      32.214  65.577   9.628  1.00  0.00     0.167 HD
HETATM    5  C6  UNL     1      32.544  66.526   7.781  1.00  0.00     0.182 A 
HETATM    6  N4  UNL     1      31.697  67.057   6.903  1.00  0.00    -0.337 N 
ATOM      7  H4  UNL     1      31.960  67.503   6.023  1.00  0.00     0.168 HD
HETATM    8  C7  UNL     1      30.445  66.914   7.357  1.00  0.00     0.136 A 
HETATM    9  N5  UNL     1      29.149  66.938   7.504  1.00  0.00    -0.334 N 
ATOM     10  H5  UNL     1      28.379  67.296   6.940  1.00  0.00     0.168 HD
ENDROOT
BRANCH   1  11
HETATM   11  C3  UNL     1      28.349  65.788   9.795  1.00  0.00     0.292 C 
HETATM   12  N2  UNL     1      27.044  65.356   9.434  1.00  0.00    -0.233 N 
HETATM   13  C2  UNL     1      26.456  65.335   8.116  1.00  0.00     0.279 C 
HETATM   14  N6  UNL     1      26.115  64.870  10.356  1.00  0.00    -0.245 N 
HETATM   15  N1  UNL     1      25.038  65.077   8.372  1.00  0.00    -0.324 N 
HETATM   16  C1  UNL     1      24.846  64.688   9.706  1.00  0.00     0.336 C 
ATOM     17  H1  UNL     1      24.295  65.168   7.679  1.00  0.00     0.166 HD
HETATM   18  O1  UNL     1      23.799  64.257  10.280  1.00  0.00    -0.246 OA
ATOM     19  H6  UNL     1      26.306  64.673  11.338  1.00  0.00     0.192 HD
HETATM   20  O2  UNL     1      28.750  65.756  11.003  1.00  0.00    -0.264 OA
ENDBRANCH   1  11
TORSDOF 1
ENDMDL
MODEL 4
REMARK VINA RESULT: -6.595984909      2.924      3.444
REMARK  1 active torsions:
REMARK  status: ('A' for Active; 'I' for Inactive)
REMARK       I    between atoms: N2_6  and  C3_7 
REMARK    1  A    between atoms: C3_7  and  C4_9 
ROOT
HETATM    1  C4  UNL     1      29.599  66.003   8.527  1.00  0.00     0.135 A 
HETATM    2  C5  UNL     1      30.829  66.277   8.119  1.00  0.00     0.110 A 
HETATM    3  N3  UNL     1      31.817  66.639   7.289  1.00  0.00    -0.347 N 
ATOM      4  H3  UNL     1      31.710  66.903   6.311  1.00  0.00     0.167 HD
HETATM    5  C6  UNL     1      32.964  66.592   7.969  1.00  0.00     0.182 A 
HETATM    6  N4  UNL     1      32.695  66.202   9.213  1.00  0.00    -0.337 N 
ATOM      7  H4  UNL     1      33.384  66.078   9.955  1.00  0.00     0.168 HD
HETATM    8  C7  UNL     1      31.376  65.999   9.334  1.00  0.00     0.136 A 
HETATM    9  N5  UNL     1      30.182  65.720   9.777  1.00  0.00    -0.334 N 
ATOM     10  H5  UNL     1      29.814  65.415  10.679  1.00  0.00     0.168 HD
ENDROOT
BRANCH   1  11
HETATM   11  C3  UNL     1      28.288  66.015   7.897  1.00  0.00     0.292 C 
HETATM   12  N2  UNL     1      27.179  65.531   8.641  1.00  0.00    -0.233 N 
HETATM   13  C2  UNL     1      27.180  65.012   9.988  1.00  0.00     0.279 C 
HETATM   14  N6  UNL     1      25.876  65.496   8.140  1.00  0.00    -0.245 N 
HETATM   15  N1  UNL     1      25.853  64.410  10.130  1.00  0.00    -0.324 N 
HETATM   16  C1  UNL     1      25.027  64.793   9.063  1.00  0.00     0.336 C 
ATOM     17  H1  UNL     1      25.570  63.799  10.895  1.00  0.00     0.166 HD
HETATM   18  O1  UNL     1      23.785  64.595   8.889  1.00  0.00    -0.246 OA
ATOM     19  H6  UNL     1      25.573  65.905   7.256  1.00  0.00     0.192 HD
HETATM   20  O2  UNL     1      28.153  66.450   6.707  1.00  0.00    -0.264 OA
ENDBRANCH   1  11
TORSDOF 1
ENDMDL
MODEL 5
REMARK VINA RESULT: -6.554281851      2.519      2.803
REMARK  1 active torsions:
REMARK  status: ('A' for Active; 'I' for Inactive)
REMARK       I    between atoms: N2_6  and  C3_7 
REMARK    1  A    between atoms: C3_7  and  C4_9 
ROOT
HETATM    1  C4  UNL     1      29.630  65.213   9.899  1.00  0.00     0.135 A 
HETATM    2  C5  UNL     1      30.081  65.353   8.661  1.00  0.00     0.110 A 
HETATM    3  N3  UNL     1      30.199  65.136   7.345  1.00  0.00    -0.347 N 
ATOM      4  H3  UNL     1      29.668  64.459   6.799  1.00  0.00     0.167 HD
HETATM    5  C6  UNL     1      31.135  65.962   6.873  1.00  0.00     0.182 A 
HETATM    6  N4  UNL     1      31.598  66.688   7.888  1.00  0.00    -0.337 N 
ATOM      7  H4  UNL     1      32.323  67.403   7.821  1.00  0.00     0.168 HD
HETATM    8  C7  UNL     1      30.961  66.331   9.011  1.00  0.00     0.136 A 
HETATM    9  N5  UNL     1      30.546  66.225  10.243  1.00  0.00    -0.334 N 
ATOM     10  H5  UNL     1      30.790  66.694  11.116  1.00  0.00     0.168 HD
ENDROOT
BRANCH   1  11
HETATM   11  C3  UNL     1      28.632  64.365  10.531  1.00  0.00     0.292 C 
HETATM   12  N2  UNL     1      27.269  64.545  10.170  1.00  0.00    -0.233 N 
HETATM   13  C2  UNL     1      26.725  65.490   9.225  1.00  0.00     0.279 C 
HETATM   14  N6  UNL     1      26.226  63.789  10.711  1.00  0.00    -0.245 N 
HETATM   15  N1  UNL     1      25.282  65.430   9.464  1.00  0.00    -0.324 N 
HETATM   16  C1  UNL     1      24.968  64.332  10.278  1.00  0.00     0.336 C 
ATOM     17  H1  UNL     1      24.602  66.093   9.092  1.00  0.00     0.166 HD
HETATM   18  O1  UNL     1      23.833  63.864  10.602  1.00  0.00    -0.246 OA
ATOM     19  H6  UNL     1      26.339  62.978  11.319  1.00  0.00     0.192 HD
HETATM   20  O2  UNL     1      28.984  63.488  11.386  1.00  0.00    -0.264 OA
ENDBRANCH   1  11
TORSDOF 1
ENDMDL
