MODEL 1
REMARK VINA RESULT: -6.006865021      0.000      0.000
REMARK  4 active torsions:
REMARK  status: ('A' for Active; 'I' for Inactive)
REMARK    1  A    between atoms: N1_1  and  N2_4 
REMARK    2  A    between atoms: N2_4  and  C1_5 
REMARK    3  A    between atoms: C4_14  and  N5_15 
REMARK    4  A    between atoms: C4_14  and  C5_19 
ROOT
HETATM    1  C1  UNL     1      27.783  65.825   8.276  1.00  0.00     0.238 C 
HETATM    2  N3  UNL     1      28.640  66.444   7.324  1.00  0.00    -0.282 N 
ATOM      3  H3  UNL     1      28.231  66.954   6.541  1.00  0.00     0.173 HD
HETATM    4  C2  UNL     1      30.057  66.367   7.439  1.00  0.00     0.329 C 
HETATM    5  O1  UNL     1      30.815  66.919   6.587  1.00  0.00    -0.247 OA
HETATM    6  N4  UNL     1      30.589  65.647   8.544  1.00  0.00    -0.276 N 
ATOM      7  H4  UNL     1      31.598  65.564   8.670  1.00  0.00     0.173 HD
HETATM    8  C3  UNL     1      29.698  65.046   9.471  1.00  0.00     0.280 C 
HETATM    9  O2  UNL     1      30.064  64.028  10.104  1.00  0.00    -0.269 OA
HETATM   10  C4  UNL     1      28.338  65.655   9.660  1.00  0.00     0.352 C 
ENDROOT
BRANCH  10  11
HETATM   11  N5  UNL     1      28.537  66.938  10.299  1.00  0.00    -0.044 N 
ATOM     12  H53 UNL     1      28.560  67.697   9.619  1.00  0.00     0.277 HD
ATOM     13  H52 UNL     1      27.714  67.228  10.827  1.00  0.00     0.277 HD
ATOM     14  H51 UNL     1      29.374  66.930  10.881  1.00  0.00     0.277 HD
ENDBRANCH  10  11
BRANCH  10  15
HETATM   15  C5  UNL     1      27.491  64.817  10.498  1.00  0.00     0.286 C 
HETATM   16  N6  UNL     1      26.957  65.333  11.704  1.00  0.00    -0.059 NA
HETATM   17  O3  UNL     1      27.223  63.617  10.159  1.00  0.00    -0.273 OA
ENDBRANCH  10  15
BRANCH   1  18
HETATM   18  N2  UNL     1      26.621  65.440   7.979  1.00  0.00    -0.315 NA
BRANCH  18  19
HETATM   19  N1  UNL     1      25.514  64.866   7.898  1.00  0.00    -0.279 N 
ATOM     20  H12 UNL     1      25.940  63.952   8.050  1.00  0.00     0.191 HD
ATOM     21  H11 UNL     1      24.529  64.618   7.799  1.00  0.00     0.191 HD
ENDBRANCH  18  19
ENDBRANCH   1  18
TORSDOF 4
ENDMDL
MODEL 2
REMARK VINA RESULT: -5.819810764      1.717      2.069
REMARK  4 active torsions:
REMARK  status: ('A' for Active; 'I' for Inactive)
REMARK    1  A    between atoms: N1_1  and  N2_4 
REMARK    2  A    between atoms: N2_4  and  C1_5 
REMARK    3  A    between atoms: C4_14  and  N5_15 
REMARK    4  A    between atoms: C4_14  and  C5_19 
ROOT
HETATM    1  C1  UNL     1      29.470  66.486   8.390  1.00  0.00     0.238 C 
HETATM    2  N3  UNL     1      30.882  66.657   8.363  1.00  0.00    -0.282 N 
ATOM      3  H3  UNL     1      31.284  67.395   7.785  1.00  0.00     0.173 HD
HETATM    4  C2  UNL     1      31.747  65.821   9.125  1.00  0.00     0.329 C 
HETATM    5  O1  UNL     1      33.003  65.978   9.096  1.00  0.00    -0.247 OA
HETATM    6  N4  UNL     1      31.147  64.804   9.920  1.00  0.00    -0.276 N 
ATOM      7  H4  UNL     1      31.725  64.181  10.483  1.00  0.00     0.173 HD
HETATM    8  C3  UNL     1      29.734  64.669   9.918  1.00  0.00     0.280 C 
HETATM    9  O2  UNL     1      29.224  63.547  10.145  1.00  0.00    -0.269 OA
HETATM   10  C4  UNL     1      28.895  65.884   9.641  1.00  0.00     0.352 C 
ENDROOT
BRANCH  10  11
HETATM   11  N5  UNL     1      29.062  66.776  10.767  1.00  0.00    -0.044 N 
ATOM     12  H53 UNL     1      28.172  67.176  11.065  1.00  0.00     0.277 HD
ATOM     13  H52 UNL     1      29.296  66.267  11.619  1.00  0.00     0.277 HD
ATOM     14  H51 UNL     1      29.749  67.500  10.561  1.00  0.00     0.277 HD
ENDBRANCH  10  11
BRANCH  10  15
HETATM   15  C5  UNL     1      27.488  65.537   9.493  1.00  0.00     0.286 C 
HETATM   16  N6  UNL     1      26.573  65.842  10.530  1.00  0.00    -0.059 NA
HETATM   17  O3  UNL     1      27.067  64.958   8.437  1.00  0.00    -0.273 OA
ENDBRANCH  10  15
BRANCH   1  18
HETATM   18  N2  UNL     1      28.737  66.819   7.422  1.00  0.00    -0.315 NA
BRANCH  18  19
HETATM   19  N1  UNL     1      28.036  66.871   6.388  1.00  0.00    -0.279 N 
ATOM     20  H12 UNL     1      28.384  67.802   6.160  1.00  0.00     0.191 HD
ATOM     21  H11 UNL     1      27.396  66.697   5.613  1.00  0.00     0.191 HD
ENDBRANCH  18  19
ENDBRANCH   1  18
TORSDOF 4
ENDMDL
MODEL 3
REMARK VINA RESULT: -5.788957968      2.939      4.391
REMARK  4 active torsions:
REMARK  status: ('A' for Active; 'I' for Inactive)
REMARK    1  A    between atoms: N1_1  and  N2_4 
REMARK    2  A    between atoms: N2_4  and  C1_5 
REMARK    3  A    between atoms: C4_14  and  N5_15 
REMARK    4  A    between atoms: C4_14  and  C5_19 
ROOT
HETATM    1  C1  UNL     1      26.875  64.645   9.894  1.00  0.00     0.238 C 
HETATM    2  N3  UNL     1      27.856  64.388  10.891  1.00  0.00    -0.282 N 
ATOM      3  H3  UNL     1      28.522  65.120  11.136  1.00  0.00     0.173 HD
HETATM    4  C2  UNL     1      27.928  63.131  11.556  1.00  0.00     0.329 C 
HETATM    5  O1  UNL     1      28.805  62.908  12.444  1.00  0.00    -0.247 OA
HETATM    6  N4  UNL     1      26.981  62.136  11.187  1.00  0.00    -0.276 N 
ATOM      7  H4  UNL     1      26.993  61.220  11.636  1.00  0.00     0.173 HD
HETATM    8  C3  UNL     1      26.019  62.435  10.187  1.00  0.00     0.280 C 
HETATM    9  O2  UNL     1      25.549  61.505   9.489  1.00  0.00    -0.269 OA
HETATM   10  C4  UNL     1      25.597  63.864   9.999  1.00  0.00     0.352 C 
ENDROOT
BRANCH  10  11
HETATM   11  N5  UNL     1      24.856  64.242  11.182  1.00  0.00    -0.044 N 
ATOM     12  H53 UNL     1      24.736  63.456  11.819  1.00  0.00     0.277 HD
ATOM     13  H52 UNL     1      25.402  64.852  11.790  1.00  0.00     0.277 HD
ATOM     14  H51 UNL     1      23.961  64.664  10.933  1.00  0.00     0.277 HD
ENDBRANCH  10  11
BRANCH  10  15
HETATM   15  C5  UNL     1      24.753  64.019   8.822  1.00  0.00     0.286 C 
HETATM   16  N6  UNL     1      23.408  64.437   8.966  1.00  0.00    -0.059 NA
HETATM   17  O3  UNL     1      25.212  63.782   7.655  1.00  0.00    -0.273 OA
ENDBRANCH  10  15
BRANCH   1  18
HETATM   18  N2  UNL     1      27.062  65.480   8.970  1.00  0.00    -0.315 NA
BRANCH  18  19
HETATM   19  N1  UNL     1      27.390  66.089   7.929  1.00  0.00    -0.279 N 
ATOM     20  H12 UNL     1      27.562  65.215   7.433  1.00  0.00     0.191 HD
ATOM     21  H11 UNL     1      27.612  66.778   7.210  1.00  0.00     0.191 HD
ENDBRANCH  18  19
ENDBRANCH   1  18
TORSDOF 4
ENDMDL
MODEL 4
REMARK VINA RESULT: -5.734490498      3.746      5.741
REMARK  4 active torsions:
REMARK  status: ('A' for Active; 'I' for Inactive)
REMARK    1  A    between atoms: N1_1  and  N2_4 
REMARK    2  A    between atoms: N2_4  and  C1_5 
REMARK    3  A    between atoms: C4_14  and  N5_15 
REMARK    4  A    between atoms: C4_14  and  C5_19 
ROOT
HETATM    1  C1  UNL     1      25.926  63.355  12.389  1.00  0.00     0.238 C 
HETATM    2  N3  UNL     1      24.659  63.918  12.706  1.00  0.00    -0.282 N 
ATOM      3  H3  UNL     1      24.454  64.175  13.671  1.00  0.00     0.173 HD
HETATM    4  C2  UNL     1      23.669  64.131  11.705  1.00  0.00     0.329 C 
HETATM    5  O1  UNL     1      22.542  64.633  11.993  1.00  0.00    -0.247 OA
HETATM    6  N4  UNL     1      23.993  63.760  10.370  1.00  0.00    -0.276 N 
ATOM      7  H4  UNL     1      23.317  63.894   9.617  1.00  0.00     0.173 HD
HETATM    8  C3  UNL     1      25.270  63.202  10.098  1.00  0.00     0.280 C 
HETATM    9  O2  UNL     1      25.404  62.419   9.129  1.00  0.00    -0.269 OA
HETATM   10  C4  UNL     1      26.422  63.573  10.989  1.00  0.00     0.352 C 
ENDROOT
BRANCH  10  11
HETATM   11  N5  UNL     1      26.703  64.972  10.752  1.00  0.00    -0.044 N 
ATOM     12  H53 UNL     1      26.603  65.215   9.767  1.00  0.00     0.277 HD
ATOM     13  H52 UNL     1      25.973  65.573  11.134  1.00  0.00     0.277 HD
ATOM     14  H51 UNL     1      27.624  65.224  11.110  1.00  0.00     0.277 HD
ENDBRANCH  10  11
BRANCH  10  15
HETATM   15  C5  UNL     1      27.604  62.778  10.688  1.00  0.00     0.286 C 
HETATM   16  N6  UNL     1      28.830  63.419  10.385  1.00  0.00    -0.059 NA
HETATM   17  O3  UNL     1      27.551  61.503  10.693  1.00  0.00    -0.273 OA
ENDBRANCH  10  15
BRANCH   1  18
HETATM   18  N2  UNL     1      26.601  62.708  13.233  1.00  0.00    -0.315 NA
BRANCH  18  19
HETATM   19  N1  UNL     1      27.495  62.190  13.937  1.00  0.00    -0.279 N 
ATOM     20  H12 UNL     1      27.721  61.512  13.209  1.00  0.00     0.191 HD
ATOM     21  H11 UNL     1      28.159  61.933  14.668  1.00  0.00     0.191 HD
ENDBRANCH  18  19
ENDBRANCH   1  18
TORSDOF 4
ENDMDL
MODEL 5
REMARK VINA RESULT: -5.687426545      4.174      5.584
REMARK  4 active torsions:
REMARK  status: ('A' for Active; 'I' for Inactive)
REMARK    1  A    between atoms: N1_1  and  N2_4 
REMARK    2  A    between atoms: N2_4  and  C1_5 
REMARK    3  A    between atoms: C4_14  and  N5_15 
REMARK    4  A    between atoms: C4_14  and  C5_19 
ROOT
HETATM    1  C1  UNL     1      26.584  62.361  10.851  1.00  0.00     0.238 C 
HETATM    2  N3  UNL     1      27.086  62.492  12.176  1.00  0.00    -0.282 N 
ATOM      3  H3  UNL     1      27.941  61.999  12.437  1.00  0.00     0.173 HD
HETATM    4  C2  UNL     1      26.423  63.295  13.146  1.00  0.00     0.329 C 
HETATM    5  O1  UNL     1      26.874  63.407  14.325  1.00  0.00    -0.247 OA
HETATM    6  N4  UNL     1      25.235  63.966  12.744  1.00  0.00    -0.276 N 
ATOM      7  H4  UNL     1      24.724  64.554  13.403  1.00  0.00     0.173 HD
HETATM    8  C3  UNL     1      24.770  63.809  11.412  1.00  0.00     0.280 C 
HETATM    9  O2  UNL     1      23.545  63.921  11.172  1.00  0.00    -0.269 OA
HETATM   10  C4  UNL     1      25.769  63.510  10.331  1.00  0.00     0.352 C 
ENDROOT
BRANCH  10  11
HETATM   11  N5  UNL     1      26.586  64.694  10.174  1.00  0.00    -0.044 N 
ATOM     12  H53 UNL     1      26.240  65.293   9.425  1.00  0.00     0.277 HD
ATOM     13  H52 UNL     1      26.467  65.339  10.956  1.00  0.00     0.277 HD
ATOM     14  H51 UNL     1      27.565  64.446  10.036  1.00  0.00     0.277 HD
ENDBRANCH  10  11
BRANCH  10  15
HETATM   15  C5  UNL     1      25.112  63.197   9.070  1.00  0.00     0.286 C 
HETATM   16  N6  UNL     1      25.230  64.084   7.972  1.00  0.00    -0.059 NA
HETATM   17  O3  UNL     1      24.426  62.130   8.939  1.00  0.00    -0.273 OA
ENDBRANCH  10  15
BRANCH   1  18
HETATM   18  N2  UNL     1      26.808  61.340  10.148  1.00  0.00    -0.315 NA
BRANCH  18  19
HETATM   19  N1  UNL     1      26.953  60.186   9.692  1.00  0.00    -0.279 N 
ATOM     20  H12 UNL     1      27.964  60.304   9.627  1.00  0.00     0.191 HD
ATOM     21  H11 UNL     1      26.836  59.235   9.342  1.00  0.00     0.191 HD
ENDBRANCH  18  19
ENDBRANCH   1  18
TORSDOF 4
ENDMDL
