MODEL 1
REMARK VINA RESULT: -6.319341161      0.000      0.000
REMARK  3 active torsions:
REMARK  status: ('A' for Active; 'I' for Inactive)
REMARK    1  A    between atoms: N1_2  and  C2_4 
REMARK    2  A    between atoms: C3_9  and  N4_10 
REMARK    3  A    between atoms: N4_10  and  N5_12 
ROOT
HETATM    1  C2  UNL     1      28.839  66.655   8.156  1.00  0.00     0.186 A 
HETATM    2  N2  UNL     1      29.240  67.468   7.171  1.00  0.00    -0.267 N 
ATOM      3  H2  UNL     1      28.562  68.098   6.742  1.00  0.00     0.189 HD
HETATM    4  N3  UNL     1      30.498  67.479   6.735  1.00  0.00    -0.129 N 
ATOM      5  H3  UNL     1      30.789  68.105   5.984  1.00  0.00     0.205 HD
HETATM    6  C3  UNL     1      31.365  66.644   7.311  1.00  0.00     0.714 A 
HETATM    7  N6  UNL     1      31.011  65.812   8.299  1.00  0.00    -0.150 N 
ATOM      8  H6  UNL     1      31.702  65.187   8.717  1.00  0.00     0.188 HD
HETATM    9  C4  UNL     1      29.743  65.805   8.735  1.00  0.00     0.304 A 
HETATM   10  O1  UNL     1      29.388  65.016   9.679  1.00  0.00    -0.263 OA
ENDROOT
BRANCH   6  11
HETATM   11  N4  UNL     1      32.580  66.638   6.907  1.00  0.00    -0.137 N 
ATOM     12  H4  UNL     1      32.797  66.366   5.949  1.00  0.00     0.205 HD
BRANCH  11  13
HETATM   13  N5  UNL     1      33.605  67.004   7.775  1.00  0.00    -0.331 N 
ATOM     14  H52 UNL     1      33.726  66.484   8.644  1.00  0.00     0.177 HD
ATOM     15  H51 UNL     1      34.220  67.783   7.539  1.00  0.00     0.177 HD
ENDBRANCH  11  13
ENDBRANCH   6  11
BRANCH   1  16
HETATM   16  N1  UNL     1      27.619  66.685   8.537  1.00  0.00    -0.375 N 
HETATM   17  C1  UNL     1      26.553  66.233   7.669  1.00  0.00     0.148 C 
ATOM     18  H1  UNL     1      27.393  67.033   9.469  1.00  0.00     0.160 HD
ENDBRANCH   1  16
TORSDOF 3
ENDMDL
MODEL 2
REMARK VINA RESULT: -6.000275299      1.081      1.197
REMARK  3 active torsions:
REMARK  status: ('A' for Active; 'I' for Inactive)
REMARK    1  A    between atoms: N1_2  and  C2_4 
REMARK    2  A    between atoms: C3_9  and  N4_10 
REMARK    3  A    between atoms: N4_10  and  N5_12 
ROOT
HETATM    1  C2  UNL     1      28.764  66.319   8.989  1.00  0.00     0.186 A 
HETATM    2  N2  UNL     1      28.560  67.222   8.023  1.00  0.00    -0.267 N 
ATOM      3  H2  UNL     1      27.664  67.708   7.980  1.00  0.00     0.189 HD
HETATM    4  N3  UNL     1      29.492  67.506   7.116  1.00  0.00    -0.129 N 
ATOM      5  H3  UNL     1      29.323  68.198   6.386  1.00  0.00     0.205 HD
HETATM    6  C3  UNL     1      30.655  66.857   7.193  1.00  0.00     0.714 A 
HETATM    7  N6  UNL     1      30.907  65.945   8.141  1.00  0.00    -0.150 N 
ATOM      8  H6  UNL     1      31.808  65.468   8.169  1.00  0.00     0.188 HD
HETATM    9  C4  UNL     1      29.964  65.663   9.052  1.00  0.00     0.304 A 
HETATM   10  O1  UNL     1      30.188  64.793   9.965  1.00  0.00    -0.263 OA
ENDROOT
BRANCH   6  11
HETATM   11  N4  UNL     1      31.567  67.115   6.330  1.00  0.00    -0.137 N 
ATOM     12  H4  UNL     1      31.453  67.898   5.688  1.00  0.00     0.205 HD
BRANCH  11  13
HETATM   13  N5  UNL     1      32.712  66.327   6.270  1.00  0.00    -0.331 N 
ATOM     14  H52 UNL     1      33.371  66.350   7.050  1.00  0.00     0.177 HD
ATOM     15  H51 UNL     1      32.884  65.738   5.456  1.00  0.00     0.177 HD
ENDBRANCH  11  13
ENDBRANCH   6  11
BRANCH   1  16
HETATM   16  N1  UNL     1      27.835  66.084   9.835  1.00  0.00    -0.375 N 
HETATM   17  C1  UNL     1      26.611  65.421   9.438  1.00  0.00     0.148 C 
ATOM     18  H1  UNL     1      27.958  66.369  10.807  1.00  0.00     0.160 HD
ENDBRANCH   1  16
TORSDOF 3
ENDMDL
MODEL 3
REMARK VINA RESULT: -5.867425659      1.965      2.831
REMARK  3 active torsions:
REMARK  status: ('A' for Active; 'I' for Inactive)
REMARK    1  A    between atoms: N1_2  and  C2_4 
REMARK    2  A    between atoms: C3_9  and  N4_10 
REMARK    3  A    between atoms: N4_10  and  N5_12 
ROOT
HETATM    1  C2  UNL     1      29.705  65.440  10.089  1.00  0.00     0.186 A 
HETATM    2  N2  UNL     1      30.558  64.900   9.210  1.00  0.00    -0.267 N 
ATOM      3  H2  UNL     1      31.035  64.032   9.451  1.00  0.00     0.189 HD
HETATM    4  N3  UNL     1      30.803  65.464   8.029  1.00  0.00    -0.129 N 
ATOM      5  H3  UNL     1      31.456  65.041   7.369  1.00  0.00     0.205 HD
HETATM    6  C3  UNL     1      30.168  66.600   7.737  1.00  0.00     0.714 A 
HETATM    7  N6  UNL     1      29.306  67.179   8.583  1.00  0.00    -0.150 N 
ATOM      8  H6  UNL     1      28.839  68.049   8.325  1.00  0.00     0.188 HD
HETATM    9  C4  UNL     1      29.063  66.607   9.770  1.00  0.00     0.304 A 
HETATM   10  O1  UNL     1      28.241  67.146  10.592  1.00  0.00    -0.263 OA
ENDROOT
BRANCH   6  11
HETATM   11  N4  UNL     1      30.390  67.160   6.605  1.00  0.00    -0.137 N 
ATOM     12  H4  UNL     1      29.613  67.534   6.061  1.00  0.00     0.205 HD
BRANCH  11  13
HETATM   13  N5  UNL     1      31.690  67.256   6.119  1.00  0.00    -0.331 N 
ATOM     14  H52 UNL     1      31.917  66.824   5.223  1.00  0.00     0.177 HD
ATOM     15  H51 UNL     1      32.400  67.753   6.656  1.00  0.00     0.177 HD
ENDBRANCH  11  13
ENDBRANCH   6  11
BRANCH   1  16
HETATM   16  N1  UNL     1      29.505  64.857  11.208  1.00  0.00    -0.375 N 
HETATM   17  C1  UNL     1      28.460  63.867  11.360  1.00  0.00     0.148 C 
ATOM     18  H1  UNL     1      30.092  65.093  12.009  1.00  0.00     0.160 HD
ENDBRANCH   1  16
TORSDOF 3
ENDMDL
MODEL 4
REMARK VINA RESULT: -5.849997238      1.842      2.603
REMARK  3 active torsions:
REMARK  status: ('A' for Active; 'I' for Inactive)
REMARK    1  A    between atoms: N1_2  and  C2_4 
REMARK    2  A    between atoms: C3_9  and  N4_10 
REMARK    3  A    between atoms: N4_10  and  N5_12 
ROOT
HETATM    1  C2  UNL     1      29.386  65.469   9.704  1.00  0.00     0.186 A 
HETATM    2  N2  UNL     1      30.525  65.048  10.266  1.00  0.00    -0.267 N 
ATOM      3  H2  UNL     1      30.480  64.411  11.062  1.00  0.00     0.189 HD
HETATM    4  N3  UNL     1      31.717  65.435   9.817  1.00  0.00    -0.129 N 
ATOM      5  H3  UNL     1      32.577  65.105  10.255  1.00  0.00     0.205 HD
HETATM    6  C3  UNL     1      31.750  66.269   8.776  1.00  0.00     0.714 A 
HETATM    7  N6  UNL     1      30.638  66.718   8.180  1.00  0.00    -0.150 N 
ATOM      8  H6  UNL     1      30.702  67.355   7.386  1.00  0.00     0.188 HD
HETATM    9  C4  UNL     1      29.441  66.324   8.636  1.00  0.00     0.304 A 
HETATM   10  O1  UNL     1      28.366  66.744   8.079  1.00  0.00    -0.263 OA
ENDROOT
BRANCH   6  11
HETATM   11  N4  UNL     1      32.887  66.655   8.328  1.00  0.00    -0.137 N 
ATOM     12  H4  UNL     1      33.595  67.009   8.971  1.00  0.00     0.205 HD
BRANCH  11  13
HETATM   13  N5  UNL     1      33.156  66.591   6.964  1.00  0.00    -0.331 N 
ATOM     14  H52 UNL     1      32.812  67.335   6.356  1.00  0.00     0.177 HD
ATOM     15  H51 UNL     1      33.689  65.808   6.585  1.00  0.00     0.177 HD
ENDBRANCH  11  13
ENDBRANCH   6  11
BRANCH   1  16
HETATM   16  N1  UNL     1      28.268  65.065  10.174  1.00  0.00    -0.375 N 
HETATM   17  C1  UNL     1      28.170  63.820  10.906  1.00  0.00     0.148 C 
ATOM     18  H1  UNL     1      27.430  65.629  10.031  1.00  0.00     0.160 HD
ENDBRANCH   1  16
TORSDOF 3
ENDMDL
MODEL 5
REMARK VINA RESULT: -5.803691089      1.229      1.342
REMARK  3 active torsions:
REMARK  status: ('A' for Active; 'I' for Inactive)
REMARK    1  A    between atoms: N1_2  and  C2_4 
REMARK    2  A    between atoms: C3_9  and  N4_10 
REMARK    3  A    between atoms: N4_10  and  N5_12 
ROOT
HETATM    1  C2  UNL     1      28.908  66.033   9.177  1.00  0.00     0.186 A 
HETATM    2  N2  UNL     1      29.478  66.916   8.349  1.00  0.00    -0.267 N 
ATOM      3  H2  UNL     1      28.883  67.533   7.796  1.00  0.00     0.189 HD
HETATM    4  N3  UNL     1      30.800  67.013   8.224  1.00  0.00    -0.129 N 
ATOM      5  H3  UNL     1      31.220  67.692   7.588  1.00  0.00     0.205 HD
HETATM    6  C3  UNL     1      31.558  66.194   8.956  1.00  0.00     0.714 A 
HETATM    7  N6  UNL     1      31.034  65.295   9.799  1.00  0.00    -0.150 N 
ATOM      8  H6  UNL     1      31.645  64.685  10.343  1.00  0.00     0.188 HD
HETATM    9  C4  UNL     1      29.703  65.201   9.921  1.00  0.00     0.304 A 
HETATM   10  O1  UNL     1      29.185  64.346  10.722  1.00  0.00    -0.263 OA
ENDROOT
BRANCH   6  11
HETATM   11  N4  UNL     1      32.832  66.271   8.851  1.00  0.00    -0.137 N 
ATOM     12  H4  UNL     1      33.429  65.808   9.537  1.00  0.00     0.205 HD
BRANCH  11  13
HETATM   13  N5  UNL     1      33.403  66.986   7.802  1.00  0.00    -0.331 N 
ATOM     14  H52 UNL     1      32.794  67.391   7.090  1.00  0.00     0.177 HD
ATOM     15  H51 UNL     1      34.415  67.099   7.753  1.00  0.00     0.177 HD
ENDBRANCH  11  13
ENDBRANCH   6  11
BRANCH   1  16
HETATM   16  N1  UNL     1      27.634  65.982   9.260  1.00  0.00    -0.375 N 
HETATM   17  C1  UNL     1      26.798  66.276   8.115  1.00  0.00     0.148 C 
ATOM     18  H1  UNL     1      27.198  65.729  10.147  1.00  0.00     0.160 HD
ENDBRANCH   1  16
TORSDOF 3
ENDMDL
