MODEL 1
REMARK VINA RESULT: -6.884910186      0.000      0.000
REMARK  3 active torsions:
REMARK  status: ('A' for Active; 'I' for Inactive)
REMARK       I    between atoms: C1_2  and  N2_4 
REMARK    1  A    between atoms: N2_4  and  N3_6 
REMARK    2  A    between atoms: N3_6  and  C2_8 
REMARK    3  A    between atoms: N7_15  and  O2_16 
ROOT
HETATM    1  C2  UNL     1      31.751  66.649   8.746  1.00  0.00     0.755 A 
HETATM    2  N4  UNL     1      33.047  66.406   8.571  1.00  0.00    -0.112 N 
ATOM      3  H4  UNL     1      33.691  66.080   9.291  1.00  0.00     0.207 HD
HETATM    4  N5  UNL     1      33.362  66.654   7.320  1.00  0.00    -0.211 N 
ATOM      5  H5  UNL     1      34.284  66.557   6.895  1.00  0.00     0.210 HD
HETATM    6  N6  UNL     1      32.256  67.051   6.719  1.00  0.00    -0.186 N 
ATOM      7  H6  UNL     1      32.186  67.315   5.737  1.00  0.00     0.213 HD
HETATM    8  N7  UNL     1      31.257  67.057   7.577  1.00  0.00     0.035 N 
ENDROOT
BRANCH   1   9
HETATM    9  N3  UNL     1      31.039  66.536   9.816  1.00  0.00    -0.123 N 
ATOM     10  H3  UNL     1      30.891  67.369  10.386  1.00  0.00     0.206 HD
BRANCH   9  11
HETATM   11  N2  UNL     1      30.460  65.338  10.239  1.00  0.00    -0.239 N 
HETATM   12  C1  UNL     1      29.180  64.901   9.876  1.00  0.00     0.347 C 
HETATM   13  N1  UNL     1      28.702  63.662  10.371  1.00  0.00    -0.038 NA
HETATM   14  O1  UNL     1      28.407  65.545   9.124  1.00  0.00    -0.249 OA
ATOM     15  H2  UNL     1      31.008  64.738  10.855  1.00  0.00     0.192 HD
ENDBRANCH   9  11
ENDBRANCH   1   9
BRANCH   8  16
HETATM   16  O2  UNL     1      30.079  67.386   7.315  1.00  0.00    -0.253 OA
ATOM     17  H2  UNL     1      29.759  68.236   7.039  1.00  0.00     0.247 HD
ENDBRANCH   8  16
TORSDOF 3
ENDMDL
MODEL 2
REMARK VINA RESULT: -6.624132583      1.288      1.674
REMARK  3 active torsions:
REMARK  status: ('A' for Active; 'I' for Inactive)
REMARK       I    between atoms: C1_2  and  N2_4 
REMARK    1  A    between atoms: N2_4  and  N3_6 
REMARK    2  A    between atoms: N3_6  and  C2_8 
REMARK    3  A    between atoms: N7_15  and  O2_16 
ROOT
HETATM    1  C2  UNL     1      31.209  66.791   8.359  1.00  0.00     0.755 A 
HETATM    2  N4  UNL     1      30.805  67.312   7.205  1.00  0.00    -0.112 N 
ATOM      3  H4  UNL     1      29.878  67.695   7.020  1.00  0.00     0.207 HD
HETATM    4  N5  UNL     1      31.793  67.255   6.341  1.00  0.00    -0.211 N 
ATOM      5  H5  UNL     1      31.776  67.580   5.375  1.00  0.00     0.210 HD
HETATM    6  N6  UNL     1      32.813  66.696   6.965  1.00  0.00    -0.186 N 
ATOM      7  H6  UNL     1      33.727  66.517   6.550  1.00  0.00     0.213 HD
HETATM    8  N7  UNL     1      32.475  66.402   8.203  1.00  0.00     0.035 N 
ENDROOT
BRANCH   1   9
HETATM    9  N3  UNL     1      30.556  66.653   9.463  1.00  0.00    -0.123 N 
ATOM     10  H3  UNL     1      30.271  67.495   9.963  1.00  0.00     0.206 HD
BRANCH   9  11
HETATM   11  N2  UNL     1      30.215  65.415  10.012  1.00  0.00    -0.239 N 
HETATM   12  C1  UNL     1      28.943  64.833   9.938  1.00  0.00     0.347 C 
HETATM   13  N1  UNL     1      28.721  63.569  10.537  1.00  0.00    -0.038 NA
HETATM   14  O1  UNL     1      27.962  65.367   9.364  1.00  0.00    -0.249 OA
ATOM     15  H2  UNL     1      30.945  64.897  10.502  1.00  0.00     0.192 HD
ENDBRANCH   9  11
ENDBRANCH   1   9
BRANCH   8  16
HETATM   16  O2  UNL     1      33.222  65.863   9.049  1.00  0.00    -0.253 OA
ATOM     17  H2  UNL     1      33.964  65.292   8.892  1.00  0.00     0.247 HD
ENDBRANCH   8  16
TORSDOF 3
ENDMDL
MODEL 3
REMARK VINA RESULT: -6.353059513      2.154      2.629
REMARK  3 active torsions:
REMARK  status: ('A' for Active; 'I' for Inactive)
REMARK       I    between atoms: C1_2  and  N2_4 
REMARK    1  A    between atoms: N2_4  and  N3_6 
REMARK    2  A    between atoms: N3_6  and  C2_8 
REMARK    3  A    between atoms: N7_15  and  O2_16 
ROOT
HETATM    1  C2  UNL     1      30.633  67.188   7.189  1.00  0.00     0.755 A 
HETATM    2  N4  UNL     1      31.542  67.087   6.223  1.00  0.00    -0.112 N 
ATOM      3  H4  UNL     1      31.411  67.377   5.255  1.00  0.00     0.207 HD
HETATM    4  N5  UNL     1      32.635  66.552   6.719  1.00  0.00    -0.211 N 
ATOM      5  H5  UNL     1      33.497  66.354   6.213  1.00  0.00     0.210 HD
HETATM    6  N6  UNL     1      32.400  66.322   7.997  1.00  0.00    -0.186 N 
ATOM      7  H6  UNL     1      33.067  65.910   8.650  1.00  0.00     0.213 HD
HETATM    8  N7  UNL     1      31.178  66.703   8.305  1.00  0.00     0.035 N 
ENDROOT
BRANCH   1   9
HETATM    9  N3  UNL     1      29.431  67.654   7.131  1.00  0.00    -0.123 N 
ATOM     10  H3  UNL     1      29.303  68.663   7.202  1.00  0.00     0.206 HD
BRANCH   9  11
HETATM   11  N2  UNL     1      28.297  66.855   6.977  1.00  0.00    -0.239 N 
HETATM   12  C1  UNL     1      27.506  66.383   8.032  1.00  0.00     0.347 C 
HETATM   13  N1  UNL     1      26.376  65.577   7.747  1.00  0.00    -0.038 NA
HETATM   14  O1  UNL     1      27.734  66.630   9.242  1.00  0.00    -0.249 OA
ATOM     15  H2  UNL     1      28.025  66.596   6.029  1.00  0.00     0.192 HD
ENDBRANCH   9  11
ENDBRANCH   1   9
BRANCH   8  16
HETATM   16  O2  UNL     1      30.657  66.616   9.438  1.00  0.00    -0.253 OA
ATOM     17  H2  UNL     1      30.501  65.831   9.950  1.00  0.00     0.247 HD
ENDBRANCH   8  16
TORSDOF 3
ENDMDL
MODEL 4
REMARK VINA RESULT: -6.303511122      1.159      1.159
REMARK  3 active torsions:
REMARK  status: ('A' for Active; 'I' for Inactive)
REMARK       I    between atoms: C1_2  and  N2_4 
REMARK    1  A    between atoms: N2_4  and  N3_6 
REMARK    2  A    between atoms: N3_6  and  C2_8 
REMARK    3  A    between atoms: N7_15  and  O2_16 
ROOT
HETATM    1  C2  UNL     1      31.737  66.069   8.578  1.00  0.00     0.755 A 
HETATM    2  N4  UNL     1      32.917  66.644   8.367  1.00  0.00    -0.112 N 
ATOM      3  H4  UNL     1      33.728  66.575   8.981  1.00  0.00     0.207 HD
HETATM    4  N5  UNL     1      32.868  67.318   7.240  1.00  0.00    -0.211 N 
ATOM      5  H5  UNL     1      33.624  67.860   6.823  1.00  0.00     0.210 HD
HETATM    6  N6  UNL     1      31.652  67.157   6.752  1.00  0.00    -0.186 N 
ATOM      7  H6  UNL     1      31.313  67.562   5.880  1.00  0.00     0.213 HD
HETATM    8  N7  UNL     1      30.943  66.395   7.558  1.00  0.00     0.035 N 
ENDROOT
BRANCH   1   9
HETATM    9  N3  UNL     1      31.359  65.323   9.561  1.00  0.00    -0.123 N 
ATOM     10  H3  UNL     1      31.878  64.464   9.741  1.00  0.00     0.206 HD
BRANCH   9  11
HETATM   11  N2  UNL     1      30.278  65.625  10.392  1.00  0.00    -0.239 N 
HETATM   12  C1  UNL     1      29.163  64.799  10.581  1.00  0.00     0.347 C 
HETATM   13  N1  UNL     1      28.128  65.217  11.453  1.00  0.00    -0.038 NA
HETATM   14  O1  UNL     1      29.013  63.687  10.017  1.00  0.00    -0.249 OA
ATOM     15  H2  UNL     1      30.303  66.510  10.898  1.00  0.00     0.192 HD
ENDBRANCH   9  11
ENDBRANCH   1   9
BRANCH   8  16
HETATM   16  O2  UNL     1      29.752  66.058   7.374  1.00  0.00    -0.253 OA
ATOM     17  H2  UNL     1      29.152  66.378   6.711  1.00  0.00     0.247 HD
ENDBRANCH   8  16
TORSDOF 3
ENDMDL
MODEL 5
REMARK VINA RESULT: -6.192224314      1.944      2.255
REMARK  3 active torsions:
REMARK  status: ('A' for Active; 'I' for Inactive)
REMARK       I    between atoms: C1_2  and  N2_4 
REMARK    1  A    between atoms: N2_4  and  N3_6 
REMARK    2  A    between atoms: N3_6  and  C2_8 
REMARK    3  A    between atoms: N7_15  and  O2_16 
ROOT
HETATM    1  C2  UNL     1      30.975  66.618   8.364  1.00  0.00     0.755 A 
HETATM    2  N4  UNL     1      31.412  65.952   9.429  1.00  0.00    -0.112 N 
ATOM      3  H4  UNL     1      30.822  65.521  10.141  1.00  0.00     0.207 HD
HETATM    4  N5  UNL     1      32.725  65.939   9.416  1.00  0.00    -0.211 N 
ATOM      5  H5  UNL     1      33.336  65.503  10.106  1.00  0.00     0.210 HD
HETATM    6  N6  UNL     1      33.102  66.600   8.337  1.00  0.00    -0.186 N 
ATOM      7  H6  UNL     1      34.069  66.758   8.055  1.00  0.00     0.213 HD
HETATM    8  N7  UNL     1      32.044  67.026   7.680  1.00  0.00     0.035 N 
ENDROOT
BRANCH   1   9
HETATM    9  N3  UNL     1      29.762  66.864   7.999  1.00  0.00    -0.123 N 
ATOM     10  H3  UNL     1      29.576  66.991   7.004  1.00  0.00     0.206 HD
BRANCH   9  11
HETATM   11  N2  UNL     1      28.691  66.966   8.888  1.00  0.00    -0.239 N 
HETATM   12  C1  UNL     1      27.424  66.405   8.677  1.00  0.00     0.347 C 
HETATM   13  N1  UNL     1      26.415  66.579   9.656  1.00  0.00    -0.038 NA
HETATM   14  O1  UNL     1      27.114  65.744   7.655  1.00  0.00    -0.249 OA
ATOM     15  H2  UNL     1      28.840  67.485   9.752  1.00  0.00     0.192 HD
ENDBRANCH   9  11
ENDBRANCH   1   9
BRANCH   8  16
HETATM   16  O2  UNL     1      32.069  67.684   6.616  1.00  0.00    -0.253 OA
ATOM     17  H2  UNL     1      32.825  68.054   6.178  1.00  0.00     0.247 HD
ENDBRANCH   8  16
TORSDOF 3
ENDMDL
