MODEL 1
REMARK VINA RESULT: -6.214223193      0.000      0.000
REMARK  2 active torsions:
REMARK  status: ('A' for Active; 'I' for Inactive)
REMARK    1  A    between atoms: N1_1  and  N2_4 
REMARK       I    between atoms: N2_4  and  C1_6 
REMARK       I    between atoms: C1_6  and  N3_8 
REMARK    2  A    between atoms: N7_15  and  N8_16 
ROOT
HETATM    1  N2  UNL     1      29.691  64.571  11.728  1.00  0.00    -0.258 N 
ATOM      2  H2  UNL     1      30.599  64.652  12.187  1.00  0.00     0.191 HD
HETATM    3  C1  UNL     1      29.552  64.964  10.375  1.00  0.00     0.341 C 
HETATM    4  O1  UNL     1      28.435  64.867   9.804  1.00  0.00    -0.245 OA
HETATM    5  N3  UNL     1      30.669  65.462   9.679  1.00  0.00    -0.276 N 
ATOM      6  H3  UNL     1      31.594  65.276  10.066  1.00  0.00     0.173 HD
HETATM    7  C2  UNL     1      30.600  66.138   8.584  1.00  0.00     0.235 C 
HETATM    8  N4  UNL     1      29.487  66.551   7.814  1.00  0.00    -0.254 N 
ATOM      9  H4  UNL     1      28.516  66.255   7.918  1.00  0.00     0.187 HD
HETATM   10  N5  UNL     1      30.009  67.463   6.870  1.00  0.00    -0.004 NA
HETATM   11  N6  UNL     1      31.313  67.031   6.599  1.00  0.00     0.017 NA
HETATM   12  N7  UNL     1      31.742  66.634   7.894  1.00  0.00    -0.153 N 
ENDROOT
BRANCH  12  13
HETATM   13  N8  UNL     1      33.029  66.700   8.430  1.00  0.00    -0.323 N 
ATOM     14  H82 UNL     1      33.373  67.322   9.162  1.00  0.00     0.178 HD
ATOM     15  H81 UNL     1      33.810  66.109   8.143  1.00  0.00     0.178 HD
ENDBRANCH  12  13
BRANCH   1  16
HETATM   16  N1  UNL     1      28.616  64.083  12.428  1.00  0.00    -0.341 N 
ATOM     17  H12 UNL     1      28.712  63.191  12.913  1.00  0.00     0.177 HD
ATOM     18  H11 UNL     1      27.740  64.603  12.463  1.00  0.00     0.177 HD
ENDBRANCH   1  16
TORSDOF 2
ENDMDL
MODEL 2
REMARK VINA RESULT: -6.148635980      1.887      4.473
REMARK  2 active torsions:
REMARK  status: ('A' for Active; 'I' for Inactive)
REMARK    1  A    between atoms: N1_1  and  N2_4 
REMARK       I    between atoms: N2_4  and  C1_6 
REMARK       I    between atoms: C1_6  and  N3_8 
REMARK    2  A    between atoms: N7_15  and  N8_16 
ROOT
HETATM    1  N2  UNL     1      32.710  66.205   8.956  1.00  0.00    -0.258 N 
ATOM      2  H2  UNL     1      33.255  65.709   9.660  1.00  0.00     0.191 HD
HETATM    3  C1  UNL     1      31.304  66.294   9.092  1.00  0.00     0.341 C 
HETATM    4  O1  UNL     1      30.625  66.905   8.226  1.00  0.00    -0.245 OA
HETATM    5  N3  UNL     1      30.675  65.696  10.200  1.00  0.00    -0.276 N 
ATOM      6  H3  UNL     1      31.254  65.455  11.004  1.00  0.00     0.173 HD
HETATM    7  C2  UNL     1      29.415  65.432  10.264  1.00  0.00     0.235 C 
HETATM    8  N4  UNL     1      28.372  65.640   9.331  1.00  0.00    -0.254 N 
ATOM      9  H4  UNL     1      28.410  66.185   8.469  1.00  0.00     0.187 HD
HETATM   10  N5  UNL     1      27.266  64.931   9.850  1.00  0.00    -0.004 NA
HETATM   11  N6  UNL     1      27.394  64.985  11.244  1.00  0.00     0.017 NA
HETATM   12  N7  UNL     1      28.797  64.825  11.394  1.00  0.00    -0.153 N 
ENDROOT
BRANCH  12  13
HETATM   13  N8  UNL     1      29.484  64.198  12.436  1.00  0.00    -0.323 N 
ATOM     14  H82 UNL     1      30.291  63.578  12.372  1.00  0.00     0.178 HD
ATOM     15  H81 UNL     1      29.250  64.290  13.425  1.00  0.00     0.178 HD
ENDBRANCH  12  13
BRANCH   1  16
HETATM   16  N1  UNL     1      33.346  66.781   7.884  1.00  0.00    -0.341 N 
ATOM     17  H12 UNL     1      33.270  67.789   7.753  1.00  0.00     0.177 HD
ATOM     18  H11 UNL     1      33.884  66.210   7.232  1.00  0.00     0.177 HD
ENDBRANCH   1  16
TORSDOF 2
ENDMDL
MODEL 3
REMARK VINA RESULT: -5.801269018      2.316      4.361
REMARK  2 active torsions:
REMARK  status: ('A' for Active; 'I' for Inactive)
REMARK    1  A    between atoms: N1_1  and  N2_4 
REMARK       I    between atoms: N2_4  and  C1_6 
REMARK       I    between atoms: C1_6  and  N3_8 
REMARK    2  A    between atoms: N7_15  and  N8_16 
ROOT
HETATM    1  N2  UNL     1      32.381  66.528   8.369  1.00  0.00    -0.258 N 
ATOM      2  H2  UNL     1      32.566  66.104   9.278  1.00  0.00     0.191 HD
HETATM    3  C1  UNL     1      31.051  66.841   7.999  1.00  0.00     0.341 C 
HETATM    4  O1  UNL     1      30.816  67.364   6.879  1.00  0.00    -0.245 OA
HETATM    5  N3  UNL     1      29.999  66.561   8.891  1.00  0.00    -0.276 N 
ATOM      6  H3  UNL     1      30.235  66.399   9.870  1.00  0.00     0.173 HD
HETATM    7  C2  UNL     1      28.757  66.496   8.552  1.00  0.00     0.235 C 
HETATM    8  N4  UNL     1      28.125  66.667   7.298  1.00  0.00    -0.254 N 
ATOM      9  H4  UNL     1      28.540  67.026   6.438  1.00  0.00     0.187 HD
HETATM   10  N5  UNL     1      26.795  66.235   7.494  1.00  0.00    -0.004 NA
HETATM   11  N6  UNL     1      26.484  66.537   8.825  1.00  0.00     0.017 NA
HETATM   12  N7  UNL     1      27.707  66.211   9.470  1.00  0.00    -0.153 N 
ENDROOT
BRANCH  12  13
HETATM   13  N8  UNL     1      27.891  65.705  10.758  1.00  0.00    -0.323 N 
ATOM     14  H82 UNL     1      28.756  65.373  11.184  1.00  0.00     0.178 HD
ATOM     15  H81 UNL     1      27.151  65.603  11.454  1.00  0.00     0.178 HD
ENDBRANCH  12  13
BRANCH   1  16
HETATM   16  N1  UNL     1      33.424  66.791   7.515  1.00  0.00    -0.341 N 
ATOM     17  H12 UNL     1      33.270  67.431   6.736  1.00  0.00     0.177 HD
ATOM     18  H11 UNL     1      34.334  66.354   7.658  1.00  0.00     0.177 HD
ENDBRANCH   1  16
TORSDOF 2
ENDMDL
MODEL 4
REMARK VINA RESULT: -5.782762046      1.773      2.335
REMARK  2 active torsions:
REMARK  status: ('A' for Active; 'I' for Inactive)
REMARK    1  A    between atoms: N1_1  and  N2_4 
REMARK       I    between atoms: N2_4  and  C1_6 
REMARK       I    between atoms: C1_6  and  N3_8 
REMARK    2  A    between atoms: N7_15  and  N8_16 
ROOT
HETATM    1  N2  UNL     1      28.593  64.101  13.634  1.00  0.00    -0.258 N 
ATOM      2  H2  UNL     1      29.548  64.097  13.993  1.00  0.00     0.191 HD
HETATM    3  C1  UNL     1      28.362  64.336  12.258  1.00  0.00     0.341 C 
HETATM    4  O1  UNL     1      27.186  64.343  11.810  1.00  0.00    -0.245 OA
HETATM    5  N3  UNL     1      29.454  64.561  11.399  1.00  0.00    -0.276 N 
ATOM      6  H3  UNL     1      30.381  64.283  11.724  1.00  0.00     0.173 HD
HETATM    7  C2  UNL     1      29.361  65.095  10.231  1.00  0.00     0.235 C 
HETATM    8  N4  UNL     1      28.240  65.576   9.514  1.00  0.00    -0.254 N 
ATOM      9  H4  UNL     1      27.254  65.451   9.747  1.00  0.00     0.187 HD
HETATM   10  N5  UNL     1      28.779  66.267   8.407  1.00  0.00    -0.004 NA
HETATM   11  N6  UNL     1      29.970  65.606   8.083  1.00  0.00     0.017 NA
HETATM   12  N7  UNL     1      30.478  65.315   9.377  1.00  0.00    -0.153 N 
ENDROOT
BRANCH  12  13
HETATM   13  N8  UNL     1      31.814  65.246   9.779  1.00  0.00    -0.323 N 
ATOM     14  H82 UNL     1      32.178  65.087  10.718  1.00  0.00     0.178 HD
ATOM     15  H81 UNL     1      32.615  65.351   9.156  1.00  0.00     0.178 HD
ENDBRANCH  12  13
BRANCH   1  16
HETATM   16  N1  UNL     1      27.544  63.880  14.492  1.00  0.00    -0.341 N 
ATOM     17  H12 UNL     1      27.696  64.002  15.493  1.00  0.00     0.177 HD
ATOM     18  H11 UNL     1      26.632  63.599  14.134  1.00  0.00     0.177 HD
ENDBRANCH   1  16
TORSDOF 2
ENDMDL
MODEL 5
REMARK VINA RESULT: -5.713848409      4.942      5.786
REMARK  2 active torsions:
REMARK  status: ('A' for Active; 'I' for Inactive)
REMARK    1  A    between atoms: N1_1  and  N2_4 
REMARK       I    between atoms: N2_4  and  C1_6 
REMARK       I    between atoms: C1_6  and  N3_8 
REMARK    2  A    between atoms: N7_15  and  N8_16 
ROOT
HETATM    1  N2  UNL     1      26.744  63.188  13.457  1.00  0.00    -0.258 N 
ATOM      2  H2  UNL     1      26.525  62.195  13.537  1.00  0.00     0.191 HD
HETATM    3  C1  UNL     1      26.365  63.898  12.292  1.00  0.00     0.341 C 
HETATM    4  O1  UNL     1      26.633  65.123  12.187  1.00  0.00    -0.245 OA
HETATM    5  N3  UNL     1      25.690  63.224  11.258  1.00  0.00    -0.276 N 
ATOM      6  H3  UNL     1      25.253  62.329  11.478  1.00  0.00     0.173 HD
HETATM    7  C2  UNL     1      25.587  63.663  10.051  1.00  0.00     0.235 C 
HETATM    8  N4  UNL     1      26.075  64.846   9.447  1.00  0.00    -0.254 N 
ATOM      9  H4  UNL     1      26.487  65.656   9.911  1.00  0.00     0.187 HD
HETATM   10  N5  UNL     1      25.869  64.664   8.061  1.00  0.00    -0.004 NA
HETATM   11  N6  UNL     1      24.717  63.878   7.943  1.00  0.00     0.017 NA
HETATM   12  N7  UNL     1      24.900  62.966   9.018  1.00  0.00    -0.153 N 
ENDROOT
BRANCH  12  13
HETATM   13  N8  UNL     1      24.498  61.631   9.089  1.00  0.00    -0.323 N 
ATOM     14  H82 UNL     1      23.931  61.184   9.810  1.00  0.00     0.178 HD
ATOM     15  H81 UNL     1      24.732  60.915   8.400  1.00  0.00     0.178 HD
ENDBRANCH  12  13
BRANCH   1  16
HETATM   16  N1  UNL     1      27.404  63.824  14.479  1.00  0.00    -0.341 N 
ATOM     17  H12 UNL     1      27.268  64.827  14.601  1.00  0.00     0.177 HD
ATOM     18  H11 UNL     1      28.018  63.302  15.104  1.00  0.00     0.177 HD
ENDBRANCH   1  16
TORSDOF 2
ENDMDL
