MODEL 1
REMARK VINA RESULT: -5.519127359      0.000      0.000
REMARK  2 active torsions:
REMARK  status: ('A' for Active; 'I' for Inactive)
REMARK       I    between atoms: C1_4  and  N2_5 
REMARK       I    between atoms: C1_4  and  N3_8 
REMARK    1  A    between atoms: N3_8  and  N4_10 
REMARK    2  A    between atoms: N6_13  and  N7_14 
ROOT
HETATM    1  N4  UNL     1      31.134  65.460   9.299  1.00  0.00    -0.081 N 
HETATM    2  N5  UNL     1      32.384  65.748   9.618  1.00  0.00    -0.167 N 
ATOM      3  H5  UNL     1      32.988  65.540  10.414  1.00  0.00     0.216 HD
HETATM    4  N6  UNL     1      32.531  66.406   8.505  1.00  0.00    -0.102 N 
HETATM    5  N8  UNL     1      31.292  66.131   8.170  1.00  0.00    -0.167 N 
ATOM      6  H8  UNL     1      30.697  66.346   7.370  1.00  0.00     0.216 HD
ENDROOT
BRANCH   1   7
HETATM    7  N3  UNL     1      30.085  64.745   9.900  1.00  0.00    -0.093 N 
HETATM    8  C1  UNL     1      29.388  65.277  10.999  1.00  0.00     0.700 C 
HETATM    9  N1  UNL     1      29.274  64.596  12.066  1.00  0.00    -0.233 N 
HETATM   10  N2  UNL     1      28.821  66.558  10.912  1.00  0.00    -0.152 N 
ATOM     11  H12 UNL     1      28.768  64.983  12.863  1.00  0.00     0.174 HD
ATOM     12  H11 UNL     1      29.686  63.666  12.129  1.00  0.00     0.174 HD
HETATM   13  S1  UNL     1      29.009  67.801  12.140  1.00  0.00     0.058 SA
ATOM     14  H2  UNL     1      28.266  66.781  10.086  1.00  0.00     0.193 HD
ATOM     15  H3  UNL     1      29.825  63.828   9.536  1.00  0.00     0.209 HD
ENDBRANCH   1   7
BRANCH   4  16
HETATM   16  N7  UNL     1      33.517  67.146   7.817  1.00  0.00    -0.306 N 
ATOM     17  H72 UNL     1      33.657  68.153   7.752  1.00  0.00     0.180 HD
ATOM     18  H71 UNL     1      34.332  66.988   7.224  1.00  0.00     0.180 HD
ENDBRANCH   4  16
TORSDOF 2
ENDMDL
MODEL 2
REMARK VINA RESULT: -5.443778367      1.513      1.637
REMARK  2 active torsions:
REMARK  status: ('A' for Active; 'I' for Inactive)
REMARK       I    between atoms: C1_4  and  N2_5 
REMARK       I    between atoms: C1_4  and  N3_8 
REMARK    1  A    between atoms: N3_8  and  N4_10 
REMARK    2  A    between atoms: N6_13  and  N7_14 
ROOT
HETATM    1  N4  UNL     1      30.744  65.536   8.485  1.00  0.00    -0.081 N 
HETATM    2  N5  UNL     1      31.309  66.731   8.482  1.00  0.00    -0.167 N 
ATOM      3  H5  UNL     1      31.619  67.379   9.205  1.00  0.00     0.216 HD
HETATM    4  N6  UNL     1      31.309  66.742   7.181  1.00  0.00    -0.102 N 
HETATM    5  N8  UNL     1      30.746  65.556   7.162  1.00  0.00    -0.167 N 
ATOM      6  H8  UNL     1      30.439  64.915   6.431  1.00  0.00     0.216 HD
ENDROOT
BRANCH   1   7
HETATM    7  N3  UNL     1      30.320  64.629   9.471  1.00  0.00    -0.093 N 
HETATM    8  C1  UNL     1      29.284  64.966  10.360  1.00  0.00     0.700 C 
HETATM    9  N1  UNL     1      29.470  64.866  11.614  1.00  0.00    -0.233 N 
HETATM   10  N2  UNL     1      28.050  65.410   9.860  1.00  0.00    -0.152 N 
ATOM     11  H12 UNL     1      28.718  65.110  12.259  1.00  0.00     0.174 HD
ATOM     12  H11 UNL     1      30.366  64.543  11.977  1.00  0.00     0.174 HD
HETATM   13  S1  UNL     1      27.204  66.832  10.451  1.00  0.00     0.058 SA
ATOM     14  H2  UNL     1      27.619  64.874   9.107  1.00  0.00     0.193 HD
ATOM     15  H3  UNL     1      30.769  63.716   9.543  1.00  0.00     0.209 HD
ENDBRANCH   1   7
BRANCH   4  16
HETATM   16  N7  UNL     1      31.700  67.581   6.115  1.00  0.00    -0.306 N 
ATOM     17  H72 UNL     1      32.630  67.870   5.813  1.00  0.00     0.180 HD
ATOM     18  H71 UNL     1      31.279  68.127   5.363  1.00  0.00     0.180 HD
ENDBRANCH   4  16
TORSDOF 2
ENDMDL
MODEL 3
REMARK VINA RESULT: -5.397957205      2.518      3.172
REMARK  2 active torsions:
REMARK  status: ('A' for Active; 'I' for Inactive)
REMARK       I    between atoms: C1_4  and  N2_5 
REMARK       I    between atoms: C1_4  and  N3_8 
REMARK    1  A    between atoms: N3_8  and  N4_10 
REMARK    2  A    between atoms: N6_13  and  N7_14 
ROOT
HETATM    1  N4  UNL     1      30.290  67.251   7.132  1.00  0.00    -0.081 N 
HETATM    2  N5  UNL     1      31.369  67.353   6.374  1.00  0.00    -0.167 N 
ATOM      3  H5  UNL     1      31.544  67.632   5.409  1.00  0.00     0.216 HD
HETATM    4  N6  UNL     1      32.116  66.953   7.362  1.00  0.00    -0.102 N 
HETATM    5  N8  UNL     1      31.057  66.845   8.130  1.00  0.00    -0.167 N 
ATOM      6  H8  UNL     1      30.893  66.564   9.097  1.00  0.00     0.216 HD
ENDROOT
BRANCH   1   7
HETATM    7  N3  UNL     1      28.915  67.477   6.953  1.00  0.00    -0.093 N 
HETATM    8  C1  UNL     1      27.970  66.870   7.798  1.00  0.00     0.700 C 
HETATM    9  N1  UNL     1      27.016  66.195   7.298  1.00  0.00    -0.233 N 
HETATM   10  N2  UNL     1      28.084  67.011   9.190  1.00  0.00    -0.152 N 
ATOM     11  H12 UNL     1      26.330  65.755   7.912  1.00  0.00     0.174 HD
ATOM     12  H11 UNL     1      26.933  66.093   6.287  1.00  0.00     0.174 HD
HETATM   13  S1  UNL     1      27.970  65.675  10.326  1.00  0.00     0.058 SA
ATOM     14  H2  UNL     1      28.244  67.946   9.564  1.00  0.00     0.193 HD
ATOM     15  H3  UNL     1      28.598  68.090   6.201  1.00  0.00     0.209 HD
ENDBRANCH   1   7
BRANCH   4  16
HETATM   16  N7  UNL     1      33.475  66.696   7.644  1.00  0.00    -0.306 N 
ATOM     17  H72 UNL     1      34.290  66.720   7.031  1.00  0.00     0.180 HD
ATOM     18  H71 UNL     1      34.068  66.435   8.432  1.00  0.00     0.180 HD
ENDBRANCH   4  16
TORSDOF 2
ENDMDL
MODEL 4
REMARK VINA RESULT: -5.361501086      2.808      3.314
REMARK  2 active torsions:
REMARK  status: ('A' for Active; 'I' for Inactive)
REMARK       I    between atoms: C1_4  and  N2_5 
REMARK       I    between atoms: C1_4  and  N3_8 
REMARK    1  A    between atoms: N3_8  and  N4_10 
REMARK    2  A    between atoms: N6_13  and  N7_14 
ROOT
HETATM    1  N4  UNL     1      29.632  66.767   6.734  1.00  0.00    -0.081 N 
HETATM    2  N5  UNL     1      30.385  65.681   6.719  1.00  0.00    -0.167 N 
ATOM      3  H5  UNL     1      30.199  64.679   6.737  1.00  0.00     0.216 HD
HETATM    4  N6  UNL     1      31.461  66.412   6.671  1.00  0.00    -0.102 N 
HETATM    5  N8  UNL     1      30.730  67.503   6.686  1.00  0.00    -0.167 N 
ATOM      6  H8  UNL     1      30.928  68.503   6.668  1.00  0.00     0.216 HD
ENDROOT
BRANCH   1   7
HETATM    7  N3  UNL     1      28.252  67.030   6.781  1.00  0.00    -0.093 N 
HETATM    8  C1  UNL     1      27.470  66.579   7.859  1.00  0.00     0.700 C 
HETATM    9  N1  UNL     1      26.426  65.888   7.637  1.00  0.00    -0.233 N 
HETATM   10  N2  UNL     1      27.846  66.892   9.174  1.00  0.00    -0.152 N 
ATOM     11  H12 UNL     1      25.859  65.561   8.419  1.00  0.00     0.174 HD
ATOM     12  H11 UNL     1      26.154  65.660   6.681  1.00  0.00     0.174 HD
HETATM   13  S1  UNL     1      27.919  65.720  10.481  1.00  0.00     0.058 SA
ATOM     14  H2  UNL     1      28.090  67.860   9.384  1.00  0.00     0.193 HD
ATOM     15  H3  UNL     1      27.813  67.554   6.025  1.00  0.00     0.209 HD
ENDBRANCH   1   7
BRANCH   4  16
HETATM   16  N7  UNL     1      32.863  66.257   6.622  1.00  0.00    -0.306 N 
ATOM     17  H72 UNL     1      33.426  65.457   6.333  1.00  0.00     0.180 HD
ATOM     18  H71 UNL     1      33.710  66.789   6.819  1.00  0.00     0.180 HD
ENDBRANCH   4  16
TORSDOF 2
ENDMDL
MODEL 5
REMARK VINA RESULT: -5.104270616      3.281      5.148
REMARK  2 active torsions:
REMARK  status: ('A' for Active; 'I' for Inactive)
REMARK       I    between atoms: C1_4  and  N2_5 
REMARK       I    between atoms: C1_4  and  N3_8 
REMARK    1  A    between atoms: N3_8  and  N4_10 
REMARK    2  A    between atoms: N6_13  and  N7_14 
ROOT
HETATM    1  N4  UNL     1      28.431  66.641   7.289  1.00  0.00    -0.081 N 
HETATM    2  N5  UNL     1      28.386  66.920   8.581  1.00  0.00    -0.167 N 
ATOM      3  H5  UNL     1      29.086  67.107   9.299  1.00  0.00     0.216 HD
HETATM    4  N6  UNL     1      27.086  66.858   8.562  1.00  0.00    -0.102 N 
HETATM    5  N8  UNL     1      27.109  66.579   7.280  1.00  0.00    -0.167 N 
ATOM      6  H8  UNL     1      26.402  66.393   6.570  1.00  0.00     0.216 HD
ENDROOT
BRANCH   1   7
HETATM    7  N3  UNL     1      29.448  66.479   6.333  1.00  0.00    -0.093 N 
HETATM    8  C1  UNL     1      30.801  66.591   6.696  1.00  0.00     0.700 C 
HETATM    9  N1  UNL     1      31.561  67.389   6.063  1.00  0.00    -0.233 N 
HETATM   10  N2  UNL     1      31.307  65.821   7.755  1.00  0.00    -0.152 N 
ATOM     11  H12 UNL     1      32.543  67.471   6.326  1.00  0.00     0.174 HD
ATOM     12  H11 UNL     1      31.194  67.949   5.294  1.00  0.00     0.174 HD
HETATM   13  S1  UNL     1      32.293  66.469   9.057  1.00  0.00     0.058 SA
ATOM     14  H2  UNL     1      31.089  64.825   7.769  1.00  0.00     0.193 HD
ATOM     15  H3  UNL     1      29.201  66.277   5.364  1.00  0.00     0.209 HD
ENDBRANCH   1   7
BRANCH   4  16
HETATM   16  N7  UNL     1      25.993  67.000   9.444  1.00  0.00    -0.306 N 
ATOM     17  H72 UNL     1      25.548  67.842   9.809  1.00  0.00     0.180 HD
ATOM     18  H71 UNL     1      25.337  66.419   9.965  1.00  0.00     0.180 HD
ENDBRANCH   4  16
TORSDOF 2
ENDMDL
