MODEL 1
REMARK VINA RESULT: -6.270722102      0.000      0.000
REMARK  5 active torsions:
REMARK  status: ('A' for Active; 'I' for Inactive)
REMARK       I    between atoms: C1_2  and  N2_4 
REMARK    1  A    between atoms: N2_4  and  C2_6 
REMARK    2  A    between atoms: C2_6  and  O2_7 
REMARK    3  A    between atoms: C2_6  and  C3_9 
REMARK    4  A    between atoms: C3_9  and  N3_10 
REMARK    5  A    between atoms: C3_9  and  C4_14 
ROOT
HETATM    1  C2  UNL     1      31.681  65.706   9.044  1.00  0.00     0.159 C 
ENDROOT
BRANCH   1   2
HETATM    2  N2  UNL     1      30.790  64.787   9.541  1.00  0.00    -0.293 N 
HETATM    3  C1  UNL     1      29.576  64.868  10.215  1.00  0.00     0.334 C 
HETATM    4  N1  UNL     1      28.884  63.642  10.603  1.00  0.00    -0.040 NA
HETATM    5  O1  UNL     1      28.977  65.900  10.545  1.00  0.00    -0.251 OA
ATOM      6  H2  UNL     1      31.086  63.824   9.380  1.00  0.00     0.172 HD
ENDBRANCH   1   2
BRANCH   1   7
HETATM    7  O2  UNL     1      32.900  65.615   9.551  1.00  0.00    -0.347 OA
ATOM      8  H2  UNL     1      33.473  66.339   9.327  1.00  0.00     0.219 HD
ENDBRANCH   1   7
BRANCH   1   9
HETATM    9  C3  UNL     1      31.565  66.774   8.061  1.00  0.00     0.345 C 
BRANCH   9  10
HETATM   10  N3  UNL     1      32.614  67.009   7.154  1.00  0.00    -0.059 N 
ATOM     11  H33 UNL     1      32.943  66.111   6.800  1.00  0.00     0.275 HD
ATOM     12  H32 UNL     1      32.224  67.431   6.311  1.00  0.00     0.275 HD
ATOM     13  H31 UNL     1      33.424  67.558   7.444  1.00  0.00     0.275 HD
ENDBRANCH   9  10
BRANCH   9  14
HETATM   14  C4  UNL     1      30.317  66.552   7.224  1.00  0.00     0.269 C 
HETATM   15  N4  UNL     1      30.035  65.289   6.643  1.00  0.00    -0.060 NA
HETATM   16  O3  UNL     1      29.509  67.490   7.031  1.00  0.00    -0.274 OA
ENDBRANCH   9  14
ENDBRANCH   1   9
TORSDOF 5
ENDMDL
MODEL 2
REMARK VINA RESULT: -6.154276260      1.762      2.085
REMARK  5 active torsions:
REMARK  status: ('A' for Active; 'I' for Inactive)
REMARK       I    between atoms: C1_2  and  N2_4 
REMARK    1  A    between atoms: N2_4  and  C2_6 
REMARK    2  A    between atoms: C2_6  and  O2_7 
REMARK    3  A    between atoms: C2_6  and  C3_9 
REMARK    4  A    between atoms: C3_9  and  N3_10 
REMARK    5  A    between atoms: C3_9  and  C4_14 
ROOT
HETATM    1  C2  UNL     1      30.647  65.384   9.201  1.00  0.00     0.159 C 
ENDROOT
BRANCH   1   2
HETATM    2  N2  UNL     1      30.210  64.726  10.325  1.00  0.00    -0.293 N 
HETATM    3  C1  UNL     1      28.978  64.253  10.763  1.00  0.00     0.334 C 
HETATM    4  N1  UNL     1      28.885  63.579  12.056  1.00  0.00    -0.040 NA
HETATM    5  O1  UNL     1      27.896  64.335  10.168  1.00  0.00    -0.251 OA
ATOM      6  H2  UNL     1      30.961  64.542  10.990  1.00  0.00     0.172 HD
ENDBRANCH   1   2
BRANCH   1   7
HETATM    7  O2  UNL     1      30.091  64.970   8.075  1.00  0.00    -0.347 OA
ATOM      8  H2  UNL     1      29.378  65.517   7.764  1.00  0.00     0.219 HD
ENDBRANCH   1   7
BRANCH   1   9
HETATM    9  C3  UNL     1      31.606  66.459   8.987  1.00  0.00     0.345 C 
BRANCH   9  10
HETATM   10  N3  UNL     1      32.866  66.409   9.612  1.00  0.00    -0.059 N 
ATOM     11  H33 UNL     1      32.796  66.871  10.518  1.00  0.00     0.275 HD
ATOM     12  H32 UNL     1      33.052  65.445   9.887  1.00  0.00     0.275 HD
ATOM     13  H31 UNL     1      33.688  66.771   9.128  1.00  0.00     0.275 HD
ENDBRANCH   9  10
BRANCH   9  14
HETATM   14  C4  UNL     1      31.871  66.605   7.499  1.00  0.00     0.269 C 
HETATM   15  N4  UNL     1      30.972  67.307   6.656  1.00  0.00    -0.060 NA
HETATM   16  O3  UNL     1      32.899  66.105   6.986  1.00  0.00    -0.274 OA
ENDBRANCH   9  14
ENDBRANCH   1   9
TORSDOF 5
ENDMDL
MODEL 3
REMARK VINA RESULT: -6.135428630      1.051      1.051
REMARK  5 active torsions:
REMARK  status: ('A' for Active; 'I' for Inactive)
REMARK       I    between atoms: C1_2  and  N2_4 
REMARK    1  A    between atoms: N2_4  and  C2_6 
REMARK    2  A    between atoms: C2_6  and  O2_7 
REMARK    3  A    between atoms: C2_6  and  C3_9 
REMARK    4  A    between atoms: C3_9  and  N3_10 
REMARK    5  A    between atoms: C3_9  and  C4_14 
ROOT
HETATM    1  C2  UNL     1      31.706  66.278   8.998  1.00  0.00     0.159 C 
ENDROOT
BRANCH   1   2
HETATM    2  N2  UNL     1      30.712  66.181   9.942  1.00  0.00    -0.293 N 
HETATM    3  C1  UNL     1      29.795  65.198  10.297  1.00  0.00     0.334 C 
HETATM    4  N1  UNL     1      28.856  65.450  11.386  1.00  0.00    -0.040 NA
HETATM    5  O1  UNL     1      29.666  64.081   9.780  1.00  0.00    -0.251 OA
ATOM      6  H2  UNL     1      30.628  67.022  10.512  1.00  0.00     0.172 HD
ENDBRANCH   1   2
BRANCH   1   7
HETATM    7  O2  UNL     1      32.896  65.877   9.415  1.00  0.00    -0.347 OA
ATOM      8  H2  UNL     1      33.560  66.557   9.418  1.00  0.00     0.219 HD
ENDBRANCH   1   7
BRANCH   1   9
HETATM    9  C3  UNL     1      31.725  66.736   7.616  1.00  0.00     0.345 C 
BRANCH   9  10
HETATM   10  N3  UNL     1      32.645  66.182   6.707  1.00  0.00    -0.059 N 
ATOM     11  H33 UNL     1      33.363  66.880   6.509  1.00  0.00     0.275 HD
ATOM     12  H32 UNL     1      33.185  65.465   7.190  1.00  0.00     0.275 HD
ATOM     13  H31 UNL     1      32.316  65.797   5.821  1.00  0.00     0.275 HD
ENDBRANCH   9  10
BRANCH   9  14
HETATM   14  C4  UNL     1      30.349  66.541   7.004  1.00  0.00     0.269 C 
HETATM   15  N4  UNL     1      29.962  65.296   6.443  1.00  0.00    -0.060 NA
HETATM   16  O3  UNL     1      29.524  67.484   6.984  1.00  0.00    -0.274 OA
ENDBRANCH   9  14
ENDBRANCH   1   9
TORSDOF 5
ENDMDL
MODEL 4
REMARK VINA RESULT: -5.702675488      2.164      2.470
REMARK  5 active torsions:
REMARK  status: ('A' for Active; 'I' for Inactive)
REMARK       I    between atoms: C1_2  and  N2_4 
REMARK    1  A    between atoms: N2_4  and  C2_6 
REMARK    2  A    between atoms: C2_6  and  O2_7 
REMARK    3  A    between atoms: C2_6  and  C3_9 
REMARK    4  A    between atoms: C3_9  and  N3_10 
REMARK    5  A    between atoms: C3_9  and  C4_14 
ROOT
HETATM    1  C2  UNL     1      30.156  65.667   9.319  1.00  0.00     0.159 C 
ENDROOT
BRANCH   1   2
HETATM    2  N2  UNL     1      28.862  66.125   9.359  1.00  0.00    -0.293 N 
HETATM    3  C1  UNL     1      27.637  65.565   9.706  1.00  0.00     0.334 C 
HETATM    4  N1  UNL     1      26.426  66.377   9.624  1.00  0.00    -0.040 NA
HETATM    5  O1  UNL     1      27.433  64.408  10.094  1.00  0.00    -0.251 OA
ATOM      6  H2  UNL     1      28.780  67.099   9.067  1.00  0.00     0.172 HD
ENDBRANCH   1   2
BRANCH   1   7
HETATM    7  O2  UNL     1      30.271  64.350   9.368  1.00  0.00    -0.347 OA
ATOM      8  H2  UNL     1      30.095  63.909   8.545  1.00  0.00     0.219 HD
ENDBRANCH   1   7
BRANCH   1   9
HETATM    9  C3  UNL     1      31.447  66.336   9.232  1.00  0.00     0.345 C 
BRANCH   9  10
HETATM   10  N3  UNL     1      32.618  65.652   9.609  1.00  0.00    -0.059 N 
ATOM     11  H33 UNL     1      32.579  65.473  10.612  1.00  0.00     0.275 HD
ATOM     12  H32 UNL     1      32.575  64.706   9.230  1.00  0.00     0.275 HD
ATOM     13  H31 UNL     1      33.531  66.048   9.387  1.00  0.00     0.275 HD
ENDBRANCH   9  10
BRANCH   9  14
HETATM   14  C4  UNL     1      31.669  66.813   7.808  1.00  0.00     0.269 C 
HETATM   15  N4  UNL     1      30.578  67.106   6.950  1.00  0.00    -0.060 NA
HETATM   16  O3  UNL     1      32.831  66.958   7.362  1.00  0.00    -0.274 OA
ENDBRANCH   9  14
ENDBRANCH   1   9
TORSDOF 5
ENDMDL
MODEL 5
REMARK VINA RESULT: -5.597585171      1.932      2.127
REMARK  5 active torsions:
REMARK  status: ('A' for Active; 'I' for Inactive)
REMARK       I    between atoms: C1_2  and  N2_4 
REMARK    1  A    between atoms: N2_4  and  C2_6 
REMARK    2  A    between atoms: C2_6  and  O2_7 
REMARK    3  A    between atoms: C2_6  and  C3_9 
REMARK    4  A    between atoms: C3_9  and  N3_10 
REMARK    5  A    between atoms: C3_9  and  C4_14 
ROOT
HETATM    1  C2  UNL     1      29.916  65.445   9.527  1.00  0.00     0.159 C 
ENDROOT
BRANCH   1   2
HETATM    2  N2  UNL     1      28.665  65.692  10.038  1.00  0.00    -0.293 N 
HETATM    3  C1  UNL     1      27.595  64.894  10.428  1.00  0.00     0.334 C 
HETATM    4  N1  UNL     1      26.380  65.522  10.941  1.00  0.00    -0.040 NA
HETATM    5  O1  UNL     1      27.538  63.659  10.394  1.00  0.00    -0.251 OA
ATOM      6  H2  UNL     1      28.478  66.687  10.158  1.00  0.00     0.172 HD
ENDBRANCH   1   2
BRANCH   1   7
HETATM    7  O2  UNL     1      30.269  64.170   9.537  1.00  0.00    -0.347 OA
ATOM      8  H2  UNL     1      30.728  63.884   8.755  1.00  0.00     0.219 HD
ENDBRANCH   1   7
BRANCH   1   9
HETATM    9  C3  UNL     1      30.951  66.305   8.970  1.00  0.00     0.345 C 
BRANCH   9  10
HETATM   10  N3  UNL     1      32.308  66.009   9.200  1.00  0.00    -0.059 N 
ATOM     11  H33 UNL     1      32.499  65.072   8.844  1.00  0.00     0.275 HD
ATOM     12  H32 UNL     1      32.873  66.584   8.576  1.00  0.00     0.275 HD
ATOM     13  H31 UNL     1      32.691  66.081  10.142  1.00  0.00     0.275 HD
ENDBRANCH   9  10
BRANCH   9  14
HETATM   14  C4  UNL     1      30.780  66.383   7.463  1.00  0.00     0.269 C 
HETATM   15  N4  UNL     1      29.922  65.490   6.772  1.00  0.00    -0.060 NA
HETATM   16  O3  UNL     1      31.398  67.247   6.799  1.00  0.00    -0.274 OA
ENDBRANCH   9  14
ENDBRANCH   1   9
TORSDOF 5
ENDMDL
