MODEL 1
REMARK VINA RESULT: -5.686277623      0.000      0.000
REMARK  2 active torsions:
REMARK  status: ('A' for Active; 'I' for Inactive)
REMARK    1  A    between atoms: N1_1  and  N2_4 
REMARK       I    between atoms: C1_6  and  N4_8 
REMARK    2  A    between atoms: N6_15  and  N7_16 
ROOT
HETATM    1  N2  UNL     1      28.810  65.951  11.023  1.00  0.00    -0.279 N 
ATOM      2  H2  UNL     1      28.489  65.461  11.858  1.00  0.00     0.189 HD
HETATM    3  C1  UNL     1      29.312  65.240  10.096  1.00  0.00     0.225 C 
HETATM    4  N3  UNL     1      29.383  63.827  10.303  1.00  0.00    -0.060 NA
HETATM    5  N4  UNL     1      29.813  65.727   8.865  1.00  0.00    -0.237 N 
HETATM    6  C2  UNL     1      28.949  65.965   7.732  1.00  0.00     0.174 C 
HETATM    7  C3  UNL     1      29.326  67.306   7.152  1.00  0.00     0.146 C 
HETATM    8  N5  UNL     1      30.684  67.203   6.663  1.00  0.00    -0.339 N 
ATOM      9  H5  UNL     1      30.930  67.444   5.703  1.00  0.00     0.164 HD
HETATM   10  C4  UNL     1      31.657  66.749   7.595  1.00  0.00     0.356 C 
HETATM   11  O1  UNL     1      32.861  67.019   7.407  1.00  0.00    -0.243 OA
HETATM   12  N6  UNL     1      31.178  65.988   8.723  1.00  0.00    -0.144 N 
ENDROOT
BRANCH  12  13
HETATM   13  N7  UNL     1      32.125  65.546   9.631  1.00  0.00    -0.319 N 
ATOM     14  H72 UNL     1      31.851  65.527  10.613  1.00  0.00     0.179 HD
ATOM     15  H71 UNL     1      33.061  65.248   9.354  1.00  0.00     0.179 HD
ENDBRANCH  12  13
BRANCH   1  16
HETATM   16  N1  UNL     1      28.658  67.322  11.006  1.00  0.00    -0.343 N 
ATOM     17  H12 UNL     1      28.920  67.787  10.137  1.00  0.00     0.176 HD
ATOM     18  H11 UNL     1      28.312  67.899  11.774  1.00  0.00     0.176 HD
ENDBRANCH   1  16
TORSDOF 2
ENDMDL
MODEL 2
REMARK VINA RESULT: -5.440111330      2.265      3.162
REMARK  2 active torsions:
REMARK  status: ('A' for Active; 'I' for Inactive)
REMARK    1  A    between atoms: N1_1  and  N2_4 
REMARK       I    between atoms: C1_6  and  N4_8 
REMARK    2  A    between atoms: N6_15  and  N7_16 
ROOT
HETATM    1  N2  UNL     1      28.759  63.474  12.839  1.00  0.00    -0.279 N 
ATOM      2  H2  UNL     1      28.779  62.538  13.245  1.00  0.00     0.189 HD
HETATM    3  C1  UNL     1      28.364  63.570  11.635  1.00  0.00     0.225 C 
HETATM    4  N3  UNL     1      27.985  62.369  10.958  1.00  0.00    -0.060 NA
HETATM    5  N4  UNL     1      28.266  64.773  10.894  1.00  0.00    -0.237 N 
HETATM    6  C2  UNL     1      27.101  65.623  10.974  1.00  0.00     0.174 C 
HETATM    7  C3  UNL     1      27.588  67.043  11.116  1.00  0.00     0.146 C 
HETATM    8  N5  UNL     1      28.305  67.382   9.905  1.00  0.00    -0.339 N 
ATOM      9  H5  UNL     1      28.066  68.204   9.350  1.00  0.00     0.164 HD
HETATM   10  C4  UNL     1      29.361  66.506   9.532  1.00  0.00     0.356 C 
HETATM   11  O1  UNL     1      30.267  66.921   8.781  1.00  0.00    -0.243 OA
HETATM   12  N6  UNL     1      29.314  65.163  10.058  1.00  0.00    -0.144 N 
ENDROOT
BRANCH  12  13
HETATM   13  N7  UNL     1      30.343  64.310   9.696  1.00  0.00    -0.319 N 
ATOM     14  H72 UNL     1      30.130  63.313   9.670  1.00  0.00     0.179 HD
ATOM     15  H71 UNL     1      31.279  64.641   9.460  1.00  0.00     0.179 HD
ENDBRANCH  12  13
BRANCH   1  16
HETATM   16  N1  UNL     1      29.164  64.514  13.650  1.00  0.00    -0.343 N 
ATOM     17  H12 UNL     1      29.173  65.437  13.216  1.00  0.00     0.176 HD
ATOM     18  H11 UNL     1      29.449  64.441  14.627  1.00  0.00     0.176 HD
ENDBRANCH   1  16
TORSDOF 2
ENDMDL
MODEL 3
REMARK VINA RESULT: -5.403022768      4.541      5.615
REMARK  2 active torsions:
REMARK  status: ('A' for Active; 'I' for Inactive)
REMARK    1  A    between atoms: N1_1  and  N2_4 
REMARK       I    between atoms: C1_6  and  N4_8 
REMARK    2  A    between atoms: N6_15  and  N7_16 
ROOT
HETATM    1  N2  UNL     1      29.382  63.729  11.968  1.00  0.00    -0.279 N 
ATOM      2  H2  UNL     1      30.174  63.405  12.524  1.00  0.00     0.189 HD
HETATM    3  C1  UNL     1      28.244  63.237  12.247  1.00  0.00     0.225 C 
HETATM    4  N3  UNL     1      28.172  62.280  13.307  1.00  0.00    -0.060 NA
HETATM    5  N4  UNL     1      27.028  63.554  11.595  1.00  0.00    -0.237 N 
HETATM    6  C2  UNL     1      26.235  64.699  11.978  1.00  0.00     0.174 C 
HETATM    7  C3  UNL     1      25.819  65.403  10.710  1.00  0.00     0.146 C 
HETATM    8  N5  UNL     1      24.967  64.499   9.968  1.00  0.00    -0.339 N 
ATOM      9  H5  UNL     1      24.034  64.771   9.658  1.00  0.00     0.164 HD
HETATM   10  C4  UNL     1      25.503  63.210   9.694  1.00  0.00     0.356 C 
HETATM   11  O1  UNL     1      25.044  62.543   8.745  1.00  0.00    -0.243 OA
HETATM   12  N6  UNL     1      26.567  62.748  10.552  1.00  0.00    -0.144 N 
ENDROOT
BRANCH  12  13
HETATM   13  N7  UNL     1      27.089  61.494  10.285  1.00  0.00    -0.319 N 
ATOM     14  H72 UNL     1      27.601  61.382   9.409  1.00  0.00     0.179 HD
ATOM     15  H71 UNL     1      26.980  60.702  10.919  1.00  0.00     0.179 HD
ENDBRANCH  12  13
BRANCH   1  16
HETATM   16  N1  UNL     1      29.650  64.659  10.986  1.00  0.00    -0.343 N 
ATOM     17  H12 UNL     1      30.501  64.503  10.447  1.00  0.00     0.176 HD
ATOM     18  H11 UNL     1      29.080  65.473  10.756  1.00  0.00     0.176 HD
ENDBRANCH   1  16
TORSDOF 2
ENDMDL
MODEL 4
REMARK VINA RESULT: -5.159379220      3.722      4.872
REMARK  2 active torsions:
REMARK  status: ('A' for Active; 'I' for Inactive)
REMARK    1  A    between atoms: N1_1  and  N2_4 
REMARK       I    between atoms: C1_6  and  N4_8 
REMARK    2  A    between atoms: N6_15  and  N7_16 
ROOT
HETATM    1  N2  UNL     1      29.822  64.499  10.888  1.00  0.00    -0.279 N 
ATOM      2  H2  UNL     1      30.567  64.379  11.574  1.00  0.00     0.189 HD
HETATM    3  C1  UNL     1      28.653  64.714  11.339  1.00  0.00     0.225 C 
HETATM    4  N3  UNL     1      28.486  64.769  12.759  1.00  0.00    -0.060 NA
HETATM    5  N4  UNL     1      27.490  64.906  10.556  1.00  0.00    -0.237 N 
HETATM    6  C2  UNL     1      27.139  66.200  10.019  1.00  0.00     0.174 C 
HETATM    7  C3  UNL     1      26.738  65.996   8.578  1.00  0.00     0.146 C 
HETATM    8  N5  UNL     1      25.549  65.172   8.569  1.00  0.00    -0.339 N 
ATOM      9  H5  UNL     1      24.696  65.463   8.090  1.00  0.00     0.164 HD
HETATM   10  C4  UNL     1      25.634  63.935   9.264  1.00  0.00     0.356 C 
HETATM   11  O1  UNL     1      24.848  63.010   8.972  1.00  0.00    -0.243 OA
HETATM   12  N6  UNL     1      26.647  63.826  10.286  1.00  0.00    -0.144 N 
ENDROOT
BRANCH  12  13
HETATM   13  N7  UNL     1      26.730  62.621  10.963  1.00  0.00    -0.319 N 
ATOM     14  H72 UNL     1      25.903  62.323  11.481  1.00  0.00     0.179 HD
ATOM     15  H71 UNL     1      27.568  62.039  10.957  1.00  0.00     0.179 HD
ENDBRANCH  12  13
BRANCH   1  16
HETATM   16  N1  UNL     1      30.178  64.411   9.558  1.00  0.00    -0.343 N 
ATOM     17  H12 UNL     1      31.177  64.336   9.371  1.00  0.00     0.176 HD
ATOM     18  H11 UNL     1      29.540  64.416   8.762  1.00  0.00     0.176 HD
ENDBRANCH   1  16
TORSDOF 2
ENDMDL
MODEL 5
REMARK VINA RESULT: -5.156835020      3.421      4.813
REMARK  2 active torsions:
REMARK  status: ('A' for Active; 'I' for Inactive)
REMARK    1  A    between atoms: N1_1  and  N2_4 
REMARK       I    between atoms: C1_6  and  N4_8 
REMARK    2  A    between atoms: N6_15  and  N7_16 
ROOT
HETATM    1  N2  UNL     1      26.299  63.448  14.053  1.00  0.00    -0.279 N 
ATOM      2  H2  UNL     1      25.571  62.900  14.512  1.00  0.00     0.189 HD
HETATM    3  C1  UNL     1      26.131  63.714  12.822  1.00  0.00     0.225 C 
HETATM    4  N3  UNL     1      24.944  63.225  12.190  1.00  0.00    -0.060 NA
HETATM    5  N4  UNL     1      27.021  64.456  12.010  1.00  0.00    -0.237 N 
HETATM    6  C2  UNL     1      26.985  65.900  11.964  1.00  0.00     0.174 C 
HETATM    7  C3  UNL     1      28.409  66.389  12.058  1.00  0.00     0.146 C 
HETATM    8  N5  UNL     1      29.109  65.923  10.880  1.00  0.00    -0.339 N 
ATOM      9  H5  UNL     1      29.613  66.562  10.265  1.00  0.00     0.164 HD
HETATM   10  C4  UNL     1      29.057  64.524  10.629  1.00  0.00     0.356 C 
HETATM   11  O1  UNL     1      29.935  63.995   9.918  1.00  0.00    -0.243 OA
HETATM   12  N6  UNL     1      27.966  63.792  11.225  1.00  0.00    -0.144 N 
ENDROOT
BRANCH  12  13
HETATM   13  N7  UNL     1      27.916  62.430  10.981  1.00  0.00    -0.319 N 
ATOM     14  H72 UNL     1      27.238  62.109  10.289  1.00  0.00     0.179 HD
ATOM     15  H71 UNL     1      28.519  61.760  11.456  1.00  0.00     0.179 HD
ENDBRANCH  12  13
BRANCH   1  16
HETATM   16  N1  UNL     1      27.373  63.830  14.829  1.00  0.00    -0.343 N 
ATOM     17  H12 UNL     1      27.197  63.893  15.832  1.00  0.00     0.176 HD
ATOM     18  H11 UNL     1      28.311  64.051  14.493  1.00  0.00     0.176 HD
ENDBRANCH   1  16
TORSDOF 2
ENDMDL
