MODEL 1
REMARK VINA RESULT: -7.008660805      0.000      0.000
REMARK  4 active torsions:
REMARK  status: ('A' for Active; 'I' for Inactive)
REMARK    1  A    between atoms: N1_1  and  C1_5 
REMARK    2  A    between atoms: C1_5  and  C2_6 
REMARK    3  A    between atoms: C2_6  and  N2_7 
REMARK    4  A    between atoms: N4_18  and  N5_19 
ROOT
HETATM    1  N2  UNL     1     -14.911 -27.514 -26.069  1.00  0.00    -0.323 N 
HETATM    2  C3  UNL     1     -16.010 -27.941 -26.762  1.00  0.00     0.085 A 
HETATM    3  S1  UNL     1     -17.696 -27.755 -26.229  1.00  0.00    -0.033 SA
HETATM    4  C4  UNL     1     -15.630 -28.539 -27.933  1.00  0.00     0.059 A 
HETATM    5  C5  UNL     1     -14.247 -28.471 -27.952  1.00  0.00     0.081 A 
HETATM    6  C6  UNL     1     -13.292 -28.899 -28.864  1.00  0.00     0.263 A 
HETATM    7  O1  UNL     1     -13.697 -29.471 -29.903  1.00  0.00    -0.267 OA
HETATM    8  N3  UNL     1     -11.996 -28.678 -28.582  1.00  0.00    -0.273 N 
ATOM      9  H3  UNL     1     -11.288 -28.991 -29.246  1.00  0.00     0.173 HD
HETATM   10  C7  UNL     1     -11.600 -28.063 -27.459  1.00  0.00     0.349 A 
HETATM   11  O2  UNL     1     -10.389 -27.868 -27.217  1.00  0.00    -0.244 OA
HETATM   12  N4  UNL     1     -12.532 -27.638 -26.557  1.00  0.00    -0.194 N 
HETATM   13  C8  UNL     1     -13.831 -27.843 -26.806  1.00  0.00     0.150 A 
ENDROOT
BRANCH   1  14
HETATM   14  C2  UNL     1     -14.983 -26.848 -24.801  1.00  0.00     0.158 C 
BRANCH  14  15
HETATM   15  C1  UNL     1     -15.506 -27.787 -23.713  1.00  0.00     0.249 C 
BRANCH  15  16
HETATM   16  N1  UNL     1     -14.626 -28.904 -23.513  1.00  0.00    -0.078 N 
ATOM     17  H13 UNL     1     -13.933 -28.971 -24.258  1.00  0.00     0.274 HD
ATOM     18  H12 UNL     1     -13.997 -28.747 -22.725  1.00  0.00     0.274 HD
ATOM     19  H11 UNL     1     -15.146 -29.775 -23.407  1.00  0.00     0.274 HD
ENDBRANCH  15  16
ENDBRANCH  14  15
ENDBRANCH   1  14
BRANCH  12  20
HETATM   20  N5  UNL     1     -12.144 -26.999 -25.385  1.00  0.00    -0.333 N 
ATOM     21  H52 UNL     1     -11.696 -27.533 -24.640  1.00  0.00     0.177 HD
ATOM     22  H51 UNL     1     -12.301 -25.999 -25.262  1.00  0.00     0.177 HD
ENDBRANCH  12  20
TORSDOF 4
ENDMDL
MODEL 2
REMARK VINA RESULT: -6.867070461      1.359      1.639
REMARK  4 active torsions:
REMARK  status: ('A' for Active; 'I' for Inactive)
REMARK    1  A    between atoms: N1_1  and  C1_5 
REMARK    2  A    between atoms: C1_5  and  C2_6 
REMARK    3  A    between atoms: C2_6  and  N2_7 
REMARK    4  A    between atoms: N4_18  and  N5_19 
ROOT
HETATM    1  N2  UNL     1     -14.907 -27.036 -25.488  1.00  0.00    -0.323 N 
HETATM    2  C3  UNL     1     -16.135 -27.453 -25.923  1.00  0.00     0.085 A 
HETATM    3  S1  UNL     1     -17.682 -27.104 -25.117  1.00  0.00    -0.033 SA
HETATM    4  C4  UNL     1     -16.009 -28.183 -27.073  1.00  0.00     0.059 A 
HETATM    5  C5  UNL     1     -14.653 -28.210 -27.349  1.00  0.00     0.081 A 
HETATM    6  C6  UNL     1     -13.906 -28.785 -28.367  1.00  0.00     0.263 A 
HETATM    7  O1  UNL     1     -14.525 -29.425 -29.250  1.00  0.00    -0.267 OA
HETATM    8  N3  UNL     1     -12.571 -28.625 -28.349  1.00  0.00    -0.273 N 
ATOM      9  H3  UNL     1     -12.015 -29.046 -29.094  1.00  0.00     0.173 HD
HETATM   10  C7  UNL     1     -11.944 -27.934 -27.388  1.00  0.00     0.349 A 
HETATM   11  O2  UNL     1     -10.701 -27.799 -27.390  1.00  0.00    -0.244 OA
HETATM   12  N4  UNL     1     -12.670 -27.365 -26.382  1.00  0.00    -0.194 N 
HETATM   13  C8  UNL     1     -14.001 -27.504 -26.369  1.00  0.00     0.150 A 
ENDROOT
BRANCH   1  14
HETATM   14  C2  UNL     1     -14.709 -26.249 -24.306  1.00  0.00     0.158 C 
BRANCH  14  15
HETATM   15  C1  UNL     1     -14.867 -24.758 -24.601  1.00  0.00     0.249 C 
BRANCH  15  16
HETATM   16  N1  UNL     1     -15.811 -24.141 -23.712  1.00  0.00    -0.078 N 
ATOM     17  H13 UNL     1     -16.625 -24.736 -23.562  1.00  0.00     0.274 HD
ATOM     18  H12 UNL     1     -15.458 -24.111 -22.756  1.00  0.00     0.274 HD
ATOM     19  H11 UNL     1     -16.082 -23.213 -24.038  1.00  0.00     0.274 HD
ENDBRANCH  15  16
ENDBRANCH  14  15
ENDBRANCH   1  14
BRANCH  12  20
HETATM   20  N5  UNL     1     -12.040 -26.644 -25.374  1.00  0.00    -0.333 N 
ATOM     21  H52 UNL     1     -11.180 -26.134 -25.576  1.00  0.00     0.177 HD
ATOM     22  H51 UNL     1     -12.429 -26.619 -24.431  1.00  0.00     0.177 HD
ENDBRANCH  12  20
TORSDOF 4
ENDMDL
MODEL 3
REMARK VINA RESULT: -6.403941540      1.417      1.532
REMARK  4 active torsions:
REMARK  status: ('A' for Active; 'I' for Inactive)
REMARK    1  A    between atoms: N1_1  and  C1_5 
REMARK    2  A    between atoms: C1_5  and  C2_6 
REMARK    3  A    between atoms: C2_6  and  N2_7 
REMARK    4  A    between atoms: N4_18  and  N5_19 
ROOT
HETATM    1  N2  UNL     1     -16.020 -27.026 -25.454  1.00  0.00    -0.323 N 
HETATM    2  C3  UNL     1     -17.136 -27.602 -25.995  1.00  0.00     0.085 A 
HETATM    3  S1  UNL     1     -18.786 -27.447 -25.351  1.00  0.00    -0.033 SA
HETATM    4  C4  UNL     1     -16.805 -28.323 -27.111  1.00  0.00     0.059 A 
HETATM    5  C5  UNL     1     -15.435 -28.177 -27.253  1.00  0.00     0.081 A 
HETATM    6  C6  UNL     1     -14.524 -28.663 -28.180  1.00  0.00     0.263 A 
HETATM    7  O1  UNL     1     -14.966 -29.387 -29.103  1.00  0.00    -0.267 OA
HETATM    8  N3  UNL     1     -13.229 -28.332 -28.036  1.00  0.00    -0.273 N 
ATOM      9  H3  UNL     1     -12.553 -28.686 -28.713  1.00  0.00     0.173 HD
HETATM   10  C7  UNL     1     -12.793 -27.555 -27.035  1.00  0.00     0.349 A 
HETATM   11  O2  UNL     1     -11.583 -27.260 -26.921  1.00  0.00    -0.244 OA
HETATM   12  N4  UNL     1     -13.682 -27.073 -26.119  1.00  0.00    -0.194 N 
HETATM   13  C8  UNL     1     -14.978 -27.383 -26.231  1.00  0.00     0.150 A 
ENDROOT
BRANCH   1  14
HETATM   14  C2  UNL     1     -16.042 -26.207 -24.277  1.00  0.00     0.158 C 
BRANCH  14  15
HETATM   15  C1  UNL     1     -15.946 -27.058 -23.010  1.00  0.00     0.249 C 
BRANCH  15  16
HETATM   16  N1  UNL     1     -15.203 -26.388 -21.980  1.00  0.00    -0.078 N 
ATOM     17  H13 UNL     1     -14.936 -25.446 -22.266  1.00  0.00     0.274 HD
ATOM     18  H12 UNL     1     -15.798 -26.149 -21.186  1.00  0.00     0.274 HD
ATOM     19  H11 UNL     1     -14.393 -26.934 -21.687  1.00  0.00     0.274 HD
ENDBRANCH  15  16
ENDBRANCH  14  15
ENDBRANCH   1  14
BRANCH  12  20
HETATM   20  N5  UNL     1     -13.251 -26.266 -25.071  1.00  0.00    -0.333 N 
ATOM     21  H52 UNL     1     -13.406 -25.259 -25.110  1.00  0.00     0.177 HD
ATOM     22  H51 UNL     1     -12.783 -26.671 -24.261  1.00  0.00     0.177 HD
ENDBRANCH  12  20
TORSDOF 4
ENDMDL
MODEL 4
REMARK VINA RESULT: -6.333440528      1.632      1.875
REMARK  4 active torsions:
REMARK  status: ('A' for Active; 'I' for Inactive)
REMARK    1  A    between atoms: N1_1  and  C1_5 
REMARK    2  A    between atoms: C1_5  and  C2_6 
REMARK    3  A    between atoms: C2_6  and  N2_7 
REMARK    4  A    between atoms: N4_18  and  N5_19 
ROOT
HETATM    1  N2  UNL     1     -16.150 -28.491 -25.223  1.00  0.00    -0.323 N 
HETATM    2  C3  UNL     1     -17.049 -28.134 -26.190  1.00  0.00     0.085 A 
HETATM    3  S1  UNL     1     -18.751 -27.708 -25.900  1.00  0.00    -0.033 SA
HETATM    4  C4  UNL     1     -16.455 -28.152 -27.422  1.00  0.00     0.059 A 
HETATM    5  C5  UNL     1     -15.143 -28.534 -27.195  1.00  0.00     0.081 A 
HETATM    6  C6  UNL     1     -14.057 -28.730 -28.036  1.00  0.00     0.263 A 
HETATM    7  O1  UNL     1     -14.231 -28.540 -29.263  1.00  0.00    -0.267 OA
HETATM    8  N3  UNL     1     -12.888 -29.111 -27.491  1.00  0.00    -0.273 N 
ATOM      9  H3  UNL     1     -12.085 -29.258 -28.103  1.00  0.00     0.173 HD
HETATM   10  C7  UNL     1     -12.740 -29.305 -26.173  1.00  0.00     0.349 A 
HETATM   11  O2  UNL     1     -11.643 -29.660 -25.688  1.00  0.00    -0.244 OA
HETATM   12  N4  UNL     1     -13.802 -29.114 -25.339  1.00  0.00    -0.194 N 
HETATM   13  C8  UNL     1     -14.980 -28.736 -25.848  1.00  0.00     0.150 A 
ENDROOT
BRANCH   1  14
HETATM   14  C2  UNL     1     -16.473 -28.567 -23.828  1.00  0.00     0.158 C 
BRANCH  14  15
HETATM   15  C1  UNL     1     -16.315 -27.205 -23.150  1.00  0.00     0.249 C 
BRANCH  15  16
HETATM   16  N1  UNL     1     -15.532 -27.302 -21.950  1.00  0.00    -0.078 N 
ATOM     17  H13 UNL     1     -15.519 -26.419 -21.441  1.00  0.00     0.274 HD
ATOM     18  H12 UNL     1     -15.994 -27.882 -21.249  1.00  0.00     0.274 HD
ATOM     19  H11 UNL     1     -14.588 -27.635 -22.145  1.00  0.00     0.274 HD
ENDBRANCH  15  16
ENDBRANCH  14  15
ENDBRANCH   1  14
BRANCH  12  20
HETATM   20  N5  UNL     1     -13.671 -29.310 -23.968  1.00  0.00    -0.333 N 
ATOM     21  H52 UNL     1     -13.054 -30.042 -23.618  1.00  0.00     0.177 HD
ATOM     22  H51 UNL     1     -14.186 -28.728 -23.308  1.00  0.00     0.177 HD
ENDBRANCH  12  20
TORSDOF 4
ENDMDL
MODEL 5
REMARK VINA RESULT: -6.257050089      1.846      3.150
REMARK  4 active torsions:
REMARK  status: ('A' for Active; 'I' for Inactive)
REMARK    1  A    between atoms: N1_1  and  C1_5 
REMARK    2  A    between atoms: C1_5  and  C2_6 
REMARK    3  A    between atoms: C2_6  and  N2_7 
REMARK    4  A    between atoms: N4_18  and  N5_19 
ROOT
HETATM    1  N2  UNL     1     -15.117 -27.546 -26.452  1.00  0.00    -0.323 N 
HETATM    2  C3  UNL     1     -14.412 -26.867 -25.497  1.00  0.00     0.085 A 
HETATM    3  S1  UNL     1     -15.119 -26.065 -24.076  1.00  0.00    -0.033 SA
HETATM    4  C4  UNL     1     -13.075 -26.889 -25.788  1.00  0.00     0.059 A 
HETATM    5  C5  UNL     1     -12.964 -27.609 -26.966  1.00  0.00     0.081 A 
HETATM    6  C6  UNL     1     -11.880 -27.971 -27.754  1.00  0.00     0.263 A 
HETATM    7  O1  UNL     1     -10.743 -27.602 -27.380  1.00  0.00    -0.267 OA
HETATM    8  N3  UNL     1     -12.112 -28.691 -28.866  1.00  0.00    -0.273 N 
ATOM      9  H3  UNL     1     -11.321 -28.960 -29.451  1.00  0.00     0.173 HD
HETATM   10  C7  UNL     1     -13.344 -29.067 -29.234  1.00  0.00     0.349 A 
HETATM   11  O2  UNL     1     -13.536 -29.736 -30.273  1.00  0.00    -0.244 OA
HETATM   12  N4  UNL     1     -14.415 -28.716 -28.465  1.00  0.00    -0.194 N 
HETATM   13  C8  UNL     1     -14.222 -27.999 -27.352  1.00  0.00     0.150 A 
ENDROOT
BRANCH   1  14
HETATM   14  C2  UNL     1     -16.543 -27.699 -26.427  1.00  0.00     0.158 C 
BRANCH  14  15
HETATM   15  C1  UNL     1     -16.956 -28.875 -25.542  1.00  0.00     0.249 C 
BRANCH  15  16
HETATM   16  N1  UNL     1     -18.097 -29.563 -26.078  1.00  0.00    -0.078 N 
ATOM     17  H13 UNL     1     -17.895 -29.961 -26.995  1.00  0.00     0.274 HD
ATOM     18  H12 UNL     1     -18.285 -30.427 -25.569  1.00  0.00     0.274 HD
ATOM     19  H11 UNL     1     -18.919 -28.960 -26.105  1.00  0.00     0.274 HD
ENDBRANCH  15  16
ENDBRANCH  14  15
ENDBRANCH   1  14
BRANCH  12  20
HETATM   20  N5  UNL     1     -15.703 -29.095 -28.829  1.00  0.00    -0.333 N 
ATOM     21  H52 UNL     1     -16.031 -28.929 -29.781  1.00  0.00     0.177 HD
ATOM     22  H51 UNL     1     -16.325 -29.539 -28.154  1.00  0.00     0.177 HD
ENDBRANCH  12  20
TORSDOF 4
ENDMDL
