MODEL 1
REMARK VINA RESULT: -7.231914128      0.000      0.000
REMARK  4 active torsions:
REMARK  status: ('A' for Active; 'I' for Inactive)
REMARK    1  A    between atoms: N1_1  and  C1_4 
REMARK    2  A    between atoms: N5_16  and  C6_17 
REMARK    3  A    between atoms: C6_17  and  C7_18 
REMARK    4  A    between atoms: C7_18  and  C8_19 
ROOT
HETATM    1  C1  UNL     1     -11.376 -29.217 -25.944  1.00  0.00     0.134 A 
HETATM    2  N2  UNL     1     -10.914 -28.572 -27.023  1.00  0.00    -0.293 N 
ATOM      3  H2  UNL     1      -9.943 -28.683 -27.314  1.00  0.00     0.172 HD
HETATM    4  C2  UNL     1     -11.747 -27.775 -27.719  1.00  0.00     0.327 A 
HETATM    5  O1  UNL     1     -11.269 -27.190 -28.725  1.00  0.00    -0.247 OA
HETATM    6  N3  UNL     1     -13.029 -27.639 -27.322  1.00  0.00    -0.292 N 
ATOM      7  H3  UNL     1     -13.649 -27.033 -27.858  1.00  0.00     0.172 HD
HETATM    8  C3  UNL     1     -13.519 -28.279 -26.236  1.00  0.00     0.143 A 
HETATM    9  C4  UNL     1     -12.679 -29.099 -25.511  1.00  0.00     0.122 A 
HETATM   10  N4  UNL     1     -13.401 -29.610 -24.496  1.00  0.00    -0.346 N 
ATOM     11  H4  UNL     1     -13.043 -30.255 -23.791  1.00  0.00     0.167 HD
HETATM   12  C5  UNL     1     -14.662 -29.147 -24.548  1.00  0.00     0.185 A 
HETATM   13  N5  UNL     1     -14.708 -28.335 -25.621  1.00  0.00    -0.327 N 
ENDROOT
BRANCH  13  14
HETATM   14  C6  UNL     1     -15.883 -27.613 -26.061  1.00  0.00     0.137 C 
BRANCH  14  15
HETATM   15  C7  UNL     1     -16.752 -27.257 -24.895  1.00  0.00     0.078 C 
BRANCH  15  16
HETATM   16  C8  UNL     1     -16.383 -25.873 -24.441  1.00  0.00     0.027 A 
HETATM   17  C9  UNL     1     -17.200 -24.932 -23.872  1.00  0.00     0.114 A 
HETATM   18  N6  UNL     1     -16.465 -23.835 -23.619  1.00  0.00    -0.360 N 
HETATM   19  C10 UNL     1     -15.213 -24.068 -24.016  1.00  0.00     0.180 A 
ATOM     20  H6  UNL     1     -16.807 -22.972 -23.196  1.00  0.00     0.166 HD
HETATM   21  N7  UNL     1     -15.160 -25.320 -24.520  1.00  0.00    -0.355 N 
ATOM     22  H7  UNL     1     -14.328 -25.773 -24.899  1.00  0.00     0.166 HD
ENDBRANCH  15  16
ENDBRANCH  14  15
ENDBRANCH  13  14
BRANCH   1  23
HETATM   23  N1  UNL     1     -10.606 -30.003 -25.234  1.00  0.00    -0.383 N 
ATOM     24  H12 UNL     1      -9.622 -30.024 -25.502  1.00  0.00     0.157 HD
ATOM     25  H11 UNL     1     -10.976 -30.556 -24.462  1.00  0.00     0.157 HD
ENDBRANCH   1  23
TORSDOF 4
ENDMDL
MODEL 2
REMARK VINA RESULT: -7.228495522      2.117      2.871
REMARK  4 active torsions:
REMARK  status: ('A' for Active; 'I' for Inactive)
REMARK    1  A    between atoms: N1_1  and  C1_4 
REMARK    2  A    between atoms: N5_16  and  C6_17 
REMARK    3  A    between atoms: C6_17  and  C7_18 
REMARK    4  A    between atoms: C7_18  and  C8_19 
ROOT
HETATM    1  C1  UNL     1     -11.436 -29.315 -25.952  1.00  0.00     0.134 A 
HETATM    2  N2  UNL     1     -10.970 -28.715 -27.055  1.00  0.00    -0.293 N 
ATOM      3  H2  UNL     1     -10.012 -28.877 -27.365  1.00  0.00     0.172 HD
HETATM    4  C2  UNL     1     -11.781 -27.894 -27.749  1.00  0.00     0.327 A 
HETATM    5  O1  UNL     1     -11.299 -27.353 -28.778  1.00  0.00    -0.247 OA
HETATM    6  N3  UNL     1     -13.045 -27.689 -27.327  1.00  0.00    -0.292 N 
ATOM      7  H3  UNL     1     -13.649 -27.066 -27.862  1.00  0.00     0.172 HD
HETATM    8  C3  UNL     1     -13.539 -28.282 -26.216  1.00  0.00     0.143 A 
HETATM    9  C4  UNL     1     -12.722 -29.126 -25.493  1.00  0.00     0.122 A 
HETATM   10  N4  UNL     1     -13.442 -29.582 -24.450  1.00  0.00    -0.346 N 
ATOM     11  H4  UNL     1     -13.098 -30.228 -23.740  1.00  0.00     0.167 HD
HETATM   12  C5  UNL     1     -14.681 -29.061 -24.484  1.00  0.00     0.185 A 
HETATM   13  N5  UNL     1     -14.714 -28.270 -25.573  1.00  0.00    -0.327 N 
ENDROOT
BRANCH  13  14
HETATM   14  C6  UNL     1     -15.865 -27.503 -26.003  1.00  0.00     0.137 C 
BRANCH  14  15
HETATM   15  C7  UNL     1     -16.663 -28.269 -27.012  1.00  0.00     0.078 C 
BRANCH  15  16
HETATM   16  C8  UNL     1     -18.115 -28.166 -26.636  1.00  0.00     0.027 A 
HETATM   17  C9  UNL     1     -19.160 -28.906 -27.122  1.00  0.00     0.114 A 
HETATM   18  N6  UNL     1     -20.287 -28.490 -26.518  1.00  0.00    -0.360 N 
HETATM   19  C10 UNL     1     -19.970 -27.511 -25.669  1.00  0.00     0.180 A 
ATOM     20  H6  UNL     1     -21.223 -28.861 -26.680  1.00  0.00     0.166 HD
HETATM   21  N7  UNL     1     -18.636 -27.311 -25.740  1.00  0.00    -0.355 N 
ATOM     22  H7  UNL     1     -18.109 -26.623 -25.201  1.00  0.00     0.166 HD
ENDBRANCH  15  16
ENDBRANCH  14  15
ENDBRANCH  13  14
BRANCH   1  23
HETATM   23  N1  UNL     1     -10.687 -30.121 -25.242  1.00  0.00    -0.383 N 
ATOM     24  H12 UNL     1     -10.753 -30.014 -24.230  1.00  0.00     0.157 HD
ATOM     25  H11 UNL     1     -10.078 -30.810 -25.683  1.00  0.00     0.157 HD
ENDBRANCH   1  23
TORSDOF 4
ENDMDL
MODEL 3
REMARK VINA RESULT: -7.214023608      2.106      3.458
REMARK  4 active torsions:
REMARK  status: ('A' for Active; 'I' for Inactive)
REMARK    1  A    between atoms: N1_1  and  C1_4 
REMARK    2  A    between atoms: N5_16  and  C6_17 
REMARK    3  A    between atoms: C6_17  and  C7_18 
REMARK    4  A    between atoms: C7_18  and  C8_19 
ROOT
HETATM    1  C1  UNL     1     -11.563 -29.320 -25.906  1.00  0.00     0.134 A 
HETATM    2  N2  UNL     1     -11.072 -28.760 -27.019  1.00  0.00    -0.293 N 
ATOM      3  H2  UNL     1     -10.110 -28.941 -27.306  1.00  0.00     0.172 HD
HETATM    4  C2  UNL     1     -11.863 -27.956 -27.754  1.00  0.00     0.327 A 
HETATM    5  O1  UNL     1     -11.358 -27.454 -28.791  1.00  0.00    -0.247 OA
HETATM    6  N3  UNL     1     -13.132 -27.727 -27.362  1.00  0.00    -0.292 N 
ATOM      7  H3  UNL     1     -13.721 -27.117 -27.928  1.00  0.00     0.172 HD
HETATM    8  C3  UNL     1     -13.651 -28.279 -26.241  1.00  0.00     0.143 A 
HETATM    9  C4  UNL     1     -12.855 -29.106 -25.476  1.00  0.00     0.122 A 
HETATM   10  N4  UNL     1     -13.598 -29.521 -24.433  1.00  0.00    -0.346 N 
ATOM     11  H4  UNL     1     -13.273 -30.146 -23.695  1.00  0.00     0.167 HD
HETATM   12  C5  UNL     1     -14.831 -28.991 -24.506  1.00  0.00     0.185 A 
HETATM   13  N5  UNL     1     -14.838 -28.236 -25.620  1.00  0.00    -0.327 N 
ENDROOT
BRANCH  13  14
HETATM   14  C6  UNL     1     -15.973 -27.474 -26.096  1.00  0.00     0.137 C 
BRANCH  14  15
HETATM   15  C7  UNL     1     -17.255 -28.078 -25.612  1.00  0.00     0.078 C 
BRANCH  15  16
HETATM   16  C8  UNL     1     -17.810 -28.941 -26.709  1.00  0.00     0.027 A 
HETATM   17  C9  UNL     1     -18.675 -29.997 -26.588  1.00  0.00     0.114 A 
HETATM   18  N6  UNL     1     -18.915 -30.487 -27.816  1.00  0.00    -0.360 N 
HETATM   19  C10 UNL     1     -18.222 -29.765 -28.698  1.00  0.00     0.180 A 
ATOM     20  H6  UNL     1     -19.522 -31.277 -28.036  1.00  0.00     0.166 HD
HETATM   21  N7  UNL     1     -17.543 -28.814 -28.020  1.00  0.00    -0.355 N 
ATOM     22  H7  UNL     1     -16.929 -28.113 -28.435  1.00  0.00     0.166 HD
ENDBRANCH  15  16
ENDBRANCH  14  15
ENDBRANCH  13  14
BRANCH   1  23
HETATM   23  N1  UNL     1     -10.834 -30.109 -25.156  1.00  0.00    -0.383 N 
ATOM     24  H12 UNL     1     -10.776 -31.082 -25.458  1.00  0.00     0.157 HD
ATOM     25  H11 UNL     1     -10.357 -29.764 -24.324  1.00  0.00     0.157 HD
ENDBRANCH   1  23
TORSDOF 4
ENDMDL
MODEL 4
REMARK VINA RESULT: -7.118840494      2.655      3.912
REMARK  4 active torsions:
REMARK  status: ('A' for Active; 'I' for Inactive)
REMARK    1  A    between atoms: N1_1  and  C1_4 
REMARK    2  A    between atoms: N5_16  and  C6_17 
REMARK    3  A    between atoms: C6_17  and  C7_18 
REMARK    4  A    between atoms: C7_18  and  C8_19 
ROOT
HETATM    1  C1  UNL     1     -11.876 -27.475 -26.006  1.00  0.00     0.134 A 
HETATM    2  N2  UNL     1     -11.330 -27.817 -27.181  1.00  0.00    -0.293 N 
ATOM      3  H2  UNL     1     -10.318 -27.789 -27.307  1.00  0.00     0.172 HD
HETATM    4  C2  UNL     1     -12.133 -28.198 -28.193  1.00  0.00     0.327 A 
HETATM    5  O1  UNL     1     -11.575 -28.510 -29.276  1.00  0.00    -0.247 OA
HETATM    6  N3  UNL     1     -13.468 -28.230 -28.010  1.00  0.00    -0.292 N 
ATOM      7  H3  UNL     1     -14.065 -28.520 -28.785  1.00  0.00     0.172 HD
HETATM    8  C3  UNL     1     -14.044 -27.888 -26.835  1.00  0.00     0.143 A 
HETATM    9  C4  UNL     1     -13.236 -27.496 -25.787  1.00  0.00     0.122 A 
HETATM   10  N4  UNL     1     -14.043 -27.215 -24.746  1.00  0.00    -0.346 N 
ATOM     11  H4  UNL     1     -13.726 -26.899 -23.830  1.00  0.00     0.167 HD
HETATM   12  C5  UNL     1     -15.327 -27.413 -25.091  1.00  0.00     0.185 A 
HETATM   13  N5  UNL     1     -15.300 -27.825 -26.373  1.00  0.00    -0.327 N 
ENDROOT
BRANCH  13  14
HETATM   14  C6  UNL     1     -16.470 -28.158 -27.159  1.00  0.00     0.137 C 
BRANCH  14  15
HETATM   15  C7  UNL     1     -17.715 -28.011 -26.340  1.00  0.00     0.078 C 
BRANCH  15  16
HETATM   16  C8  UNL     1     -18.433 -29.331 -26.340  1.00  0.00     0.027 A 
HETATM   17  C9  UNL     1     -18.872 -30.046 -25.256  1.00  0.00     0.114 A 
HETATM   18  N6  UNL     1     -19.463 -31.168 -25.703  1.00  0.00    -0.360 N 
HETATM   19  C10 UNL     1     -19.402 -31.170 -27.036  1.00  0.00     0.180 A 
ATOM     20  H6  UNL     1     -19.885 -31.892 -25.123  1.00  0.00     0.166 HD
HETATM   21  N7  UNL     1     -18.770 -30.043 -27.429  1.00  0.00    -0.355 N 
ATOM     22  H7  UNL     1     -18.580 -29.775 -28.395  1.00  0.00     0.166 HD
ENDBRANCH  15  16
ENDBRANCH  14  15
ENDBRANCH  13  14
BRANCH   1  23
HETATM   23  N1  UNL     1     -11.139 -27.098 -24.992  1.00  0.00    -0.383 N 
ATOM     24  H12 UNL     1     -10.500 -27.801 -24.619  1.00  0.00     0.157 HD
ATOM     25  H11 UNL     1     -11.206 -26.157 -24.604  1.00  0.00     0.157 HD
ENDBRANCH   1  23
TORSDOF 4
ENDMDL
MODEL 5
REMARK VINA RESULT: -7.094904409      1.950      2.542
REMARK  4 active torsions:
REMARK  status: ('A' for Active; 'I' for Inactive)
REMARK    1  A    between atoms: N1_1  and  C1_4 
REMARK    2  A    between atoms: N5_16  and  C6_17 
REMARK    3  A    between atoms: C6_17  and  C7_18 
REMARK    4  A    between atoms: C7_18  and  C8_19 
ROOT
HETATM    1  C1  UNL     1     -11.869 -28.772 -27.933  1.00  0.00     0.134 A 
HETATM    2  N2  UNL     1     -10.723 -28.789 -27.240  1.00  0.00    -0.293 N 
ATOM      3  H2  UNL     1      -9.849 -29.054 -27.694  1.00  0.00     0.172 HD
HETATM    4  C2  UNL     1     -10.739 -28.453 -25.936  1.00  0.00     0.327 A 
HETATM    5  O1  UNL     1      -9.638 -28.484 -25.327  1.00  0.00    -0.247 OA
HETATM    6  N3  UNL     1     -11.902 -28.104 -25.350  1.00  0.00    -0.292 N 
ATOM      7  H3  UNL     1     -11.899 -27.851 -24.362  1.00  0.00     0.172 HD
HETATM    8  C3  UNL     1     -13.072 -28.079 -26.027  1.00  0.00     0.143 A 
HETATM    9  C4  UNL     1     -13.074 -28.421 -27.364  1.00  0.00     0.122 A 
HETATM   10  N4  UNL     1     -14.344 -28.316 -27.800  1.00  0.00    -0.346 N 
ATOM     11  H4  UNL     1     -14.653 -28.507 -28.753  1.00  0.00     0.167 HD
HETATM   12  C5  UNL     1     -15.145 -27.922 -26.794  1.00  0.00     0.185 A 
HETATM   13  N5  UNL     1     -14.343 -27.784 -25.722  1.00  0.00    -0.327 N 
ENDROOT
BRANCH  13  14
HETATM   14  C6  UNL     1     -14.785 -27.372 -24.406  1.00  0.00     0.137 C 
BRANCH  14  15
HETATM   15  C7  UNL     1     -15.300 -25.966 -24.439  1.00  0.00     0.078 C 
BRANCH  15  16
HETATM   16  C8  UNL     1     -15.232 -25.409 -23.045  1.00  0.00     0.027 A 
HETATM   17  C9  UNL     1     -15.388 -24.105 -22.655  1.00  0.00     0.114 A 
HETATM   18  N6  UNL     1     -15.252 -24.046 -21.319  1.00  0.00    -0.360 N 
HETATM   19  C10 UNL     1     -15.014 -25.279 -20.868  1.00  0.00     0.180 A 
ATOM     20  H6  UNL     1     -15.319 -23.203 -20.749  1.00  0.00     0.166 HD
HETATM   21  N7  UNL     1     -15.002 -26.118 -21.926  1.00  0.00    -0.355 N 
ATOM     22  H7  UNL     1     -14.845 -27.125 -21.884  1.00  0.00     0.166 HD
ENDBRANCH  15  16
ENDBRANCH  14  15
ENDBRANCH  13  14
BRANCH   1  23
HETATM   23  N1  UNL     1     -11.907 -29.091 -29.203  1.00  0.00    -0.383 N 
ATOM     24  H12 UNL     1     -11.363 -28.496 -29.828  1.00  0.00     0.157 HD
ATOM     25  H11 UNL     1     -12.450 -29.886 -29.537  1.00  0.00     0.157 HD
ENDBRANCH   1  23
TORSDOF 4
ENDMDL
