MODEL 1
REMARK VINA RESULT: -7.580787024      0.000      0.000
REMARK  5 active torsions:
REMARK  status: ('A' for Active; 'I' for Inactive)
REMARK    1  A    between atoms: N1_1  and  N2_4 
REMARK       I    between atoms: N2_4  and  C1_6 
REMARK    2  A    between atoms: C1_6  and  C2_8 
REMARK    3  A    between atoms: C6_12  and  C7_13 
REMARK    4  A    between atoms: N3_14  and  N4_16 
REMARK    5  A    between atoms: N4_16  and  C8_18 
ROOT
HETATM    1  C2  UNL     1     -15.788 -25.874 -21.960  1.00  0.00     0.034 A 
HETATM    2  C3  UNL     1     -17.162 -25.911 -21.917  1.00  0.00     0.017 A 
HETATM    3  C4  UNL     1     -17.926 -26.805 -22.639  1.00  0.00     0.002 A 
HETATM    4  C5  UNL     1     -17.271 -27.721 -23.458  1.00  0.00     0.013 A 
HETATM    5  C6  UNL     1     -15.896 -27.713 -23.525  1.00  0.00    -0.018 A 
HETATM    6  C11 UNL     1     -15.157 -26.787 -22.775  1.00  0.00     0.030 A 
ENDROOT
BRANCH   5   7
HETATM    7  C7  UNL     1     -15.209 -28.667 -24.378  1.00  0.00     0.118 C 
HETATM    8  N3  UNL     1     -14.036 -29.058 -24.039  1.00  0.00    -0.308 N 
ATOM      9  H3  UNL     1     -13.602 -28.701 -23.188  1.00  0.00     0.186 HD
BRANCH   8  10
HETATM   10  N4  UNL     1     -13.361 -29.968 -24.835  1.00  0.00    -0.272 N 
ATOM     11  H4  UNL     1     -13.635 -30.951 -24.847  1.00  0.00     0.190 HD
BRANCH  10  12
HETATM   12  C8  UNL     1     -12.263 -29.503 -25.647  1.00  0.00     0.190 C 
HETATM   13  N5  UNL     1     -12.330 -29.016 -26.831  1.00  0.00    -0.360 N 
HETATM   14  C9  UNL     1     -11.045 -28.642 -27.370  1.00  0.00     0.142 C 
ATOM     15  H5  UNL     1     -13.206 -28.904 -27.341  1.00  0.00     0.162 HD
HETATM   16  C10 UNL     1     -10.094 -28.731 -26.195  1.00  0.00     0.142 C 
HETATM   17  N6  UNL     1     -10.895 -29.504 -25.266  1.00  0.00    -0.360 N 
ATOM     18  H6  UNL     1     -10.525 -29.984 -24.446  1.00  0.00     0.162 HD
ENDBRANCH  10  12
ENDBRANCH   8  10
ENDBRANCH   5   7
BRANCH   1  19
HETATM   19  C1  UNL     1     -15.038 -24.908 -21.175  1.00  0.00     0.269 C 
HETATM   20  N2  UNL     1     -14.044 -25.280 -20.258  1.00  0.00    -0.272 N 
ATOM     21  H2  UNL     1     -13.826 -26.268 -20.126  1.00  0.00     0.189 HD
HETATM   22  O1  UNL     1     -15.296 -23.671 -21.327  1.00  0.00    -0.266 OA
BRANCH  20  23
HETATM   23  N1  UNL     1     -13.341 -24.310 -19.518  1.00  0.00    -0.342 N 
ATOM     24  H12 UNL     1     -13.366 -24.363 -18.499  1.00  0.00     0.176 HD
ATOM     25  H11 UNL     1     -12.819 -23.570 -19.986  1.00  0.00     0.176 HD
ENDBRANCH  20  23
ENDBRANCH   1  19
TORSDOF 5
ENDMDL
MODEL 2
REMARK VINA RESULT: -7.408871802      4.626      6.423
REMARK  5 active torsions:
REMARK  status: ('A' for Active; 'I' for Inactive)
REMARK    1  A    between atoms: N1_1  and  N2_4 
REMARK       I    between atoms: N2_4  and  C1_6 
REMARK    2  A    between atoms: C1_6  and  C2_8 
REMARK    3  A    between atoms: C6_12  and  C7_13 
REMARK    4  A    between atoms: N3_14  and  N4_16 
REMARK    5  A    between atoms: N4_16  and  C8_18 
ROOT
HETATM    1  C2  UNL     1     -13.287 -27.331 -26.095  1.00  0.00     0.034 A 
HETATM    2  C3  UNL     1     -13.717 -26.507 -25.080  1.00  0.00     0.017 A 
HETATM    3  C4  UNL     1     -15.047 -26.285 -24.788  1.00  0.00     0.002 A 
HETATM    4  C5  UNL     1     -16.009 -26.929 -25.562  1.00  0.00     0.013 A 
HETATM    5  C6  UNL     1     -15.614 -27.760 -26.586  1.00  0.00    -0.018 A 
HETATM    6  C11 UNL     1     -14.252 -27.958 -26.850  1.00  0.00     0.030 A 
ENDROOT
BRANCH   5   7
HETATM    7  C7  UNL     1     -16.614 -28.433 -27.396  1.00  0.00     0.118 C 
HETATM    8  N3  UNL     1     -17.851 -28.295 -27.082  1.00  0.00    -0.308 N 
ATOM      9  H3  UNL     1     -18.115 -27.724 -26.280  1.00  0.00     0.186 HD
BRANCH   8  10
HETATM   10  N4  UNL     1     -18.824 -28.926 -27.839  1.00  0.00    -0.272 N 
ATOM     11  H4  UNL     1     -19.526 -28.381 -28.340  1.00  0.00     0.190 HD
BRANCH  10  12
HETATM   12  C8  UNL     1     -18.827 -30.367 -27.907  1.00  0.00     0.190 C 
HETATM   13  N5  UNL     1     -19.099 -31.185 -26.958  1.00  0.00    -0.360 N 
HETATM   14  C9  UNL     1     -19.014 -32.570 -27.353  1.00  0.00     0.142 C 
ATOM     15  H5  UNL     1     -19.352 -30.885 -26.017  1.00  0.00     0.162 HD
HETATM   16  C10 UNL     1     -18.878 -32.533 -28.861  1.00  0.00     0.142 C 
HETATM   17  N6  UNL     1     -18.524 -31.140 -29.059  1.00  0.00    -0.360 N 
ATOM     18  H6  UNL     1     -18.113 -30.766 -29.914  1.00  0.00     0.162 HD
ENDBRANCH  10  12
ENDBRANCH   8  10
ENDBRANCH   5   7
BRANCH   1  19
HETATM   19  C1  UNL     1     -11.870 -27.525 -26.354  1.00  0.00     0.269 C 
HETATM   20  N2  UNL     1     -10.959 -27.899 -25.356  1.00  0.00    -0.272 N 
ATOM     21  H2  UNL     1     -11.290 -28.046 -24.403  1.00  0.00     0.189 HD
HETATM   22  O1  UNL     1     -11.440 -27.346 -27.538  1.00  0.00    -0.266 OA
BRANCH  20  23
HETATM   23  N1  UNL     1      -9.593 -28.076 -25.651  1.00  0.00    -0.342 N 
ATOM     24  H12 UNL     1      -9.249 -27.772 -26.562  1.00  0.00     0.176 HD
ATOM     25  H11 UNL     1      -8.961 -28.500 -24.973  1.00  0.00     0.176 HD
ENDBRANCH  20  23
ENDBRANCH   1  19
TORSDOF 5
ENDMDL
MODEL 3
REMARK VINA RESULT: -7.371467815      4.844      7.665
REMARK  5 active torsions:
REMARK  status: ('A' for Active; 'I' for Inactive)
REMARK    1  A    between atoms: N1_1  and  N2_4 
REMARK       I    between atoms: N2_4  and  C1_6 
REMARK    2  A    between atoms: C1_6  and  C2_8 
REMARK    3  A    between atoms: C6_12  and  C7_13 
REMARK    4  A    between atoms: N3_14  and  N4_16 
REMARK    5  A    between atoms: N4_16  and  C8_18 
ROOT
HETATM    1  C2  UNL     1     -13.614 -27.989 -27.471  1.00  0.00     0.034 A 
HETATM    2  C3  UNL     1     -12.862 -27.206 -26.626  1.00  0.00     0.017 A 
HETATM    3  C4  UNL     1     -13.381 -26.547 -25.530  1.00  0.00     0.002 A 
HETATM    4  C5  UNL     1     -14.741 -26.679 -25.265  1.00  0.00     0.013 A 
HETATM    5  C6  UNL     1     -15.524 -27.456 -26.090  1.00  0.00    -0.018 A 
HETATM    6  C11 UNL     1     -14.956 -28.109 -27.193  1.00  0.00     0.030 A 
ENDROOT
BRANCH   5   7
HETATM    7  C7  UNL     1     -16.943 -27.596 -25.816  1.00  0.00     0.118 C 
HETATM    8  N3  UNL     1     -17.710 -28.020 -26.753  1.00  0.00    -0.308 N 
ATOM      9  H3  UNL     1     -17.322 -28.250 -27.668  1.00  0.00     0.186 HD
BRANCH   8  10
HETATM   10  N4  UNL     1     -19.066 -28.163 -26.516  1.00  0.00    -0.272 N 
ATOM     11  H4  UNL     1     -19.632 -27.361 -26.237  1.00  0.00     0.190 HD
BRANCH  10  12
HETATM   12  C8  UNL     1     -19.666 -29.466 -26.670  1.00  0.00     0.190 C 
HETATM   13  N5  UNL     1     -20.851 -29.816 -26.329  1.00  0.00    -0.360 N 
HETATM   14  C9  UNL     1     -21.147 -31.197 -26.621  1.00  0.00     0.142 C 
ATOM     15  H5  UNL     1     -21.519 -29.179 -25.894  1.00  0.00     0.162 HD
HETATM   16  C10 UNL     1     -19.993 -31.664 -27.484  1.00  0.00     0.142 C 
HETATM   17  N6  UNL     1     -19.035 -30.604 -27.237  1.00  0.00    -0.360 N 
ATOM     18  H6  UNL     1     -18.038 -30.668 -27.444  1.00  0.00     0.162 HD
ENDBRANCH  10  12
ENDBRANCH   8  10
ENDBRANCH   5   7
BRANCH   1  19
HETATM   19  C1  UNL     1     -13.008 -28.660 -28.610  1.00  0.00     0.269 C 
HETATM   20  N2  UNL     1     -13.686 -29.620 -29.375  1.00  0.00    -0.272 N 
ATOM     21  H2  UNL     1     -14.646 -29.869 -29.134  1.00  0.00     0.189 HD
HETATM   22  O1  UNL     1     -11.812 -28.361 -28.924  1.00  0.00    -0.266 OA
BRANCH  20  23
HETATM   23  N1  UNL     1     -13.062 -30.245 -30.471  1.00  0.00    -0.342 N 
ATOM     24  H12 UNL     1     -13.283 -29.916 -31.411  1.00  0.00     0.176 HD
ATOM     25  H11 UNL     1     -12.402 -31.011 -30.332  1.00  0.00     0.176 HD
ENDBRANCH  20  23
ENDBRANCH   1  19
TORSDOF 5
ENDMDL
MODEL 4
REMARK VINA RESULT: -7.367242201      2.973      6.465
REMARK  5 active torsions:
REMARK  status: ('A' for Active; 'I' for Inactive)
REMARK    1  A    between atoms: N1_1  and  N2_4 
REMARK       I    between atoms: N2_4  and  C1_6 
REMARK    2  A    between atoms: C1_6  and  C2_8 
REMARK    3  A    between atoms: C6_12  and  C7_13 
REMARK    4  A    between atoms: N3_14  and  N4_16 
REMARK    5  A    between atoms: N4_16  and  C8_18 
ROOT
HETATM    1  C2  UNL     1     -13.145 -27.833 -26.862  1.00  0.00     0.034 A 
HETATM    2  C3  UNL     1     -13.961 -28.406 -27.810  1.00  0.00     0.017 A 
HETATM    3  C4  UNL     1     -15.339 -28.409 -27.732  1.00  0.00     0.002 A 
HETATM    4  C5  UNL     1     -15.938 -27.799 -26.633  1.00  0.00     0.013 A 
HETATM    5  C6  UNL     1     -15.151 -27.216 -25.665  1.00  0.00    -0.018 A 
HETATM    6  C11 UNL     1     -13.755 -27.235 -25.783  1.00  0.00     0.030 A 
ENDROOT
BRANCH   5   7
HETATM    7  C7  UNL     1     -15.773 -26.579 -24.517  1.00  0.00     0.118 C 
HETATM    8  N3  UNL     1     -15.354 -26.884 -23.344  1.00  0.00    -0.308 N 
ATOM      9  H3  UNL     1     -14.599 -27.561 -23.230  1.00  0.00     0.186 HD
BRANCH   8  10
HETATM   10  N4  UNL     1     -15.930 -26.290 -22.234  1.00  0.00    -0.272 N 
ATOM     11  H4  UNL     1     -16.939 -26.332 -22.088  1.00  0.00     0.190 HD
BRANCH  10  12
HETATM   12  C8  UNL     1     -15.079 -25.611 -21.288  1.00  0.00     0.190 C 
HETATM   13  N5  UNL     1     -14.273 -26.149 -20.449  1.00  0.00    -0.360 N 
HETATM   14  C9  UNL     1     -13.562 -25.189 -19.641  1.00  0.00     0.142 C 
ATOM     15  H5  UNL     1     -14.146 -27.157 -20.363  1.00  0.00     0.162 HD
HETATM   16  C10 UNL     1     -13.857 -23.850 -20.286  1.00  0.00     0.142 C 
HETATM   17  N6  UNL     1     -14.987 -24.204 -21.122  1.00  0.00    -0.360 N 
ATOM     18  H6  UNL     1     -15.631 -23.530 -21.536  1.00  0.00     0.162 HD
ENDBRANCH  10  12
ENDBRANCH   8  10
ENDBRANCH   5   7
BRANCH   1  19
HETATM   19  C1  UNL     1     -11.698 -27.862 -27.001  1.00  0.00     0.269 C 
HETATM   20  N2  UNL     1     -10.835 -28.080 -25.917  1.00  0.00    -0.272 N 
ATOM     21  H2  UNL     1     -11.224 -28.227 -24.986  1.00  0.00     0.189 HD
HETATM   22  O1  UNL     1     -11.196 -27.680 -28.155  1.00  0.00    -0.266 OA
BRANCH  20  23
HETATM   23  N1  UNL     1      -9.438 -28.100 -26.096  1.00  0.00    -0.342 N 
ATOM     24  H12 UNL     1      -9.067 -28.406 -26.996  1.00  0.00     0.176 HD
ATOM     25  H11 UNL     1      -8.809 -27.817 -25.345  1.00  0.00     0.176 HD
ENDBRANCH  20  23
ENDBRANCH   1  19
TORSDOF 5
ENDMDL
MODEL 5
REMARK VINA RESULT: -7.339000317      3.436      7.053
REMARK  5 active torsions:
REMARK  status: ('A' for Active; 'I' for Inactive)
REMARK    1  A    between atoms: N1_1  and  N2_4 
REMARK       I    between atoms: N2_4  and  C1_6 
REMARK    2  A    between atoms: C1_6  and  C2_8 
REMARK    3  A    between atoms: C6_12  and  C7_13 
REMARK    4  A    between atoms: N3_14  and  N4_16 
REMARK    5  A    between atoms: N4_16  and  C8_18 
ROOT
HETATM    1  C2  UNL     1     -15.151 -28.565 -27.926  1.00  0.00     0.034 A 
HETATM    2  C3  UNL     1     -16.441 -28.786 -28.351  1.00  0.00     0.017 A 
HETATM    3  C4  UNL     1     -17.555 -28.531 -27.577  1.00  0.00     0.002 A 
HETATM    4  C5  UNL     1     -17.364 -28.022 -26.295  1.00  0.00     0.013 A 
HETATM    5  C6  UNL     1     -16.086 -27.789 -25.837  1.00  0.00    -0.018 A 
HETATM    6  C11 UNL     1     -14.982 -28.062 -26.656  1.00  0.00     0.030 A 
ENDROOT
BRANCH   5   7
HETATM    7  C7  UNL     1     -15.884 -27.259 -24.501  1.00  0.00     0.118 C 
HETATM    8  N3  UNL     1     -15.790 -28.082 -23.522  1.00  0.00    -0.308 N 
ATOM      9  H3  UNL     1     -15.857 -29.086 -23.688  1.00  0.00     0.186 HD
BRANCH   8  10
HETATM   10  N4  UNL     1     -15.596 -27.601 -22.238  1.00  0.00    -0.272 N 
ATOM     11  H4  UNL     1     -15.370 -28.238 -21.474  1.00  0.00     0.190 HD
BRANCH  10  12
HETATM   12  C8  UNL     1     -15.721 -26.183 -22.000  1.00  0.00     0.190 C 
HETATM   13  N5  UNL     1     -14.771 -25.352 -21.774  1.00  0.00    -0.360 N 
HETATM   14  C9  UNL     1     -15.230 -23.999 -21.577  1.00  0.00     0.142 C 
ATOM     15  H5  UNL     1     -13.788 -25.621 -21.738  1.00  0.00     0.162 HD
HETATM   16  C10 UNL     1     -16.691 -24.025 -21.977  1.00  0.00     0.142 C 
HETATM   17  N6  UNL     1     -16.938 -25.454 -21.975  1.00  0.00    -0.360 N 
ATOM     18  H6  UNL     1     -17.866 -25.878 -21.959  1.00  0.00     0.162 HD
ENDBRANCH  10  12
ENDBRANCH   8  10
ENDBRANCH   5   7
BRANCH   1  19
HETATM   19  C1  UNL     1     -14.017 -28.854 -28.789  1.00  0.00     0.269 C 
HETATM   20  N2  UNL     1     -13.969 -29.973 -29.633  1.00  0.00    -0.272 N 
ATOM     21  H2  UNL     1     -14.757 -30.621 -29.653  1.00  0.00     0.189 HD
HETATM   22  O1  UNL     1     -13.026 -28.056 -28.776  1.00  0.00    -0.266 OA
BRANCH  20  23
HETATM   23  N1  UNL     1     -12.851 -30.215 -30.452  1.00  0.00    -0.342 N 
ATOM     24  H12 UNL     1     -12.671 -31.170 -30.762  1.00  0.00     0.176 HD
ATOM     25  H11 UNL     1     -12.231 -29.455 -30.732  1.00  0.00     0.176 HD
ENDBRANCH  20  23
ENDBRANCH   1  19
TORSDOF 5
ENDMDL
