MODEL 1
REMARK VINA RESULT: -8.063366586      0.000      0.000
REMARK  18 active torsions:
REMARK  status: ('A' for Active; 'I' for Inactive)
REMARK    1  A    between atoms: N1_1  and  C1_5 
REMARK    2  A    between atoms: C1_5  and  C2_6 
REMARK    3  A    between atoms: C2_6  and  C3_7 
REMARK    4  A    between atoms: C3_7  and  C4_8 
REMARK    5  A    between atoms: C4_8  and  C5_9 
REMARK    6  A    between atoms: C5_9  and  C6_10 
REMARK    7  A    between atoms: C6_10  and  C7_11 
REMARK    8  A    between atoms: C7_11  and  C8_12 
REMARK    9  A    between atoms: C8_12  and  C9_13 
REMARK   10  A    between atoms: C9_13  and  C10_14 
REMARK   11  A    between atoms: C10_14  and  C11_15 
REMARK   12  A    between atoms: C11_15  and  C12_16 
REMARK   13  A    between atoms: C12_16  and  C13_17 
REMARK   14  A    between atoms: C13_17  and  C14_18 
REMARK   15  A    between atoms: C14_18  and  C15_19 
REMARK   16  A    between atoms: C15_19  and  C16_20 
REMARK   17  A    between atoms: C16_20  and  C17_21 
REMARK   18  A    between atoms: C17_21  and  N2_22 
ROOT
HETATM    1  C11 UNL     1     -15.094   4.893  -0.079  1.00  0.00     0.000 C 
ENDROOT
BRANCH   1   2
HETATM    2  C10 UNL     1     -14.698   4.079   1.071  1.00  0.00     0.000 C 
BRANCH   2   3
HETATM    3  C9  UNL     1     -14.981   2.628   1.127  1.00  0.00     0.000 C 
BRANCH   3   4
HETATM    4  C8  UNL     1     -16.312   2.288   1.764  1.00  0.00     0.000 C 
BRANCH   4   5
HETATM    5  C7  UNL     1     -16.117   2.322   3.273  1.00  0.00     0.000 C 
BRANCH   5   6
HETATM    6  C6  UNL     1     -15.754   0.918   3.693  1.00  0.00     0.000 C 
BRANCH   6   7
HETATM    7  C5  UNL     1     -16.937   0.243   4.350  1.00  0.00     0.000 C 
BRANCH   7   8
HETATM    8  C4  UNL     1     -16.512  -0.509   5.594  1.00  0.00     0.000 C 
BRANCH   8   9
HETATM    9  C3  UNL     1     -15.458  -1.542   5.300  1.00  0.00     0.002 C 
BRANCH   9  10
HETATM   10  C2  UNL     1     -16.069  -2.901   5.088  1.00  0.00     0.027 C 
BRANCH  10  11
HETATM   11  C1  UNL     1     -15.104  -4.015   5.432  1.00  0.00     0.229 C 
BRANCH  11  12
HETATM   12  N1  UNL     1     -13.773  -3.529   5.655  1.00  0.00    -0.079 N 
ATOM     13  H13 UNL     1     -13.775  -2.531   5.867  1.00  0.00     0.274 HD
ATOM     14  H12 UNL     1     -13.394  -3.881   6.534  1.00  0.00     0.274 HD
ATOM     15  H11 UNL     1     -13.152  -3.739   4.874  1.00  0.00     0.274 HD
ENDBRANCH  11  12
ENDBRANCH  10  11
ENDBRANCH   9  10
ENDBRANCH   8   9
ENDBRANCH   7   8
ENDBRANCH   6   7
ENDBRANCH   5   6
ENDBRANCH   4   5
ENDBRANCH   3   4
ENDBRANCH   2   3
ENDBRANCH   1   2
BRANCH   1  16
HETATM   16  C12 UNL     1     -14.627   6.272  -0.226  1.00  0.00     0.000 C 
BRANCH  16  17
HETATM   17  C13 UNL     1     -13.602   6.613  -1.233  1.00  0.00     0.000 C 
BRANCH  17  18
HETATM   18  C14 UNL     1     -13.337   5.452  -2.197  1.00  0.00     0.001 C 
BRANCH  18  19
HETATM   19  C15 UNL     1     -11.979   4.903  -1.961  1.00  0.00     0.015 C 
BRANCH  19  20
HETATM   20  C16 UNL     1     -11.969   3.371  -2.019  1.00  0.00     0.001 C 
HETATM   21  C18 UNL     1     -10.776   2.941  -2.793  1.00  0.00    -0.019 C 
HETATM   22  C19 UNL     1      -9.920   2.297  -2.030  1.00  0.00    -0.030 C 
HETATM   23  C20 UNL     1     -10.387   2.186  -0.631  1.00  0.00     0.028 C 
HETATM   24  C21 UNL     1     -11.810   2.744  -0.678  1.00  0.00     0.019 C 
BRANCH  20  25
HETATM   25  C17 UNL     1     -13.213   2.951  -2.744  1.00  0.00     0.243 C 
BRANCH  25  26
HETATM   26  N2  UNL     1     -12.960   2.449  -4.068  1.00  0.00    -0.078 N 
ATOM     27  H23 UNL     1     -12.289   3.042  -4.558  1.00  0.00     0.274 HD
ATOM     28  H22 UNL     1     -12.422   1.583  -4.030  1.00  0.00     0.274 HD
ATOM     29  H21 UNL     1     -13.807   2.325  -4.622  1.00  0.00     0.274 HD
ENDBRANCH  25  26
ENDBRANCH  20  25
ENDBRANCH  19  20
ENDBRANCH  18  19
ENDBRANCH  17  18
ENDBRANCH  16  17
ENDBRANCH   1  16
TORSDOF 18
ENDMDL
MODEL 2
REMARK VINA RESULT: -7.890333469      1.524      1.937
REMARK  18 active torsions:
REMARK  status: ('A' for Active; 'I' for Inactive)
REMARK    1  A    between atoms: N1_1  and  C1_5 
REMARK    2  A    between atoms: C1_5  and  C2_6 
REMARK    3  A    between atoms: C2_6  and  C3_7 
REMARK    4  A    between atoms: C3_7  and  C4_8 
REMARK    5  A    between atoms: C4_8  and  C5_9 
REMARK    6  A    between atoms: C5_9  and  C6_10 
REMARK    7  A    between atoms: C6_10  and  C7_11 
REMARK    8  A    between atoms: C7_11  and  C8_12 
REMARK    9  A    between atoms: C8_12  and  C9_13 
REMARK   10  A    between atoms: C9_13  and  C10_14 
REMARK   11  A    between atoms: C10_14  and  C11_15 
REMARK   12  A    between atoms: C11_15  and  C12_16 
REMARK   13  A    between atoms: C12_16  and  C13_17 
REMARK   14  A    between atoms: C13_17  and  C14_18 
REMARK   15  A    between atoms: C14_18  and  C15_19 
REMARK   16  A    between atoms: C15_19  and  C16_20 
REMARK   17  A    between atoms: C16_20  and  C17_21 
REMARK   18  A    between atoms: C17_21  and  N2_22 
ROOT
HETATM    1  C11 UNL     1     -14.838   4.763   0.321  1.00  0.00     0.000 C 
ENDROOT
BRANCH   1   2
HETATM    2  C10 UNL     1     -15.746   3.717  -0.150  1.00  0.00     0.000 C 
BRANCH   2   3
HETATM    3  C9  UNL     1     -16.364   2.749   0.784  1.00  0.00     0.000 C 
BRANCH   3   4
HETATM    4  C8  UNL     1     -15.493   2.410   1.976  1.00  0.00     0.000 C 
BRANCH   4   5
HETATM    5  C7  UNL     1     -16.407   1.875   3.070  1.00  0.00     0.000 C 
BRANCH   5   6
HETATM    6  C6  UNL     1     -15.650   0.767   3.762  1.00  0.00     0.000 C 
BRANCH   6   7
HETATM    7  C5  UNL     1     -16.573  -0.008   4.676  1.00  0.00     0.000 C 
BRANCH   7   8
HETATM    8  C4  UNL     1     -15.850  -1.177   5.313  1.00  0.00     0.000 C 
BRANCH   8   9
HETATM    9  C3  UNL     1     -15.662  -0.989   6.795  1.00  0.00     0.002 C 
BRANCH   9  10
HETATM   10  C2  UNL     1     -16.786  -0.185   7.389  1.00  0.00     0.027 C 
BRANCH  10  11
HETATM   11  C1  UNL     1     -16.489   0.235   8.813  1.00  0.00     0.229 C 
BRANCH  11  12
HETATM   12  N1  UNL     1     -16.547  -0.870   9.727  1.00  0.00    -0.079 N 
ATOM     13  H13 UNL     1     -17.416  -0.861  10.261  1.00  0.00     0.274 HD
ATOM     14  H12 UNL     1     -16.670  -1.753   9.231  1.00  0.00     0.274 HD
ATOM     15  H11 UNL     1     -15.735  -0.902  10.343  1.00  0.00     0.274 HD
ENDBRANCH  11  12
ENDBRANCH  10  11
ENDBRANCH   9  10
ENDBRANCH   8   9
ENDBRANCH   7   8
ENDBRANCH   6   7
ENDBRANCH   5   6
ENDBRANCH   4   5
ENDBRANCH   3   4
ENDBRANCH   2   3
ENDBRANCH   1   2
BRANCH   1  16
HETATM   16  C12 UNL     1     -14.805   6.079  -0.318  1.00  0.00     0.000 C 
BRANCH  16  17
HETATM   17  C13 UNL     1     -13.602   6.527  -1.050  1.00  0.00     0.000 C 
BRANCH  17  18
HETATM   18  C14 UNL     1     -13.284   5.617  -2.241  1.00  0.00     0.001 C 
BRANCH  18  19
HETATM   19  C15 UNL     1     -11.955   4.985  -2.050  1.00  0.00     0.015 C 
BRANCH  19  20
HETATM   20  C16 UNL     1     -12.050   3.455  -2.054  1.00  0.00     0.001 C 
HETATM   21  C18 UNL     1     -10.846   2.915  -2.735  1.00  0.00    -0.019 C 
HETATM   22  C19 UNL     1     -10.085   2.245  -1.898  1.00  0.00    -0.030 C 
HETATM   23  C20 UNL     1     -10.641   2.221  -0.528  1.00  0.00     0.028 C 
HETATM   24  C21 UNL     1     -12.016   2.873  -0.683  1.00  0.00     0.019 C 
BRANCH  20  25
HETATM   25  C17 UNL     1     -13.274   3.093  -2.840  1.00  0.00     0.243 C 
BRANCH  25  26
HETATM   26  N2  UNL     1     -12.978   2.482  -4.108  1.00  0.00    -0.078 N 
ATOM     27  H23 UNL     1     -12.053   2.761  -4.437  1.00  0.00     0.274 HD
ATOM     28  H22 UNL     1     -12.822   1.480  -4.000  1.00  0.00     0.274 HD
ATOM     29  H21 UNL     1     -13.685   2.664  -4.820  1.00  0.00     0.274 HD
ENDBRANCH  25  26
ENDBRANCH  20  25
ENDBRANCH  19  20
ENDBRANCH  18  19
ENDBRANCH  17  18
ENDBRANCH  16  17
ENDBRANCH   1  16
TORSDOF 18
ENDMDL
MODEL 3
REMARK VINA RESULT: -7.591059974      1.657      2.780
REMARK  18 active torsions:
REMARK  status: ('A' for Active; 'I' for Inactive)
REMARK    1  A    between atoms: N1_1  and  C1_5 
REMARK    2  A    between atoms: C1_5  and  C2_6 
REMARK    3  A    between atoms: C2_6  and  C3_7 
REMARK    4  A    between atoms: C3_7  and  C4_8 
REMARK    5  A    between atoms: C4_8  and  C5_9 
REMARK    6  A    between atoms: C5_9  and  C6_10 
REMARK    7  A    between atoms: C6_10  and  C7_11 
REMARK    8  A    between atoms: C7_11  and  C8_12 
REMARK    9  A    between atoms: C8_12  and  C9_13 
REMARK   10  A    between atoms: C9_13  and  C10_14 
REMARK   11  A    between atoms: C10_14  and  C11_15 
REMARK   12  A    between atoms: C11_15  and  C12_16 
REMARK   13  A    between atoms: C12_16  and  C13_17 
REMARK   14  A    between atoms: C13_17  and  C14_18 
REMARK   15  A    between atoms: C14_18  and  C15_19 
REMARK   16  A    between atoms: C15_19  and  C16_20 
REMARK   17  A    between atoms: C16_20  and  C17_21 
REMARK   18  A    between atoms: C17_21  and  N2_22 
ROOT
HETATM    1  C11 UNL     1     -15.685   2.565   1.462  1.00  0.00     0.000 C 
ENDROOT
BRANCH   1   2
HETATM    2  C10 UNL     1     -16.252   2.238   2.771  1.00  0.00     0.000 C 
BRANCH   2   3
HETATM    3  C9  UNL     1     -15.737   1.109   3.579  1.00  0.00     0.000 C 
BRANCH   3   4
HETATM    4  C8  UNL     1     -16.813   0.363   4.341  1.00  0.00     0.000 C 
BRANCH   4   5
HETATM    5  C7  UNL     1     -16.123  -0.443   5.432  1.00  0.00     0.000 C 
BRANCH   5   6
HETATM    6  C6  UNL     1     -16.342  -1.899   5.098  1.00  0.00     0.000 C 
BRANCH   6   7
HETATM    7  C5  UNL     1     -15.024  -2.640   5.085  1.00  0.00     0.000 C 
BRANCH   7   8
HETATM    8  C4  UNL     1     -14.679  -3.159   6.466  1.00  0.00     0.000 C 
BRANCH   8   9
HETATM    9  C3  UNL     1     -13.194  -3.309   6.662  1.00  0.00     0.002 C 
BRANCH   9  10
HETATM   10  C2  UNL     1     -12.869  -4.562   7.429  1.00  0.00     0.027 C 
BRANCH  10  11
HETATM   11  C1  UNL     1     -11.376  -4.784   7.543  1.00  0.00     0.229 C 
BRANCH  11  12
HETATM   12  N1  UNL     1     -10.631  -3.897   6.696  1.00  0.00    -0.079 N 
ATOM     13  H13 UNL     1      -9.656  -4.189   6.623  1.00  0.00     0.274 HD
ATOM     14  H12 UNL     1     -10.906  -4.003   5.719  1.00  0.00     0.274 HD
ATOM     15  H11 UNL     1     -10.704  -2.926   6.997  1.00  0.00     0.274 HD
ENDBRANCH  11  12
ENDBRANCH  10  11
ENDBRANCH   9  10
ENDBRANCH   8   9
ENDBRANCH   7   8
ENDBRANCH   6   7
ENDBRANCH   5   6
ENDBRANCH   4   5
ENDBRANCH   3   4
ENDBRANCH   2   3
ENDBRANCH   1   2
BRANCH   1  16
HETATM   16  C12 UNL     1     -14.682   3.620   1.315  1.00  0.00     0.000 C 
BRANCH  16  17
HETATM   17  C13 UNL     1     -14.830   4.654   0.271  1.00  0.00     0.000 C 
BRANCH  17  18
HETATM   18  C14 UNL     1     -13.894   4.410  -0.917  1.00  0.00     0.001 C 
BRANCH  18  19
HETATM   19  C15 UNL     1     -12.910   3.355  -0.571  1.00  0.00     0.015 C 
BRANCH  19  20
HETATM   20  C16 UNL     1     -11.878   3.155  -1.688  1.00  0.00     0.001 C 
HETATM   21  C18 UNL     1     -11.024   4.368  -1.756  1.00  0.00    -0.019 C 
HETATM   22  C19 UNL     1      -9.783   4.096  -1.413  1.00  0.00    -0.030 C 
HETATM   23  C20 UNL     1      -9.596   2.672  -1.060  1.00  0.00     0.028 C 
HETATM   24  C21 UNL     1     -10.940   2.032  -1.410  1.00  0.00     0.019 C 
BRANCH  20  25
HETATM   25  C17 UNL     1     -12.642   3.009  -2.970  1.00  0.00     0.243 C 
BRANCH  25  26
HETATM   26  N2  UNL     1     -11.948   2.231  -3.961  1.00  0.00    -0.078 N 
ATOM     27  H23 UNL     1     -10.945   2.417  -3.931  1.00  0.00     0.274 HD
ATOM     28  H22 UNL     1     -11.944   1.243  -3.708  1.00  0.00     0.274 HD
ATOM     29  H21 UNL     1     -12.313   2.362  -4.905  1.00  0.00     0.274 HD
ENDBRANCH  25  26
ENDBRANCH  20  25
ENDBRANCH  19  20
ENDBRANCH  18  19
ENDBRANCH  17  18
ENDBRANCH  16  17
ENDBRANCH   1  16
TORSDOF 18
ENDMDL
MODEL 4
REMARK VINA RESULT: -7.450404734      2.022      9.902
REMARK  18 active torsions:
REMARK  status: ('A' for Active; 'I' for Inactive)
REMARK    1  A    between atoms: N1_1  and  C1_5 
REMARK    2  A    between atoms: C1_5  and  C2_6 
REMARK    3  A    between atoms: C2_6  and  C3_7 
REMARK    4  A    between atoms: C3_7  and  C4_8 
REMARK    5  A    between atoms: C4_8  and  C5_9 
REMARK    6  A    between atoms: C5_9  and  C6_10 
REMARK    7  A    between atoms: C6_10  and  C7_11 
REMARK    8  A    between atoms: C7_11  and  C8_12 
REMARK    9  A    between atoms: C8_12  and  C9_13 
REMARK   10  A    between atoms: C9_13  and  C10_14 
REMARK   11  A    between atoms: C10_14  and  C11_15 
REMARK   12  A    between atoms: C11_15  and  C12_16 
REMARK   13  A    between atoms: C12_16  and  C13_17 
REMARK   14  A    between atoms: C13_17  and  C14_18 
REMARK   15  A    between atoms: C14_18  and  C15_19 
REMARK   16  A    between atoms: C15_19  and  C16_20 
REMARK   17  A    between atoms: C16_20  and  C17_21 
REMARK   18  A    between atoms: C17_21  and  N2_22 
ROOT
HETATM    1  C11 UNL     1     -16.819  -0.034   4.717  1.00  0.00     0.000 C 
ENDROOT
BRANCH   1   2
HETATM    2  C10 UNL     1     -15.805   0.734   3.995  1.00  0.00     0.000 C 
BRANCH   2   3
HETATM    3  C9  UNL     1     -16.126   2.024   3.344  1.00  0.00     0.000 C 
BRANCH   3   4
HETATM    4  C8  UNL     1     -15.569   2.156   1.941  1.00  0.00     0.000 C 
BRANCH   4   5
HETATM    5  C7  UNL     1     -16.675   2.723   1.063  1.00  0.00     0.000 C 
BRANCH   5   6
HETATM    6  C6  UNL     1     -16.003   3.317  -0.150  1.00  0.00     0.000 C 
BRANCH   6   7
HETATM    7  C5  UNL     1     -14.643   3.868   0.218  1.00  0.00     0.000 C 
BRANCH   7   8
HETATM    8  C4  UNL     1     -13.631   3.593  -0.874  1.00  0.00     0.000 C 
BRANCH   8   9
HETATM    9  C3  UNL     1     -13.177   4.855  -1.558  1.00  0.00     0.002 C 
BRANCH   9  10
HETATM   10  C2  UNL     1     -11.938   4.615  -2.378  1.00  0.00     0.027 C 
BRANCH  10  11
HETATM   11  C1  UNL     1     -11.420   3.202  -2.220  1.00  0.00     0.229 C 
BRANCH  11  12
HETATM   12  N1  UNL     1     -11.128   2.588  -3.484  1.00  0.00    -0.079 N 
ATOM     13  H13 UNL     1     -11.319   3.226  -4.257  1.00  0.00     0.274 HD
ATOM     14  H12 UNL     1     -10.123   2.471  -3.614  1.00  0.00     0.274 HD
ATOM     15  H11 UNL     1     -11.621   1.704  -3.605  1.00  0.00     0.274 HD
ENDBRANCH  11  12
ENDBRANCH  10  11
ENDBRANCH   9  10
ENDBRANCH   8   9
ENDBRANCH   7   8
ENDBRANCH   6   7
ENDBRANCH   5   6
ENDBRANCH   4   5
ENDBRANCH   3   4
ENDBRANCH   2   3
ENDBRANCH   1   2
BRANCH   1  16
HETATM   16  C12 UNL     1     -16.518  -0.661   6.004  1.00  0.00     0.000 C 
BRANCH  16  17
HETATM   17  C13 UNL     1     -16.217  -2.105   6.082  1.00  0.00     0.000 C 
BRANCH  17  18
HETATM   18  C14 UNL     1     -14.912  -2.380   6.836  1.00  0.00     0.001 C 
BRANCH  18  19
HETATM   19  C15 UNL     1     -15.002  -3.684   7.538  1.00  0.00     0.015 C 
BRANCH  19  20
HETATM   20  C16 UNL     1     -13.957  -4.679   7.021  1.00  0.00     0.001 C 
HETATM   21  C18 UNL     1     -12.717  -3.929   6.698  1.00  0.00    -0.019 C 
HETATM   22  C19 UNL     1     -11.733  -4.268   7.501  1.00  0.00    -0.030 C 
HETATM   23  C20 UNL     1     -12.139  -5.292   8.488  1.00  0.00     0.028 C 
HETATM   24  C21 UNL     1     -13.553  -5.677   8.050  1.00  0.00     0.019 C 
BRANCH  20  25
HETATM   25  C17 UNL     1     -14.514  -5.288   5.768  1.00  0.00     0.243 C 
BRANCH  25  26
HETATM   26  N2  UNL     1     -13.722  -6.377   5.263  1.00  0.00    -0.078 N 
ATOM     27  H23 UNL     1     -13.543  -6.262   4.265  1.00  0.00     0.274 HD
ATOM     28  H22 UNL     1     -12.766  -6.322   5.613  1.00  0.00     0.274 HD
ATOM     29  H21 UNL     1     -14.126  -7.294   5.454  1.00  0.00     0.274 HD
ENDBRANCH  25  26
ENDBRANCH  20  25
ENDBRANCH  19  20
ENDBRANCH  18  19
ENDBRANCH  17  18
ENDBRANCH  16  17
ENDBRANCH   1  16
TORSDOF 18
ENDMDL
MODEL 5
REMARK VINA RESULT: -7.427320708      1.518      8.997
REMARK  18 active torsions:
REMARK  status: ('A' for Active; 'I' for Inactive)
REMARK    1  A    between atoms: N1_1  and  C1_5 
REMARK    2  A    between atoms: C1_5  and  C2_6 
REMARK    3  A    between atoms: C2_6  and  C3_7 
REMARK    4  A    between atoms: C3_7  and  C4_8 
REMARK    5  A    between atoms: C4_8  and  C5_9 
REMARK    6  A    between atoms: C5_9  and  C6_10 
REMARK    7  A    between atoms: C6_10  and  C7_11 
REMARK    8  A    between atoms: C7_11  and  C8_12 
REMARK    9  A    between atoms: C8_12  and  C9_13 
REMARK   10  A    between atoms: C9_13  and  C10_14 
REMARK   11  A    between atoms: C10_14  and  C11_15 
REMARK   12  A    between atoms: C11_15  and  C12_16 
REMARK   13  A    between atoms: C12_16  and  C13_17 
REMARK   14  A    between atoms: C13_17  and  C14_18 
REMARK   15  A    between atoms: C14_18  and  C15_19 
REMARK   16  A    between atoms: C15_19  and  C16_20 
REMARK   17  A    between atoms: C16_20  and  C17_21 
REMARK   18  A    between atoms: C17_21  and  N2_22 
ROOT
HETATM    1  C11 UNL     1     -15.551   2.307   1.996  1.00  0.00     0.000 C 
ENDROOT
BRANCH   1   2
HETATM    2  C10 UNL     1     -16.328   2.742   0.835  1.00  0.00     0.000 C 
BRANCH   2   3
HETATM    3  C9  UNL     1     -15.789   3.721  -0.136  1.00  0.00     0.000 C 
BRANCH   3   4
HETATM    4  C8  UNL     1     -14.738   4.644   0.446  1.00  0.00     0.000 C 
BRANCH   4   5
HETATM    5  C7  UNL     1     -14.993   6.035  -0.114  1.00  0.00     0.000 C 
BRANCH   5   6
HETATM    6  C6  UNL     1     -13.749   6.430  -0.873  1.00  0.00     0.000 C 
BRANCH   6   7
HETATM    7  C5  UNL     1     -13.686   5.698  -2.196  1.00  0.00     0.000 C 
BRANCH   7   8
HETATM    8  C4  UNL     1     -12.369   4.966  -2.350  1.00  0.00     0.000 C 
BRANCH   8   9
HETATM    9  C3  UNL     1     -12.542   3.472  -2.307  1.00  0.00     0.002 C 
BRANCH   9  10
HETATM   10  C2  UNL     1     -11.712   2.858  -1.211  1.00  0.00     0.027 C 
BRANCH  10  11
HETATM   11  C1  UNL     1     -10.442   2.232  -1.748  1.00  0.00     0.229 C 
BRANCH  11  12
HETATM   12  N1  UNL     1     -10.541   1.918  -3.144  1.00  0.00    -0.079 N 
ATOM     13  H13 UNL     1     -10.613   0.912  -3.292  1.00  0.00     0.274 HD
ATOM     14  H12 UNL     1     -11.444   2.203  -3.523  1.00  0.00     0.274 HD
ATOM     15  H11 UNL     1      -9.772   2.316  -3.683  1.00  0.00     0.274 HD
ENDBRANCH  11  12
ENDBRANCH  10  11
ENDBRANCH   9  10
ENDBRANCH   8   9
ENDBRANCH   7   8
ENDBRANCH   6   7
ENDBRANCH   5   6
ENDBRANCH   4   5
ENDBRANCH   3   4
ENDBRANCH   2   3
ENDBRANCH   1   2
BRANCH   1  16
HETATM   16  C12 UNL     1     -16.211   1.865   3.225  1.00  0.00     0.000 C 
BRANCH  16  17
HETATM   17  C13 UNL     1     -15.740   0.659   3.936  1.00  0.00     0.000 C 
BRANCH  17  18
HETATM   18  C14 UNL     1     -16.866  -0.020   4.722  1.00  0.00     0.001 C 
BRANCH  18  19
HETATM   19  C15 UNL     1     -16.411  -0.307   6.105  1.00  0.00     0.015 C 
BRANCH  19  20
HETATM   20  C16 UNL     1     -16.395  -1.812   6.396  1.00  0.00     0.001 C 
HETATM   21  C18 UNL     1     -16.249  -2.535   5.107  1.00  0.00    -0.019 C 
HETATM   22  C19 UNL     1     -15.098  -3.166   5.042  1.00  0.00    -0.030 C 
HETATM   23  C20 UNL     1     -14.283  -2.977   6.262  1.00  0.00     0.028 C 
HETATM   24  C21 UNL     1     -15.220  -2.228   7.211  1.00  0.00     0.019 C 
BRANCH  20  25
HETATM   25  C17 UNL     1     -17.717  -2.154   7.015  1.00  0.00     0.243 C 
BRANCH  25  26
HETATM   26  N2  UNL     1     -18.527  -3.012   6.192  1.00  0.00    -0.078 N 
ATOM     27  H23 UNL     1     -19.322  -2.501   5.808  1.00  0.00     0.274 HD
ATOM     28  H22 UNL     1     -18.042  -3.246   5.326  1.00  0.00     0.274 HD
ATOM     29  H21 UNL     1     -18.837  -3.857   6.673  1.00  0.00     0.274 HD
ENDBRANCH  25  26
ENDBRANCH  20  25
ENDBRANCH  19  20
ENDBRANCH  18  19
ENDBRANCH  17  18
ENDBRANCH  16  17
ENDBRANCH   1  16
TORSDOF 18
ENDMDL
