MODEL 1
REMARK VINA RESULT: -8.088082423      0.000      0.000
REMARK  16 active torsions:
REMARK  status: ('A' for Active; 'I' for Inactive)
REMARK    1  A    between atoms: C1_1  and  C2_2 
REMARK    2  A    between atoms: C1_1  and  C12_15 
REMARK    3  A    between atoms: C2_2  and  C3_3 
REMARK    4  A    between atoms: C3_3  and  C4_4 
REMARK    5  A    between atoms: C4_4  and  C5_5 
REMARK    6  A    between atoms: C5_5  and  C6_6 
REMARK    7  A    between atoms: C6_6  and  C7_7 
REMARK    8  A    between atoms: C7_7  and  N1_8 
REMARK    9  A    between atoms: N1_8  and  C8_11 
REMARK   10  A    between atoms: C8_11  and  C9_12 
REMARK   11  A    between atoms: C12_15  and  C13_16 
REMARK   12  A    between atoms: C13_16  and  C14_17 
REMARK   13  A    between atoms: C14_17  and  C15_18 
REMARK   14  A    between atoms: C15_18  and  C16_19 
REMARK   15  A    between atoms: C16_19  and  C17_20 
REMARK   16  A    between atoms: C17_20  and  C18_21 
ROOT
HETATM    1  C1  UNL     1     -16.641   2.624   1.109  1.00  0.00     0.000 C 
ENDROOT
BRANCH   1   2
HETATM    2  C2  UNL     1     -16.058   3.384  -0.047  1.00  0.00     0.000 C 
BRANCH   2   3
HETATM    3  C3  UNL     1     -14.763   4.080   0.358  1.00  0.00     0.000 C 
BRANCH   3   4
HETATM    4  C4  UNL     1     -14.960   5.545   0.012  1.00  0.00     0.000 C 
BRANCH   4   5
HETATM    5  C5  UNL     1     -13.900   6.009  -0.906  1.00  0.00     0.002 C 
BRANCH   5   6
HETATM    6  C6  UNL     1     -13.801   5.307  -2.206  1.00  0.00     0.027 C 
BRANCH   6   7
HETATM    7  C7  UNL     1     -12.525   4.578  -2.398  1.00  0.00     0.232 C 
BRANCH   7   8
HETATM    8  N1  UNL     1     -12.542   3.367  -3.133  1.00  0.00    -0.075 N 
ATOM      9  H12 UNL     1     -13.443   2.896  -3.054  1.00  0.00     0.277 HD
ATOM     10  H11 UNL     1     -12.540   3.541  -4.138  1.00  0.00     0.277 HD
BRANCH   8  11
HETATM   11  C8  UNL     1     -11.446   2.486  -2.746  1.00  0.00     0.237 C 
BRANCH  11  12
HETATM   12  C9  UNL     1     -10.847   2.914  -1.434  1.00  0.00     0.011 A 
HETATM   13  C10 UNL     1     -10.433   1.925  -0.421  1.00  0.00     0.007 A 
HETATM   14  C11 UNL     1      -9.390   2.657  -1.189  1.00  0.00     0.007 A 
ENDBRANCH  11  12
ENDBRANCH   8  11
ENDBRANCH   7   8
ENDBRANCH   6   7
ENDBRANCH   5   6
ENDBRANCH   4   5
ENDBRANCH   3   4
ENDBRANCH   2   3
ENDBRANCH   1   2
BRANCH   1  15
HETATM   15  C12 UNL     1     -15.569   2.239   2.077  1.00  0.00     0.000 C 
BRANCH  15  16
HETATM   16  C13 UNL     1     -16.067   2.023   3.459  1.00  0.00     0.000 C 
BRANCH  16  17
HETATM   17  C14 UNL     1     -15.802   0.648   3.958  1.00  0.00     0.000 C 
BRANCH  17  18
HETATM   18  C15 UNL     1     -17.092   0.053   4.544  1.00  0.00     0.000 C 
BRANCH  18  19
HETATM   19  C16 UNL     1     -16.714  -0.908   5.635  1.00  0.00     0.002 C 
BRANCH  19  20
HETATM   20  C17 UNL     1     -15.410  -1.573   5.490  1.00  0.00     0.033 C 
BRANCH  20  21
HETATM   21  C18 UNL     1     -15.366  -2.954   4.976  1.00  0.00     0.186 C 
HETATM   22  C19 UNL     1     -16.457  -3.888   5.365  1.00  0.00     0.034 C 
HETATM   23  C20 UNL     1     -15.680  -5.180   5.675  1.00  0.00     0.029 C 
HETATM   24  C21 UNL     1     -14.423  -4.609   6.290  1.00  0.00     0.233 C 
HETATM   25  N2  UNL     1     -14.088  -3.566   5.338  1.00  0.00    -0.071 N 
ATOM     26  H22 UNL     1     -13.548  -3.896   4.539  1.00  0.00     0.277 HD
ATOM     27  H21 UNL     1     -13.395  -2.901   5.682  1.00  0.00     0.277 HD
ENDBRANCH  20  21
ENDBRANCH  19  20
ENDBRANCH  18  19
ENDBRANCH  17  18
ENDBRANCH  16  17
ENDBRANCH  15  16
ENDBRANCH   1  15
TORSDOF 16
ENDMDL
MODEL 2
REMARK VINA RESULT: -7.987515349      1.253      8.895
REMARK  16 active torsions:
REMARK  status: ('A' for Active; 'I' for Inactive)
REMARK    1  A    between atoms: C1_1  and  C2_2 
REMARK    2  A    between atoms: C1_1  and  C12_15 
REMARK    3  A    between atoms: C2_2  and  C3_3 
REMARK    4  A    between atoms: C3_3  and  C4_4 
REMARK    5  A    between atoms: C4_4  and  C5_5 
REMARK    6  A    between atoms: C5_5  and  C6_6 
REMARK    7  A    between atoms: C6_6  and  C7_7 
REMARK    8  A    between atoms: C7_7  and  N1_8 
REMARK    9  A    between atoms: N1_8  and  C8_11 
REMARK   10  A    between atoms: C8_11  and  C9_12 
REMARK   11  A    between atoms: C12_15  and  C13_16 
REMARK   12  A    between atoms: C13_16  and  C14_17 
REMARK   13  A    between atoms: C14_17  and  C15_18 
REMARK   14  A    between atoms: C15_18  and  C16_19 
REMARK   15  A    between atoms: C16_19  and  C17_20 
REMARK   16  A    between atoms: C17_20  and  C18_21 
ROOT
HETATM    1  C1  UNL     1     -14.704   4.040   1.240  1.00  0.00     0.000 C 
ENDROOT
BRANCH   1   2
HETATM    2  C2  UNL     1     -15.006   2.575   1.126  1.00  0.00     0.000 C 
BRANCH   2   3
HETATM    3  C3  UNL     1     -16.285   2.224   1.880  1.00  0.00     0.000 C 
BRANCH   3   4
HETATM    4  C4  UNL     1     -15.899   2.201   3.349  1.00  0.00     0.000 C 
BRANCH   4   5
HETATM    5  C5  UNL     1     -15.803   0.811   3.838  1.00  0.00     0.002 C 
BRANCH   5   6
HETATM    6  C6  UNL     1     -17.047   0.213   4.373  1.00  0.00     0.027 C 
BRANCH   6   7
HETATM    7  C7  UNL     1     -16.818  -0.845   5.386  1.00  0.00     0.232 C 
BRANCH   7   8
HETATM    8  N1  UNL     1     -17.140  -2.183   5.051  1.00  0.00    -0.075 N 
ATOM      9  H12 UNL     1     -17.894  -2.542   5.637  1.00  0.00     0.277 HD
ATOM     10  H11 UNL     1     -17.602  -2.239   4.144  1.00  0.00     0.277 HD
BRANCH   8  11
HETATM   11  C8  UNL     1     -15.968  -3.049   5.105  1.00  0.00     0.237 C 
BRANCH  11  12
HETATM   12  C9  UNL     1     -15.219  -2.863   6.395  1.00  0.00     0.011 A 
HETATM   13  C10 UNL     1     -14.649  -4.014   7.123  1.00  0.00     0.007 A 
HETATM   14  C11 UNL     1     -13.735  -3.084   6.406  1.00  0.00     0.007 A 
ENDBRANCH  11  12
ENDBRANCH   8  11
ENDBRANCH   7   8
ENDBRANCH   6   7
ENDBRANCH   5   6
ENDBRANCH   4   5
ENDBRANCH   3   4
ENDBRANCH   2   3
ENDBRANCH   1   2
BRANCH   1  15
HETATM   15  C12 UNL     1     -15.218   4.777   0.045  1.00  0.00     0.000 C 
BRANCH  15  16
HETATM   16  C13 UNL     1     -14.711   6.169  -0.058  1.00  0.00     0.000 C 
BRANCH  16  17
HETATM   17  C14 UNL     1     -14.076   6.455  -1.371  1.00  0.00     0.000 C 
BRANCH  17  18
HETATM   18  C15 UNL     1     -13.917   5.149  -2.165  1.00  0.00     0.000 C 
BRANCH  18  19
HETATM   19  C16 UNL     1     -12.454   4.816  -2.235  1.00  0.00     0.002 C 
BRANCH  19  20
HETATM   20  C17 UNL     1     -12.109   3.555  -2.908  1.00  0.00     0.033 C 
BRANCH  20  21
HETATM   21  C18 UNL     1     -11.513   2.463  -2.117  1.00  0.00     0.186 C 
HETATM   22  C19 UNL     1     -11.547   2.564  -0.633  1.00  0.00     0.034 C 
HETATM   23  C20 UNL     1     -10.133   2.098  -0.245  1.00  0.00     0.029 C 
HETATM   24  C21 UNL     1      -9.326   2.671  -1.387  1.00  0.00     0.233 C 
HETATM   25  N2  UNL     1     -10.124   2.266  -2.530  1.00  0.00    -0.071 N 
ATOM     26  H22 UNL     1      -9.921   1.322  -2.860  1.00  0.00     0.277 HD
ATOM     27  H21 UNL     1      -9.879   2.748  -3.395  1.00  0.00     0.277 HD
ENDBRANCH  20  21
ENDBRANCH  19  20
ENDBRANCH  18  19
ENDBRANCH  17  18
ENDBRANCH  16  17
ENDBRANCH  15  16
ENDBRANCH   1  15
TORSDOF 16
ENDMDL
MODEL 3
REMARK VINA RESULT: -7.952338072      0.847      1.545
REMARK  16 active torsions:
REMARK  status: ('A' for Active; 'I' for Inactive)
REMARK    1  A    between atoms: C1_1  and  C2_2 
REMARK    2  A    between atoms: C1_1  and  C12_15 
REMARK    3  A    between atoms: C2_2  and  C3_3 
REMARK    4  A    between atoms: C3_3  and  C4_4 
REMARK    5  A    between atoms: C4_4  and  C5_5 
REMARK    6  A    between atoms: C5_5  and  C6_6 
REMARK    7  A    between atoms: C6_6  and  C7_7 
REMARK    8  A    between atoms: C7_7  and  N1_8 
REMARK    9  A    between atoms: N1_8  and  C8_11 
REMARK   10  A    between atoms: C8_11  and  C9_12 
REMARK   11  A    between atoms: C12_15  and  C13_16 
REMARK   12  A    between atoms: C13_16  and  C14_17 
REMARK   13  A    between atoms: C14_17  and  C15_18 
REMARK   14  A    between atoms: C15_18  and  C16_19 
REMARK   15  A    between atoms: C16_19  and  C17_20 
REMARK   16  A    between atoms: C17_20  and  C18_21 
ROOT
HETATM    1  C1  UNL     1     -15.540   2.234   2.055  1.00  0.00     0.000 C 
ENDROOT
BRANCH   1   2
HETATM    2  C2  UNL     1     -16.622   2.604   1.084  1.00  0.00     0.000 C 
BRANCH   2   3
HETATM    3  C3  UNL     1     -16.042   3.340  -0.121  1.00  0.00     0.000 C 
BRANCH   3   4
HETATM    4  C4  UNL     1     -14.539   3.353   0.093  1.00  0.00     0.000 C 
BRANCH   4   5
HETATM    5  C5  UNL     1     -13.920   4.474  -0.641  1.00  0.00     0.002 C 
BRANCH   5   6
HETATM    6  C6  UNL     1     -13.581   4.225  -2.061  1.00  0.00     0.027 C 
BRANCH   6   7
HETATM    7  C7  UNL     1     -12.268   4.776  -2.471  1.00  0.00     0.232 C 
BRANCH   7   8
HETATM    8  N1  UNL     1     -11.317   3.899  -3.049  1.00  0.00    -0.075 N 
ATOM      9  H12 UNL     1     -11.231   4.054  -4.054  1.00  0.00     0.277 HD
ATOM     10  H11 UNL     1     -10.367   4.143  -2.768  1.00  0.00     0.277 HD
BRANCH   8  11
HETATM   11  C8  UNL     1     -11.618   2.504  -2.750  1.00  0.00     0.237 C 
BRANCH  11  12
HETATM   12  C9  UNL     1     -10.514   1.874  -1.947  1.00  0.00     0.011 A 
HETATM   13  C10 UNL     1      -9.542   2.698  -1.201  1.00  0.00     0.007 A 
HETATM   14  C11 UNL     1     -10.581   1.942  -0.450  1.00  0.00     0.007 A 
ENDBRANCH  11  12
ENDBRANCH   8  11
ENDBRANCH   7   8
ENDBRANCH   6   7
ENDBRANCH   5   6
ENDBRANCH   4   5
ENDBRANCH   3   4
ENDBRANCH   2   3
ENDBRANCH   1   2
BRANCH   1  15
HETATM   15  C12 UNL     1     -16.118   1.961   3.406  1.00  0.00     0.000 C 
BRANCH  15  16
HETATM   16  C13 UNL     1     -15.751   0.630   3.952  1.00  0.00     0.000 C 
BRANCH  16  17
HETATM   17  C14 UNL     1     -16.856  -0.003   4.719  1.00  0.00     0.000 C 
BRANCH  17  18
HETATM   18  C15 UNL     1     -16.278  -0.805   5.895  1.00  0.00     0.000 C 
BRANCH  18  19
HETATM   19  C16 UNL     1     -15.411  -1.898   5.339  1.00  0.00     0.002 C 
BRANCH  19  20
HETATM   20  C17 UNL     1     -15.748  -3.267   5.755  1.00  0.00     0.033 C 
BRANCH  20  21
HETATM   21  C18 UNL     1     -14.799  -4.357   5.462  1.00  0.00     0.186 C 
HETATM   22  C19 UNL     1     -15.209  -5.754   5.769  1.00  0.00     0.034 C 
HETATM   23  C20 UNL     1     -13.932  -6.334   6.403  1.00  0.00     0.029 C 
HETATM   24  C21 UNL     1     -13.421  -5.127   7.155  1.00  0.00     0.233 C 
HETATM   25  N2  UNL     1     -13.532  -4.093   6.143  1.00  0.00    -0.071 N 
ATOM     26  H22 UNL     1     -12.729  -4.042   5.516  1.00  0.00     0.277 HD
ATOM     27  H21 UNL     1     -13.452  -3.145   6.512  1.00  0.00     0.277 HD
ENDBRANCH  20  21
ENDBRANCH  19  20
ENDBRANCH  18  19
ENDBRANCH  17  18
ENDBRANCH  16  17
ENDBRANCH  15  16
ENDBRANCH   1  15
TORSDOF 16
ENDMDL
MODEL 4
REMARK VINA RESULT: -7.942791672      1.065      1.517
REMARK  16 active torsions:
REMARK  status: ('A' for Active; 'I' for Inactive)
REMARK    1  A    between atoms: C1_1  and  C2_2 
REMARK    2  A    between atoms: C1_1  and  C12_15 
REMARK    3  A    between atoms: C2_2  and  C3_3 
REMARK    4  A    between atoms: C3_3  and  C4_4 
REMARK    5  A    between atoms: C4_4  and  C5_5 
REMARK    6  A    between atoms: C5_5  and  C6_6 
REMARK    7  A    between atoms: C6_6  and  C7_7 
REMARK    8  A    between atoms: C7_7  and  N1_8 
REMARK    9  A    between atoms: N1_8  and  C8_11 
REMARK   10  A    between atoms: C8_11  and  C9_12 
REMARK   11  A    between atoms: C12_15  and  C13_16 
REMARK   12  A    between atoms: C13_16  and  C14_17 
REMARK   13  A    between atoms: C14_17  and  C15_18 
REMARK   14  A    between atoms: C15_18  and  C16_19 
REMARK   15  A    between atoms: C16_19  and  C17_20 
REMARK   16  A    between atoms: C17_20  and  C18_21 
ROOT
HETATM    1  C1  UNL     1     -16.611   2.286   1.676  1.00  0.00     0.000 C 
ENDROOT
BRANCH   1   2
HETATM    2  C2  UNL     1     -16.044   3.442   0.905  1.00  0.00     0.000 C 
BRANCH   2   3
HETATM    3  C3  UNL     1     -14.585   3.683   1.282  1.00  0.00     0.000 C 
BRANCH   3   4
HETATM    4  C4  UNL     1     -13.777   3.298   0.056  1.00  0.00     0.000 C 
BRANCH   4   5
HETATM    5  C5  UNL     1     -14.511   3.644  -1.178  1.00  0.00     0.002 C 
BRANCH   5   6
HETATM    6  C6  UNL     1     -13.867   4.634  -2.072  1.00  0.00     0.027 C 
BRANCH   6   7
HETATM    7  C7  UNL     1     -12.498   4.258  -2.497  1.00  0.00     0.232 C 
BRANCH   7   8
HETATM    8  N1  UNL     1     -12.331   3.095  -3.289  1.00  0.00    -0.075 N 
ATOM      9  H12 UNL     1     -13.196   2.559  -3.351  1.00  0.00     0.277 HD
ATOM     10  H11 UNL     1     -12.217   3.330  -4.275  1.00  0.00     0.277 HD
BRANCH   8  11
HETATM   11  C8  UNL     1     -11.228   2.270  -2.809  1.00  0.00     0.237 C 
BRANCH  11  12
HETATM   12  C9  UNL     1     -10.658   2.822  -1.531  1.00  0.00     0.011 A 
HETATM   13  C10 UNL     1     -10.340   1.941  -0.390  1.00  0.00     0.007 A 
HETATM   14  C11 UNL     1      -9.228   2.522  -1.191  1.00  0.00     0.007 A 
ENDBRANCH  11  12
ENDBRANCH   8  11
ENDBRANCH   7   8
ENDBRANCH   6   7
ENDBRANCH   5   6
ENDBRANCH   4   5
ENDBRANCH   3   4
ENDBRANCH   2   3
ENDBRANCH   1   2
BRANCH   1  15
HETATM   15  C12 UNL     1     -15.676   1.875   2.769  1.00  0.00     0.000 C 
BRANCH  15  16
HETATM   16  C13 UNL     1     -16.335   1.111   3.858  1.00  0.00     0.000 C 
BRANCH  16  17
HETATM   17  C14 UNL     1     -15.593  -0.123   4.226  1.00  0.00     0.000 C 
BRANCH  17  18
HETATM   18  C15 UNL     1     -16.352  -0.876   5.329  1.00  0.00     0.000 C 
BRANCH  18  19
HETATM   19  C16 UNL     1     -15.392  -1.809   6.009  1.00  0.00     0.002 C 
BRANCH  19  20
HETATM   20  C17 UNL     1     -15.208  -3.124   5.376  1.00  0.00     0.033 C 
BRANCH  20  21
HETATM   21  C18 UNL     1     -15.231  -4.333   6.220  1.00  0.00     0.186 C 
HETATM   22  C19 UNL     1     -14.063  -4.602   7.101  1.00  0.00     0.034 C 
HETATM   23  C20 UNL     1     -13.852  -6.114   6.906  1.00  0.00     0.029 C 
HETATM   24  C21 UNL     1     -14.208  -6.260   5.445  1.00  0.00     0.233 C 
HETATM   25  N2  UNL     1     -15.448  -5.509   5.378  1.00  0.00    -0.071 N 
ATOM     26  H22 UNL     1     -16.273  -6.052   5.633  1.00  0.00     0.277 HD
ATOM     27  H21 UNL     1     -15.744  -5.286   4.427  1.00  0.00     0.277 HD
ENDBRANCH  20  21
ENDBRANCH  19  20
ENDBRANCH  18  19
ENDBRANCH  17  18
ENDBRANCH  16  17
ENDBRANCH  15  16
ENDBRANCH   1  15
TORSDOF 16
ENDMDL
MODEL 5
REMARK VINA RESULT: -7.928440180      1.015      1.568
REMARK  16 active torsions:
REMARK  status: ('A' for Active; 'I' for Inactive)
REMARK    1  A    between atoms: C1_1  and  C2_2 
REMARK    2  A    between atoms: C1_1  and  C12_15 
REMARK    3  A    between atoms: C2_2  and  C3_3 
REMARK    4  A    between atoms: C3_3  and  C4_4 
REMARK    5  A    between atoms: C4_4  and  C5_5 
REMARK    6  A    between atoms: C5_5  and  C6_6 
REMARK    7  A    between atoms: C6_6  and  C7_7 
REMARK    8  A    between atoms: C7_7  and  N1_8 
REMARK    9  A    between atoms: N1_8  and  C8_11 
REMARK   10  A    between atoms: C8_11  and  C9_12 
REMARK   11  A    between atoms: C12_15  and  C13_16 
REMARK   12  A    between atoms: C13_16  and  C14_17 
REMARK   13  A    between atoms: C14_17  and  C15_18 
REMARK   14  A    between atoms: C15_18  and  C16_19 
REMARK   15  A    between atoms: C16_19  and  C17_20 
REMARK   16  A    between atoms: C17_20  and  C18_21 
ROOT
HETATM    1  C1  UNL     1     -16.066   3.463   0.103  1.00  0.00     0.000 C 
ENDROOT
BRANCH   1   2
HETATM    2  C2  UNL     1     -14.945   4.321   0.613  1.00  0.00     0.000 C 
BRANCH   2   3
HETATM    3  C3  UNL     1     -15.006   5.716  -0.002  1.00  0.00     0.000 C 
BRANCH   3   4
HETATM    4  C4  UNL     1     -13.788   5.820  -0.902  1.00  0.00     0.000 C 
BRANCH   4   5
HETATM    5  C5  UNL     1     -14.103   5.334  -2.260  1.00  0.00     0.002 C 
BRANCH   5   6
HETATM    6  C6  UNL     1     -13.657   3.961  -2.589  1.00  0.00     0.027 C 
BRANCH   6   7
HETATM    7  C7  UNL     1     -12.211   3.858  -2.899  1.00  0.00     0.232 C 
BRANCH   7   8
HETATM    8  N1  UNL     1     -11.746   2.706  -3.580  1.00  0.00    -0.075 N 
ATOM      9  H12 UNL     1     -12.520   2.151  -3.944  1.00  0.00     0.277 HD
ATOM     10  H11 UNL     1     -11.297   2.952  -4.463  1.00  0.00     0.277 HD
BRANCH   8  11
HETATM   11  C8  UNL     1     -10.864   1.903  -2.742  1.00  0.00     0.237 C 
BRANCH  11  12
HETATM   12  C9  UNL     1     -10.479   2.649  -1.494  1.00  0.00     0.011 A 
HETATM   13  C10 UNL     1     -10.167   1.936  -0.240  1.00  0.00     0.007 A 
HETATM   14  C11 UNL     1      -9.061   2.564  -1.012  1.00  0.00     0.007 A 
ENDBRANCH  11  12
ENDBRANCH   8  11
ENDBRANCH   7   8
ENDBRANCH   6   7
ENDBRANCH   5   6
ENDBRANCH   4   5
ENDBRANCH   3   4
ENDBRANCH   2   3
ENDBRANCH   1   2
BRANCH   1  15
HETATM   15  C12 UNL     1     -16.605   2.598   1.197  1.00  0.00     0.000 C 
BRANCH  15  16
HETATM   16  C13 UNL     1     -15.578   2.184   2.186  1.00  0.00     0.000 C 
BRANCH  16  17
HETATM   17  C14 UNL     1     -16.156   1.872   3.520  1.00  0.00     0.000 C 
BRANCH  17  18
HETATM   18  C15 UNL     1     -15.771   0.443   3.931  1.00  0.00     0.000 C 
BRANCH  18  19
HETATM   19  C16 UNL     1     -16.175   0.239   5.363  1.00  0.00     0.002 C 
BRANCH  19  20
HETATM   20  C17 UNL     1     -16.983  -0.956   5.645  1.00  0.00     0.033 C 
BRANCH  20  21
HETATM   21  C18 UNL     1     -16.331  -2.132   6.250  1.00  0.00     0.186 C 
HETATM   22  C19 UNL     1     -15.093  -1.922   7.048  1.00  0.00     0.034 C 
HETATM   23  C20 UNL     1     -14.201  -3.083   6.573  1.00  0.00     0.029 C 
HETATM   24  C21 UNL     1     -14.593  -3.158   5.115  1.00  0.00     0.233 C 
HETATM   25  N2  UNL     1     -16.041  -3.117   5.207  1.00  0.00    -0.071 N 
ATOM     26  H22 UNL     1     -16.470  -4.028   5.370  1.00  0.00     0.277 HD
ATOM     27  H21 UNL     1     -16.505  -2.926   4.319  1.00  0.00     0.277 HD
ENDBRANCH  20  21
ENDBRANCH  19  20
ENDBRANCH  18  19
ENDBRANCH  17  18
ENDBRANCH  16  17
ENDBRANCH  15  16
ENDBRANCH   1  15
TORSDOF 16
ENDMDL
