MODEL 1
REMARK VINA RESULT: -6.946878467      0.000      0.000
REMARK  15 active torsions:
REMARK  status: ('A' for Active; 'I' for Inactive)
REMARK    1  A    between atoms: N1_2  and  N2_4 
REMARK    2  A    between atoms: N3_6  and  N4_8 
REMARK    3  A    between atoms: N4_8  and  C2_10 
REMARK    4  A    between atoms: C2_10  and  C3_11 
REMARK    5  A    between atoms: C3_11  and  N5_12 
REMARK    6  A    between atoms: N5_12  and  C4_14 
REMARK    7  A    between atoms: C4_14  and  C5_15 
REMARK    8  A    between atoms: C5_15  and  N6_16 
REMARK    9  A    between atoms: N6_16  and  C6_18 
REMARK   10  A    between atoms: C8_22  and  C9_23 
REMARK   11  A    between atoms: C9_23  and  O1_24 
REMARK   12  A    between atoms: C10_26  and  O2_27 
REMARK   13  A    between atoms: C10_26  and  C11_29 
REMARK   14  A    between atoms: C11_29  and  O3_30 
REMARK   15  A    between atoms: C12_32  and  O4_33 
ROOT
HETATM    1  C6  UNL     1      34.543  50.674  17.955  1.00  0.00     0.105 C 
HETATM    2  N7  UNL     1      34.270  49.438  17.990  1.00  0.00    -0.377 N 
ATOM      3  H7  UNL     1      34.683  48.814  17.296  1.00  0.00     0.160 HD
HETATM    4  C7  UNL     1      33.402  48.904  18.973  1.00  0.00     0.131 C 
HETATM    5  C8  UNL     1      33.439  49.681  20.288  1.00  0.00     0.067 C 
HETATM    6  C10 UNL     1      33.151  51.135  19.986  1.00  0.00     0.118 C 
HETATM    7  C12 UNL     1      34.017  51.642  18.884  1.00  0.00     0.222 C 
ENDROOT
BRANCH   1   8
HETATM    8  N6  UNL     1      35.440  51.114  16.912  1.00  0.00    -0.376 N 
ATOM      9  H6  UNL     1      36.199  51.756  17.141  1.00  0.00     0.160 HD
BRANCH   8  10
HETATM   10  C5  UNL     1      35.280  50.664  15.569  1.00  0.00     0.140 C 
BRANCH  10  11
HETATM   11  C4  UNL     1      34.778  51.633  14.576  1.00  0.00     0.133 C 
BRANCH  11  12
HETATM   12  N5  UNL     1      35.668  52.633  14.107  1.00  0.00    -0.418 N 
ATOM     13  H5  UNL     1      36.414  52.395  13.454  1.00  0.00     0.153 HD
BRANCH  12  14
HETATM   14  C3  UNL     1      35.507  53.968  14.559  1.00  0.00     0.135 C 
BRANCH  14  15
HETATM   15  C2  UNL     1      34.097  54.156  15.127  1.00  0.00     0.160 C 
BRANCH  15  16
HETATM   16  N4  UNL     1      34.203  54.677  16.463  1.00  0.00    -0.319 N 
ATOM     17  H4  UNL     1      33.401  55.134  16.898  1.00  0.00     0.181 HD
BRANCH  16  18
HETATM   18  N3  UNL     1      35.413  54.557  17.169  1.00  0.00    -0.233 N 
HETATM   19  N2  UNL     1      35.338  54.573  18.427  1.00  0.00    -0.233 N 
ATOM     20  H2  UNL     1      34.408  54.672  18.836  1.00  0.00     0.209 HD
ATOM     21  H3  UNL     1      36.306  54.462  16.688  1.00  0.00     0.209 HD
BRANCH  19  22
HETATM   22  N1  UNL     1      36.397  54.470  19.298  1.00  0.00    -0.325 N 
HETATM   23  C1  UNL     1      37.545  55.361  19.283  1.00  0.00     0.169 C 
ATOM     24  H1  UNL     1      36.376  53.725  19.994  1.00  0.00     0.181 HD
ENDBRANCH  19  22
ENDBRANCH  16  18
ENDBRANCH  15  16
ENDBRANCH  14  15
ENDBRANCH  12  14
ENDBRANCH  11  12
ENDBRANCH  10  11
ENDBRANCH   8  10
ENDBRANCH   1   8
BRANCH   7  25
HETATM   25  O4  UNL     1      33.323  52.639  18.170  1.00  0.00    -0.385 OA
ATOM     26  H4  UNL     1      32.422  52.668  18.471  1.00  0.00     0.210 HD
ENDBRANCH   7  25
BRANCH   6  27
HETATM   27  O2  UNL     1      31.814  51.199  19.576  1.00  0.00    -0.384 OA
ATOM     28  H2  UNL     1      31.322  51.549  20.310  1.00  0.00     0.210 HD
ENDBRANCH   6  27
BRANCH   6  29
HETATM   29  C11 UNL     1      33.391  52.036  21.174  1.00  0.00     0.205 C 
BRANCH  29  30
HETATM   30  O3  UNL     1      33.871  53.278  20.889  1.00  0.00    -0.398 OA
ATOM     31  H3  UNL     1      33.308  54.004  21.130  1.00  0.00     0.209 HD
ENDBRANCH  29  30
ENDBRANCH   6  29
BRANCH   5  32
HETATM   32  C9  UNL     1      32.411  49.034  21.166  1.00  0.00     0.173 C 
BRANCH  32  33
HETATM   33  O1  UNL     1      32.893  48.834  22.464  1.00  0.00    -0.400 OA
ATOM     34  H1  UNL     1      32.538  49.474  23.072  1.00  0.00     0.209 HD
ENDBRANCH  32  33
ENDBRANCH   5  32
TORSDOF 15
ENDMDL
MODEL 2
REMARK VINA RESULT: -6.468094297      2.945      6.497
REMARK  15 active torsions:
REMARK  status: ('A' for Active; 'I' for Inactive)
REMARK    1  A    between atoms: N1_2  and  N2_4 
REMARK    2  A    between atoms: N3_6  and  N4_8 
REMARK    3  A    between atoms: N4_8  and  C2_10 
REMARK    4  A    between atoms: C2_10  and  C3_11 
REMARK    5  A    between atoms: C3_11  and  N5_12 
REMARK    6  A    between atoms: N5_12  and  C4_14 
REMARK    7  A    between atoms: C4_14  and  C5_15 
REMARK    8  A    between atoms: C5_15  and  N6_16 
REMARK    9  A    between atoms: N6_16  and  C6_18 
REMARK   10  A    between atoms: C8_22  and  C9_23 
REMARK   11  A    between atoms: C9_23  and  O1_24 
REMARK   12  A    between atoms: C10_26  and  O2_27 
REMARK   13  A    between atoms: C10_26  and  C11_29 
REMARK   14  A    between atoms: C11_29  and  O3_30 
REMARK   15  A    between atoms: C12_32  and  O4_33 
ROOT
HETATM    1  C6  UNL     1      35.444  53.983  16.860  1.00  0.00     0.105 C 
HETATM    2  N7  UNL     1      34.285  54.491  16.923  1.00  0.00    -0.377 N 
ATOM      3  H7  UNL     1      34.028  55.051  17.737  1.00  0.00     0.160 HD
HETATM    4  C7  UNL     1      33.338  54.298  15.888  1.00  0.00     0.131 C 
HETATM    5  C8  UNL     1      33.984  54.122  14.515  1.00  0.00     0.067 C 
HETATM    6  C10 UNL     1      34.987  52.992  14.604  1.00  0.00     0.118 C 
HETATM    7  C12 UNL     1      35.910  53.178  15.759  1.00  0.00     0.222 C 
ENDROOT
BRANCH   1   8
HETATM    8  N6  UNL     1      36.331  54.243  17.968  1.00  0.00    -0.376 N 
ATOM      9  H6  UNL     1      37.256  54.634  17.790  1.00  0.00     0.160 HD
BRANCH   8  10
HETATM   10  C5  UNL     1      35.933  53.961  19.308  1.00  0.00     0.140 C 
BRANCH  10  11
HETATM   11  C4  UNL     1      35.566  52.571  19.637  1.00  0.00     0.133 C 
BRANCH  11  12
HETATM   12  N5  UNL     1      34.199  52.278  19.878  1.00  0.00    -0.418 N 
ATOM     13  H5  UNL     1      33.508  52.393  19.136  1.00  0.00     0.153 HD
BRANCH  12  14
HETATM   14  C3  UNL     1      33.804  51.825  21.162  1.00  0.00     0.135 C 
BRANCH  14  15
HETATM   15  C2  UNL     1      33.501  50.324  21.111  1.00  0.00     0.160 C 
BRANCH  15  16
HETATM   16  N4  UNL     1      34.736  49.598  21.239  1.00  0.00    -0.319 N 
ATOM     17  H4  UNL     1      35.197  49.531  22.146  1.00  0.00     0.181 HD
BRANCH  16  18
HETATM   18  N3  UNL     1      35.307  48.982  20.112  1.00  0.00    -0.233 N 
HETATM   19  N2  UNL     1      34.522  48.680  19.173  1.00  0.00    -0.233 N 
ATOM     20  H2  UNL     1      33.535  48.906  19.302  1.00  0.00     0.209 HD
ATOM     21  H3  UNL     1      36.307  48.788  20.056  1.00  0.00     0.209 HD
BRANCH  19  22
HETATM   22  N1  UNL     1      34.876  48.074  17.991  1.00  0.00    -0.325 N 
HETATM   23  C1  UNL     1      34.274  48.393  16.707  1.00  0.00     0.169 C 
ATOM     24  H1  UNL     1      35.603  47.360  18.015  1.00  0.00     0.181 HD
ENDBRANCH  19  22
ENDBRANCH  16  18
ENDBRANCH  15  16
ENDBRANCH  14  15
ENDBRANCH  12  14
ENDBRANCH  11  12
ENDBRANCH  10  11
ENDBRANCH   8  10
ENDBRANCH   1   8
BRANCH   7  25
HETATM   25  O4  UNL     1      36.305  51.915  16.244  1.00  0.00    -0.385 OA
ATOM     26  H4  UNL     1      36.822  51.474  15.580  1.00  0.00     0.210 HD
ENDBRANCH   7  25
BRANCH   6  27
HETATM   27  O2  UNL     1      34.248  51.820  14.800  1.00  0.00    -0.384 OA
ATOM     28  H2  UNL     1      34.168  51.705  15.740  1.00  0.00     0.210 HD
ENDBRANCH   6  27
BRANCH   6  29
HETATM   29  C11 UNL     1      35.852  52.882  13.371  1.00  0.00     0.205 C 
BRANCH  29  30
HETATM   30  O3  UNL     1      36.832  53.819  13.249  1.00  0.00    -0.398 OA
ATOM     31  H3  UNL     1      37.701  53.486  13.059  1.00  0.00     0.209 HD
ENDBRANCH  29  30
ENDBRANCH   6  29
BRANCH   5  32
HETATM   32  C9  UNL     1      32.852  53.847  13.571  1.00  0.00     0.173 C 
BRANCH  32  33
HETATM   33  O1  UNL     1      31.646  53.657  14.254  1.00  0.00    -0.400 OA
ATOM     34  H1  UNL     1      31.338  54.462  14.653  1.00  0.00     0.209 HD
ENDBRANCH  32  33
ENDBRANCH   5  32
TORSDOF 15
ENDMDL
MODEL 3
REMARK VINA RESULT: -6.395446702      2.354      4.907
REMARK  15 active torsions:
REMARK  status: ('A' for Active; 'I' for Inactive)
REMARK    1  A    between atoms: N1_2  and  N2_4 
REMARK    2  A    between atoms: N3_6  and  N4_8 
REMARK    3  A    between atoms: N4_8  and  C2_10 
REMARK    4  A    between atoms: C2_10  and  C3_11 
REMARK    5  A    between atoms: C3_11  and  N5_12 
REMARK    6  A    between atoms: N5_12  and  C4_14 
REMARK    7  A    between atoms: C4_14  and  C5_15 
REMARK    8  A    between atoms: C5_15  and  N6_16 
REMARK    9  A    between atoms: N6_16  and  C6_18 
REMARK   10  A    between atoms: C8_22  and  C9_23 
REMARK   11  A    between atoms: C9_23  and  O1_24 
REMARK   12  A    between atoms: C10_26  and  O2_27 
REMARK   13  A    between atoms: C10_26  and  C11_29 
REMARK   14  A    between atoms: C11_29  and  O3_30 
REMARK   15  A    between atoms: C12_32  and  O4_33 
ROOT
HETATM    1  C6  UNL     1      34.597  54.177  16.107  1.00  0.00     0.105 C 
HETATM    2  N7  UNL     1      35.693  54.430  15.524  1.00  0.00    -0.377 N 
ATOM      3  H7  UNL     1      35.681  54.786  14.568  1.00  0.00     0.160 HD
HETATM    4  C7  UNL     1      36.936  54.228  16.173  1.00  0.00     0.131 C 
HETATM    5  C8  UNL     1      36.855  54.413  17.688  1.00  0.00     0.067 C 
HETATM    6  C10 UNL     1      35.768  53.503  18.218  1.00  0.00     0.118 C 
HETATM    7  C12 UNL     1      34.500  53.673  17.454  1.00  0.00     0.222 C 
ENDROOT
BRANCH   1   8
HETATM    8  N6  UNL     1      33.389  54.419  15.356  1.00  0.00    -0.376 N 
ATOM      9  H6  UNL     1      32.525  54.639  15.852  1.00  0.00     0.160 HD
BRANCH   8  10
HETATM   10  C5  UNL     1      33.384  54.353  13.932  1.00  0.00     0.140 C 
BRANCH  10  11
HETATM   11  C4  UNL     1      32.946  53.092  13.304  1.00  0.00     0.133 C 
BRANCH  11  12
HETATM   12  N5  UNL     1      33.543  51.882  13.743  1.00  0.00    -0.418 N 
ATOM     13  H5  UNL     1      33.006  51.212  14.292  1.00  0.00     0.153 HD
BRANCH  12  14
HETATM   14  C3  UNL     1      34.895  51.617  13.409  1.00  0.00     0.135 C 
BRANCH  14  15
HETATM   15  C2  UNL     1      35.631  51.063  14.633  1.00  0.00     0.160 C 
BRANCH  15  16
HETATM   16  N4  UNL     1      34.659  50.559  15.567  1.00  0.00    -0.319 N 
ATOM     17  H4  UNL     1      33.684  50.849  15.495  1.00  0.00     0.181 HD
BRANCH  16  18
HETATM   18  N3  UNL     1      35.056  49.668  16.580  1.00  0.00    -0.233 N 
HETATM   19  N2  UNL     1      34.400  49.704  17.655  1.00  0.00    -0.233 N 
ATOM     20  H2  UNL     1      33.633  50.375  17.709  1.00  0.00     0.209 HD
ATOM     21  H3  UNL     1      35.836  49.024  16.451  1.00  0.00     0.209 HD
BRANCH  19  22
HETATM   22  N1  UNL     1      34.625  48.920  18.762  1.00  0.00    -0.325 N 
HETATM   23  C1  UNL     1      34.766  49.447  20.110  1.00  0.00     0.169 C 
ATOM     24  H1  UNL     1      34.697  47.912  18.631  1.00  0.00     0.181 HD
ENDBRANCH  19  22
ENDBRANCH  16  18
ENDBRANCH  15  16
ENDBRANCH  14  15
ENDBRANCH  12  14
ENDBRANCH  11  12
ENDBRANCH  10  11
ENDBRANCH   8  10
ENDBRANCH   1   8
BRANCH   7  25
HETATM   25  O4  UNL     1      33.800  52.449  17.440  1.00  0.00    -0.385 OA
ATOM     26  H4  UNL     1      34.230  51.838  18.027  1.00  0.00     0.210 HD
ENDBRANCH   7  25
BRANCH   6  27
HETATM   27  O2  UNL     1      36.227  52.193  18.045  1.00  0.00    -0.384 OA
ATOM     28  H2  UNL     1      36.899  52.053  18.703  1.00  0.00     0.210 HD
ENDBRANCH   6  27
BRANCH   6  29
HETATM   29  C11 UNL     1      35.440  53.770  19.667  1.00  0.00     0.205 C 
BRANCH  29  30
HETATM   30  O3  UNL     1      34.137  53.594  20.022  1.00  0.00    -0.398 OA
ATOM     31  H3  UNL     1      33.944  53.688  20.947  1.00  0.00     0.209 HD
ENDBRANCH  29  30
ENDBRANCH   6  29
BRANCH   5  32
HETATM   32  C9  UNL     1      38.222  54.081  18.206  1.00  0.00     0.173 C 
BRANCH  32  33
HETATM   33  O1  UNL     1      38.803  53.027  17.493  1.00  0.00    -0.400 OA
ATOM     34  H1  UNL     1      39.667  53.255  17.172  1.00  0.00     0.209 HD
ENDBRANCH  32  33
ENDBRANCH   5  32
TORSDOF 15
ENDMDL
MODEL 4
REMARK VINA RESULT: -6.392790877      3.079      6.316
REMARK  15 active torsions:
REMARK  status: ('A' for Active; 'I' for Inactive)
REMARK    1  A    between atoms: N1_2  and  N2_4 
REMARK    2  A    between atoms: N3_6  and  N4_8 
REMARK    3  A    between atoms: N4_8  and  C2_10 
REMARK    4  A    between atoms: C2_10  and  C3_11 
REMARK    5  A    between atoms: C3_11  and  N5_12 
REMARK    6  A    between atoms: N5_12  and  C4_14 
REMARK    7  A    between atoms: C4_14  and  C5_15 
REMARK    8  A    between atoms: C5_15  and  N6_16 
REMARK    9  A    between atoms: N6_16  and  C6_18 
REMARK   10  A    between atoms: C8_22  and  C9_23 
REMARK   11  A    between atoms: C9_23  and  O1_24 
REMARK   12  A    between atoms: C10_26  and  O2_27 
REMARK   13  A    between atoms: C10_26  and  C11_29 
REMARK   14  A    between atoms: C11_29  and  O3_30 
REMARK   15  A    between atoms: C12_32  and  O4_33 
ROOT
HETATM    1  C6  UNL     1      35.524  52.761  17.214  1.00  0.00     0.105 C 
HETATM    2  N7  UNL     1      35.931  51.631  16.811  1.00  0.00    -0.377 N 
ATOM      3  H7  UNL     1      36.311  50.967  17.486  1.00  0.00     0.160 HD
HETATM    4  C7  UNL     1      35.870  51.272  15.443  1.00  0.00     0.131 C 
HETATM    5  C8  UNL     1      34.710  51.937  14.703  1.00  0.00     0.067 C 
HETATM    6  C10 UNL     1      34.814  53.432  14.907  1.00  0.00     0.118 C 
HETATM    7  C12 UNL     1      34.971  53.772  16.349  1.00  0.00     0.222 C 
ENDROOT
BRANCH   1   8
HETATM    8  N6  UNL     1      35.632  53.026  18.629  1.00  0.00    -0.376 N 
ATOM      9  H6  UNL     1      36.552  53.177  19.043  1.00  0.00     0.160 HD
BRANCH   8  10
HETATM   10  C5  UNL     1      34.472  53.079  19.456  1.00  0.00     0.140 C 
BRANCH  10  11
HETATM   11  C4  UNL     1      33.422  52.066  19.233  1.00  0.00     0.133 C 
BRANCH  11  12
HETATM   12  N5  UNL     1      32.584  51.719  20.323  1.00  0.00    -0.418 N 
ATOM     13  H5  UNL     1      31.572  51.817  20.247  1.00  0.00     0.153 HD
BRANCH  12  14
HETATM   14  C3  UNL     1      33.171  51.234  21.520  1.00  0.00     0.135 C 
BRANCH  14  15
HETATM   15  C2  UNL     1      33.469  49.738  21.380  1.00  0.00     0.160 C 
BRANCH  15  16
HETATM   16  N4  UNL     1      34.892  49.560  21.255  1.00  0.00    -0.319 N 
ATOM     17  H4  UNL     1      35.505  49.793  22.035  1.00  0.00     0.181 HD
BRANCH  16  18
HETATM   18  N3  UNL     1      35.434  49.066  20.055  1.00  0.00    -0.233 N 
HETATM   19  N2  UNL     1      34.618  48.602  19.215  1.00  0.00    -0.233 N 
ATOM     20  H2  UNL     1      33.630  48.620  19.467  1.00  0.00     0.209 HD
ATOM     21  H3  UNL     1      36.437  49.082  19.875  1.00  0.00     0.209 HD
BRANCH  19  22
HETATM   22  N1  UNL     1      34.941  48.073  17.987  1.00  0.00    -0.325 N 
HETATM   23  C1  UNL     1      34.195  48.344  16.769  1.00  0.00     0.169 C 
ATOM     24  H1  UNL     1      35.750  47.456  17.927  1.00  0.00     0.181 HD
ENDBRANCH  19  22
ENDBRANCH  16  18
ENDBRANCH  15  16
ENDBRANCH  14  15
ENDBRANCH  12  14
ENDBRANCH  11  12
ENDBRANCH  10  11
ENDBRANCH   8  10
ENDBRANCH   1   8
BRANCH   7  25
HETATM   25  O4  UNL     1      35.735  54.951  16.467  1.00  0.00    -0.385 OA
ATOM     26  H4  UNL     1      36.139  55.146  15.630  1.00  0.00     0.210 HD
ENDBRANCH   7  25
BRANCH   6  27
HETATM   27  O2  UNL     1      35.959  53.849  14.218  1.00  0.00    -0.384 OA
ATOM     28  H2  UNL     1      35.815  54.757  13.978  1.00  0.00     0.210 HD
ENDBRANCH   6  27
BRANCH   6  29
HETATM   29  C11 UNL     1      33.594  54.174  14.417  1.00  0.00     0.205 C 
BRANCH  29  30
HETATM   30  O3  UNL     1      32.432  53.464  14.410  1.00  0.00    -0.398 OA
ATOM     31  H3  UNL     1      31.803  53.694  15.083  1.00  0.00     0.209 HD
ENDBRANCH  29  30
ENDBRANCH   6  29
BRANCH   5  32
HETATM   32  C9  UNL     1      34.852  51.514  13.271  1.00  0.00     0.173 C 
BRANCH  32  33
HETATM   33  O1  UNL     1      33.615  51.194  12.703  1.00  0.00    -0.400 OA
ATOM     34  H1  UNL     1      33.255  51.924  12.212  1.00  0.00     0.209 HD
ENDBRANCH  32  33
ENDBRANCH   5  32
TORSDOF 15
ENDMDL
MODEL 5
REMARK VINA RESULT: -6.389766659      2.037      3.682
REMARK  15 active torsions:
REMARK  status: ('A' for Active; 'I' for Inactive)
REMARK    1  A    between atoms: N1_2  and  N2_4 
REMARK    2  A    between atoms: N3_6  and  N4_8 
REMARK    3  A    between atoms: N4_8  and  C2_10 
REMARK    4  A    between atoms: C2_10  and  C3_11 
REMARK    5  A    between atoms: C3_11  and  N5_12 
REMARK    6  A    between atoms: N5_12  and  C4_14 
REMARK    7  A    between atoms: C4_14  and  C5_15 
REMARK    8  A    between atoms: C5_15  and  N6_16 
REMARK    9  A    between atoms: N6_16  and  C6_18 
REMARK   10  A    between atoms: C8_22  and  C9_23 
REMARK   11  A    between atoms: C9_23  and  O1_24 
REMARK   12  A    between atoms: C10_26  and  O2_27 
REMARK   13  A    between atoms: C10_26  and  C11_29 
REMARK   14  A    between atoms: C11_29  and  O3_30 
REMARK   15  A    between atoms: C12_32  and  O4_33 
ROOT
HETATM    1  C6  UNL     1      35.259  51.961  19.680  1.00  0.00     0.105 C 
HETATM    2  N7  UNL     1      35.085  51.081  18.785  1.00  0.00    -0.377 N 
ATOM      3  H7  UNL     1      35.776  50.981  18.041  1.00  0.00     0.160 HD
HETATM    4  C7  UNL     1      33.951  50.233  18.796  1.00  0.00     0.131 C 
HETATM    5  C8  UNL     1      33.428  49.956  20.204  1.00  0.00     0.067 C 
HETATM    6  C10 UNL     1      33.168  51.282  20.883  1.00  0.00     0.118 C 
HETATM    7  C12 UNL     1      34.348  52.186  20.773  1.00  0.00     0.222 C 
ENDROOT
BRANCH   1   8
HETATM    8  N6  UNL     1      36.449  52.771  19.575  1.00  0.00    -0.376 N 
ATOM      9  H6  UNL     1      37.204  52.644  20.249  1.00  0.00     0.160 HD
BRANCH   8  10
HETATM   10  C5  UNL     1      36.584  53.745  18.543  1.00  0.00     0.140 C 
BRANCH  10  11
HETATM   11  C4  UNL     1      37.526  54.859  18.770  1.00  0.00     0.133 C 
BRANCH  11  12
HETATM   12  N5  UNL     1      37.655  55.843  17.757  1.00  0.00    -0.418 N 
ATOM     13  H5  UNL     1      37.217  56.758  17.868  1.00  0.00     0.153 HD
BRANCH  12  14
HETATM   14  C3  UNL     1      38.399  55.541  16.589  1.00  0.00     0.135 C 
BRANCH  14  15
HETATM   15  C2  UNL     1      37.643  56.036  15.352  1.00  0.00     0.160 C 
BRANCH  15  16
HETATM   16  N4  UNL     1      37.040  54.906  14.696  1.00  0.00    -0.319 N 
ATOM     17  H4  UNL     1      37.571  54.371  14.009  1.00  0.00     0.181 HD
BRANCH  16  18
HETATM   18  N3  UNL     1      35.717  54.541  15.003  1.00  0.00    -0.233 N 
HETATM   19  N2  UNL     1      34.907  54.489  14.040  1.00  0.00    -0.233 N 
ATOM     20  H2  UNL     1      35.270  54.714  13.113  1.00  0.00     0.209 HD
ATOM     21  H3  UNL     1      35.428  54.329  15.957  1.00  0.00     0.209 HD
BRANCH  19  22
HETATM   22  N1  UNL     1      33.575  54.154  14.125  1.00  0.00    -0.325 N 
HETATM   23  C1  UNL     1      32.762  53.777  12.981  1.00  0.00     0.169 C 
ATOM     24  H1  UNL     1      33.133  54.173  15.044  1.00  0.00     0.181 HD
ENDBRANCH  19  22
ENDBRANCH  16  18
ENDBRANCH  15  16
ENDBRANCH  14  15
ENDBRANCH  12  14
ENDBRANCH  11  12
ENDBRANCH  10  11
ENDBRANCH   8  10
ENDBRANCH   1   8
BRANCH   7  25
HETATM   25  O4  UNL     1      33.905  53.524  20.738  1.00  0.00    -0.385 OA
ATOM     26  H4  UNL     1      33.339  53.684  21.484  1.00  0.00     0.210 HD
ENDBRANCH   7  25
BRANCH   6  27
HETATM   27  O2  UNL     1      32.087  51.867  20.214  1.00  0.00    -0.384 OA
ATOM     28  H2  UNL     1      32.175  52.806  20.328  1.00  0.00     0.210 HD
ENDBRANCH   6  27
BRANCH   6  29
HETATM   29  C11 UNL     1      32.871  51.136  22.356  1.00  0.00     0.205 C 
BRANCH  29  30
HETATM   30  O3  UNL     1      33.698  51.814  23.198  1.00  0.00    -0.398 OA
ATOM     31  H3  UNL     1      33.332  52.039  24.046  1.00  0.00     0.209 HD
ENDBRANCH  29  30
ENDBRANCH   6  29
BRANCH   5  32
HETATM   32  C9  UNL     1      32.193  49.124  20.017  1.00  0.00     0.173 C 
BRANCH  32  33
HETATM   33  O1  UNL     1      31.430  49.571  18.933  1.00  0.00    -0.400 OA
ATOM     34  H1  UNL     1      31.332  50.516  18.939  1.00  0.00     0.209 HD
ENDBRANCH  32  33
ENDBRANCH   5  32
TORSDOF 15
ENDMDL
