MODEL 1
REMARK VINA RESULT: -6.850932622      0.000      0.000
REMARK  15 active torsions:
REMARK  status: ('A' for Active; 'I' for Inactive)
REMARK    1  A    between atoms: N1_1  and  C1_5 
REMARK    2  A    between atoms: C1_5  and  C2_6 
REMARK    3  A    between atoms: C2_6  and  N2_7 
REMARK    4  A    between atoms: N2_7  and  C3_10 
REMARK    5  A    between atoms: C3_10  and  C4_11 
REMARK    6  A    between atoms: C4_11  and  C5_12 
REMARK    7  A    between atoms: C5_12  and  C6_13 
REMARK    8  A    between atoms: C6_13  and  C7_14 
REMARK    9  A    between atoms: C7_14  and  C8_15 
REMARK   10  A    between atoms: C9_18  and  O1_19 
REMARK   11  A    between atoms: O1_19  and  C10_20 
REMARK   12  A    between atoms: C11_23  and  N6_24 
REMARK   13  A    between atoms: C12_28  and  O2_29 
REMARK   14  A    between atoms: C13_31  and  O3_32 
REMARK   15  A    between atoms: C14_34  and  O4_35 
ROOT
HETATM    1  C8  UNL     1      34.195  49.563  19.900  1.00  0.00     0.114 C 
HETATM    2  N3  UNL     1      35.274  50.490  19.614  1.00  0.00    -0.365 N 
ATOM      3  H3  UNL     1      36.078  50.118  19.107  1.00  0.00     0.161 HD
HETATM    4  C9  UNL     1      35.315  51.716  19.931  1.00  0.00     0.148 C 
HETATM    5  C12 UNL     1      34.162  52.270  20.662  1.00  0.00     0.223 C 
HETATM    6  C13 UNL     1      32.879  51.716  20.144  1.00  0.00     0.185 C 
HETATM    7  C14 UNL     1      32.894  50.288  19.729  1.00  0.00     0.172 C 
ENDROOT
BRANCH   1   8
HETATM    8  C7  UNL     1      34.300  48.487  18.830  1.00  0.00     0.028 C 
BRANCH   8   9
HETATM    9  C6  UNL     1      33.451  48.769  17.620  1.00  0.00     0.002 C 
BRANCH   9  10
HETATM   10  C5  UNL     1      34.342  48.851  16.405  1.00  0.00     0.002 C 
BRANCH  10  11
HETATM   11  C4  UNL     1      35.068  50.143  16.253  1.00  0.00     0.027 C 
BRANCH  11  12
HETATM   12  C3  UNL     1      34.818  50.760  14.903  1.00  0.00     0.232 C 
BRANCH  12  13
HETATM   13  N2  UNL     1      35.266  52.134  14.827  1.00  0.00    -0.074 N 
ATOM     14  H22 UNL     1      36.281  52.204  14.907  1.00  0.00     0.277 HD
ATOM     15  H21 UNL     1      35.009  52.661  15.661  1.00  0.00     0.277 HD
BRANCH  13  16
HETATM   16  C2  UNL     1      34.783  52.766  13.630  1.00  0.00     0.259 C 
BRANCH  16  17
HETATM   17  C1  UNL     1      34.322  54.181  13.966  1.00  0.00     0.257 C 
BRANCH  17  18
HETATM   18  N1  UNL     1      33.476  54.157  15.138  1.00  0.00    -0.078 N 
ATOM     19  H13 UNL     1      32.553  53.772  14.936  1.00  0.00     0.274 HD
ATOM     20  H12 UNL     1      33.782  53.462  15.817  1.00  0.00     0.274 HD
ATOM     21  H11 UNL     1      33.421  55.091  15.544  1.00  0.00     0.274 HD
ENDBRANCH  17  18
ENDBRANCH  16  17
ENDBRANCH  13  16
ENDBRANCH  12  13
ENDBRANCH  11  12
ENDBRANCH  10  11
ENDBRANCH   9  10
ENDBRANCH   8   9
ENDBRANCH   1   8
BRANCH   7  22
HETATM   22  O4  UNL     1      31.839  49.620  20.371  1.00  0.00    -0.391 OA
ATOM     23  H4  UNL     1      31.217  50.229  20.750  1.00  0.00     0.210 HD
ENDBRANCH   7  22
BRANCH   4  24
HETATM   24  O1  UNL     1      36.448  52.467  19.570  1.00  0.00    -0.310 OA
BRANCH  24  25
HETATM   25  C10 UNL     1      36.541  52.943  18.226  1.00  0.00     0.286 A 
HETATM   26  N4  UNL     1      35.276  53.057  17.572  1.00  0.00    -0.110 NA
HETATM   27  N5  UNL     1      35.387  54.414  17.502  1.00  0.00    -0.108 NA
HETATM   28  C11 UNL     1      36.700  54.397  18.064  1.00  0.00     0.337 A 
BRANCH  28  29
HETATM   29  N6  UNL     1      36.739  55.082  19.346  1.00  0.00    -0.056 N 
ATOM     30  H63 UNL     1      36.014  54.734  19.974  1.00  0.00     0.276 HD
ATOM     31  H62 UNL     1      37.561  54.812  19.885  1.00  0.00     0.276 HD
ATOM     32  H61 UNL     1      36.681  56.094  19.236  1.00  0.00     0.276 HD
ENDBRANCH  28  29
ENDBRANCH  24  25
ENDBRANCH   4  24
BRANCH   6  33
HETATM   33  O3  UNL     1      31.813  51.977  21.044  1.00  0.00    -0.390 OA
ATOM     34  H3  UNL     1      31.624  51.214  21.577  1.00  0.00     0.210 HD
ENDBRANCH   6  33
BRANCH   5  35
HETATM   35  O2  UNL     1      34.190  53.677  20.526  1.00  0.00    -0.385 OA
ATOM     36  H2  UNL     1      33.403  54.029  20.925  1.00  0.00     0.210 HD
ENDBRANCH   5  35
TORSDOF 15
ENDMDL
MODEL 2
REMARK VINA RESULT: -6.749786286      3.058      5.729
REMARK  15 active torsions:
REMARK  status: ('A' for Active; 'I' for Inactive)
REMARK    1  A    between atoms: N1_1  and  C1_5 
REMARK    2  A    between atoms: C1_5  and  C2_6 
REMARK    3  A    between atoms: C2_6  and  N2_7 
REMARK    4  A    between atoms: N2_7  and  C3_10 
REMARK    5  A    between atoms: C3_10  and  C4_11 
REMARK    6  A    between atoms: C4_11  and  C5_12 
REMARK    7  A    between atoms: C5_12  and  C6_13 
REMARK    8  A    between atoms: C6_13  and  C7_14 
REMARK    9  A    between atoms: C7_14  and  C8_15 
REMARK   10  A    between atoms: C9_18  and  O1_19 
REMARK   11  A    between atoms: O1_19  and  C10_20 
REMARK   12  A    between atoms: C11_23  and  N6_24 
REMARK   13  A    between atoms: C12_28  and  O2_29 
REMARK   14  A    between atoms: C13_31  and  O3_32 
REMARK   15  A    between atoms: C14_34  and  O4_35 
ROOT
HETATM    1  C8  UNL     1      35.051  53.119  17.744  1.00  0.00     0.114 C 
HETATM    2  N3  UNL     1      35.783  54.276  17.264  1.00  0.00    -0.365 N 
ATOM      3  H3  UNL     1      36.030  54.985  17.956  1.00  0.00     0.161 HD
HETATM    4  C9  UNL     1      36.146  54.493  16.069  1.00  0.00     0.148 C 
HETATM    5  C12 UNL     1      35.798  53.479  15.057  1.00  0.00     0.223 C 
HETATM    6  C13 UNL     1      35.946  52.100  15.603  1.00  0.00     0.185 C 
HETATM    7  C14 UNL     1      35.563  51.907  17.026  1.00  0.00     0.172 C 
ENDROOT
BRANCH   1   8
HETATM    8  C7  UNL     1      35.412  53.004  19.218  1.00  0.00     0.028 C 
BRANCH   8   9
HETATM    9  C6  UNL     1      34.222  53.129  20.131  1.00  0.00     0.002 C 
BRANCH   9  10
HETATM   10  C5  UNL     1      33.269  51.993  19.850  1.00  0.00     0.002 C 
BRANCH  10  11
HETATM   11  C4  UNL     1      33.274  50.910  20.872  1.00  0.00     0.027 C 
BRANCH  11  12
HETATM   12  C3  UNL     1      33.780  49.613  20.298  1.00  0.00     0.232 C 
BRANCH  12  13
HETATM   13  N2  UNL     1      35.198  49.645  20.013  1.00  0.00    -0.074 N 
ATOM     14  H22 UNL     1      35.482  50.539  19.614  1.00  0.00     0.277 HD
ATOM     15  H21 UNL     1      35.437  49.042  19.226  1.00  0.00     0.277 HD
BRANCH  13  16
HETATM   16  C2  UNL     1      35.964  49.318  21.184  1.00  0.00     0.259 C 
BRANCH  16  17
HETATM   17  C1  UNL     1      36.731  50.556  21.638  1.00  0.00     0.257 C 
BRANCH  17  18
HETATM   18  N1  UNL     1      37.193  50.378  22.995  1.00  0.00    -0.078 N 
ATOM     19  H13 UNL     1      37.410  51.267  23.446  1.00  0.00     0.274 HD
ATOM     20  H12 UNL     1      36.445  50.074  23.618  1.00  0.00     0.274 HD
ATOM     21  H11 UNL     1      37.987  49.737  23.010  1.00  0.00     0.274 HD
ENDBRANCH  17  18
ENDBRANCH  16  17
ENDBRANCH  13  16
ENDBRANCH  12  13
ENDBRANCH  11  12
ENDBRANCH  10  11
ENDBRANCH   9  10
ENDBRANCH   8   9
ENDBRANCH   1   8
BRANCH   7  22
HETATM   22  O4  UNL     1      34.661  50.834  17.110  1.00  0.00    -0.391 OA
ATOM     23  H4  UNL     1      34.194  50.704  16.293  1.00  0.00     0.210 HD
ENDBRANCH   7  22
BRANCH   4  24
HETATM   24  O1  UNL     1      36.852  55.675  15.784  1.00  0.00    -0.310 OA
BRANCH  24  25
HETATM   25  C10 UNL     1      38.122  55.870  16.409  1.00  0.00     0.286 A 
HETATM   26  N4  UNL     1      38.700  54.666  16.914  1.00  0.00    -0.110 NA
HETATM   27  N5  UNL     1      39.723  54.730  16.017  1.00  0.00    -0.108 NA
HETATM   28  C11 UNL     1      39.277  55.987  15.505  1.00  0.00     0.337 A 
BRANCH  28  29
HETATM   29  N6  UNL     1      38.883  55.884  14.110  1.00  0.00    -0.056 N 
ATOM     30  H63 UNL     1      38.308  55.057  13.947  1.00  0.00     0.276 HD
ATOM     31  H62 UNL     1      38.202  56.602  13.862  1.00  0.00     0.276 HD
ATOM     32  H61 UNL     1      39.690  55.905  13.486  1.00  0.00     0.276 HD
ENDBRANCH  28  29
ENDBRANCH  24  25
ENDBRANCH   4  24
BRANCH   6  33
HETATM   33  O3  UNL     1      35.303  51.151  14.766  1.00  0.00    -0.390 OA
ATOM     34  H3  UNL     1      35.247  50.305  15.192  1.00  0.00     0.210 HD
ENDBRANCH   6  33
BRANCH   5  35
HETATM   35  O2  UNL     1      36.643  53.668  13.939  1.00  0.00    -0.385 OA
ATOM     36  H2  UNL     1      36.366  54.458  13.490  1.00  0.00     0.210 HD
ENDBRANCH   5  35
TORSDOF 15
ENDMDL
MODEL 3
REMARK VINA RESULT: -6.710123667      3.201      5.595
REMARK  15 active torsions:
REMARK  status: ('A' for Active; 'I' for Inactive)
REMARK    1  A    between atoms: N1_1  and  C1_5 
REMARK    2  A    between atoms: C1_5  and  C2_6 
REMARK    3  A    between atoms: C2_6  and  N2_7 
REMARK    4  A    between atoms: N2_7  and  C3_10 
REMARK    5  A    between atoms: C3_10  and  C4_11 
REMARK    6  A    between atoms: C4_11  and  C5_12 
REMARK    7  A    between atoms: C5_12  and  C6_13 
REMARK    8  A    between atoms: C6_13  and  C7_14 
REMARK    9  A    between atoms: C7_14  and  C8_15 
REMARK   10  A    between atoms: C9_18  and  O1_19 
REMARK   11  A    between atoms: O1_19  and  C10_20 
REMARK   12  A    between atoms: C11_23  and  N6_24 
REMARK   13  A    between atoms: C12_28  and  O2_29 
REMARK   14  A    between atoms: C13_31  and  O3_32 
REMARK   15  A    between atoms: C14_34  and  O4_35 
ROOT
HETATM    1  C8  UNL     1      35.280  53.508  17.502  1.00  0.00     0.114 C 
HETATM    2  N3  UNL     1      36.084  54.621  17.032  1.00  0.00    -0.365 N 
ATOM      3  H3  UNL     1      36.415  55.280  17.737  1.00  0.00     0.161 HD
HETATM    4  C9  UNL     1      36.415  54.855  15.831  1.00  0.00     0.148 C 
HETATM    5  C12 UNL     1      35.947  53.912  14.800  1.00  0.00     0.223 C 
HETATM    6  C13 UNL     1      36.003  52.505  15.289  1.00  0.00     0.185 C 
HETATM    7  C14 UNL     1      35.663  52.288  16.719  1.00  0.00     0.172 C 
ENDROOT
BRANCH   1   8
HETATM    8  C7  UNL     1      35.688  53.308  18.954  1.00  0.00     0.028 C 
BRANCH   8   9
HETATM    9  C6  UNL     1      34.536  53.424  19.915  1.00  0.00     0.002 C 
BRANCH   9  10
HETATM   10  C5  UNL     1      33.862  52.080  20.036  1.00  0.00     0.002 C 
BRANCH  10  11
HETATM   11  C4  UNL     1      34.328  51.251  21.182  1.00  0.00     0.027 C 
BRANCH  11  12
HETATM   12  C3  UNL     1      35.079  50.034  20.713  1.00  0.00     0.232 C 
BRANCH  12  13
HETATM   13  N2  UNL     1      34.916  49.790  19.296  1.00  0.00    -0.074 N 
ATOM     14  H22 UNL     1      35.815  49.676  18.827  1.00  0.00     0.277 HD
ATOM     15  H21 UNL     1      34.591  50.623  18.805  1.00  0.00     0.277 HD
BRANCH  13  16
HETATM   16  C2  UNL     1      34.051  48.666  19.065  1.00  0.00     0.259 C 
BRANCH  16  17
HETATM   17  C1  UNL     1      34.637  47.809  17.948  1.00  0.00     0.257 C 
BRANCH  17  18
HETATM   18  N1  UNL     1      34.495  48.490  16.680  1.00  0.00    -0.078 N 
ATOM     19  H13 UNL     1      33.668  48.179  16.169  1.00  0.00     0.274 HD
ATOM     20  H12 UNL     1      34.237  49.469  16.798  1.00  0.00     0.274 HD
ATOM     21  H11 UNL     1      35.348  48.382  16.131  1.00  0.00     0.274 HD
ENDBRANCH  17  18
ENDBRANCH  16  17
ENDBRANCH  13  16
ENDBRANCH  12  13
ENDBRANCH  11  12
ENDBRANCH  10  11
ENDBRANCH   9  10
ENDBRANCH   8   9
ENDBRANCH   1   8
BRANCH   7  22
HETATM   22  O4  UNL     1      34.680  51.289  16.803  1.00  0.00    -0.391 OA
ATOM     23  H4  UNL     1      34.601  50.804  15.990  1.00  0.00     0.210 HD
ENDBRANCH   7  22
BRANCH   4  24
HETATM   24  O1  UNL     1      37.203  55.987  15.558  1.00  0.00    -0.310 OA
BRANCH  24  25
HETATM   25  C10 UNL     1      38.501  56.065  16.152  1.00  0.00     0.286 A 
HETATM   26  N4  UNL     1      38.992  54.808  16.618  1.00  0.00    -0.110 NA
HETATM   27  N5  UNL     1      39.993  54.808  15.694  1.00  0.00    -0.108 NA
HETATM   28  C11 UNL     1      39.638  56.107  15.219  1.00  0.00     0.337 A 
BRANCH  28  29
HETATM   29  N6  UNL     1      39.201  56.066  13.834  1.00  0.00    -0.056 N 
ATOM     30  H63 UNL     1      39.929  55.692  13.226  1.00  0.00     0.276 HD
ATOM     31  H62 UNL     1      38.490  55.350  13.689  1.00  0.00     0.276 HD
ATOM     32  H61 UNL     1      38.880  56.979  13.511  1.00  0.00     0.276 HD
ENDBRANCH  28  29
ENDBRANCH  24  25
ENDBRANCH   4  24
BRANCH   6  33
HETATM   33  O3  UNL     1      35.252  51.644  14.447  1.00  0.00    -0.390 OA
ATOM     34  H3  UNL     1      35.821  51.173  13.850  1.00  0.00     0.210 HD
ENDBRANCH   6  33
BRANCH   5  35
HETATM   35  O2  UNL     1      36.758  54.077  13.653  1.00  0.00    -0.385 OA
ATOM     36  H2  UNL     1      36.824  55.006  13.469  1.00  0.00     0.210 HD
ENDBRANCH   5  35
TORSDOF 15
ENDMDL
MODEL 4
REMARK VINA RESULT: -6.673606254      3.443      5.871
REMARK  15 active torsions:
REMARK  status: ('A' for Active; 'I' for Inactive)
REMARK    1  A    between atoms: N1_1  and  C1_5 
REMARK    2  A    between atoms: C1_5  and  C2_6 
REMARK    3  A    between atoms: C2_6  and  N2_7 
REMARK    4  A    between atoms: N2_7  and  C3_10 
REMARK    5  A    between atoms: C3_10  and  C4_11 
REMARK    6  A    between atoms: C4_11  and  C5_12 
REMARK    7  A    between atoms: C5_12  and  C6_13 
REMARK    8  A    between atoms: C6_13  and  C7_14 
REMARK    9  A    between atoms: C7_14  and  C8_15 
REMARK   10  A    between atoms: C9_18  and  O1_19 
REMARK   11  A    between atoms: O1_19  and  C10_20 
REMARK   12  A    between atoms: C11_23  and  N6_24 
REMARK   13  A    between atoms: C12_28  and  O2_29 
REMARK   14  A    between atoms: C13_31  and  O3_32 
REMARK   15  A    between atoms: C14_34  and  O4_35 
ROOT
HETATM    1  C8  UNL     1      34.657  53.673  16.178  1.00  0.00     0.114 C 
HETATM    2  N3  UNL     1      35.615  54.756  16.058  1.00  0.00    -0.365 N 
ATOM      3  H3  UNL     1      35.736  55.357  16.874  1.00  0.00     0.161 HD
HETATM    4  C9  UNL     1      36.316  55.029  15.037  1.00  0.00     0.148 C 
HETATM    5  C12 UNL     1      36.154  54.171  13.850  1.00  0.00     0.223 C 
HETATM    6  C13 UNL     1      35.993  52.741  14.236  1.00  0.00     0.185 C 
HETATM    7  C14 UNL     1      35.212  52.472  15.472  1.00  0.00     0.172 C 
ENDROOT
BRANCH   1   8
HETATM    8  C7  UNL     1      34.580  53.374  17.668  1.00  0.00     0.028 C 
BRANCH   8   9
HETATM    9  C6  UNL     1      35.716  52.517  18.160  1.00  0.00     0.002 C 
BRANCH   9  10
HETATM   10  C5  UNL     1      35.635  52.414  19.663  1.00  0.00     0.002 C 
BRANCH  10  11
HETATM   11  C4  UNL     1      34.691  51.378  20.166  1.00  0.00     0.027 C 
BRANCH  11  12
HETATM   12  C3  UNL     1      35.424  50.179  20.706  1.00  0.00     0.232 C 
BRANCH  12  13
HETATM   13  N2  UNL     1      35.286  49.013  19.860  1.00  0.00    -0.074 N 
ATOM     14  H22 UNL     1      35.375  48.148  20.393  1.00  0.00     0.277 HD
ATOM     15  H21 UNL     1      36.090  48.898  19.244  1.00  0.00     0.277 HD
BRANCH  13  16
HETATM   16  C2  UNL     1      34.054  49.058  19.123  1.00  0.00     0.259 C 
BRANCH  16  17
HETATM   17  C1  UNL     1      34.216  48.258  17.834  1.00  0.00     0.257 C 
BRANCH  17  18
HETATM   18  N1  UNL     1      34.712  49.115  16.782  1.00  0.00    -0.078 N 
ATOM     19  H13 UNL     1      34.039  49.841  16.530  1.00  0.00     0.274 HD
ATOM     20  H12 UNL     1      35.467  49.720  17.104  1.00  0.00     0.274 HD
ATOM     21  H11 UNL     1      34.988  48.553  15.977  1.00  0.00     0.274 HD
ENDBRANCH  17  18
ENDBRANCH  16  17
ENDBRANCH  13  16
ENDBRANCH  12  13
ENDBRANCH  11  12
ENDBRANCH  10  11
ENDBRANCH   9  10
ENDBRANCH   8   9
ENDBRANCH   1   8
BRANCH   7  22
HETATM   22  O4  UNL     1      34.211  51.533  15.180  1.00  0.00    -0.391 OA
ATOM     23  H4  UNL     1      34.383  51.079  14.363  1.00  0.00     0.210 HD
ENDBRANCH   7  22
BRANCH   4  24
HETATM   24  O1  UNL     1      37.198  56.123  15.100  1.00  0.00    -0.310 OA
BRANCH  24  25
HETATM   25  C10 UNL     1      38.254  56.083  16.061  1.00  0.00     0.286 A 
HETATM   26  N4  UNL     1      38.519  54.773  16.565  1.00  0.00    -0.110 NA
HETATM   27  N5  UNL     1      39.754  54.756  15.988  1.00  0.00    -0.108 NA
HETATM   28  C11 UNL     1      39.622  56.098  15.520  1.00  0.00     0.337 A 
BRANCH  28  29
HETATM   29  N6  UNL     1      39.627  56.159  14.068  1.00  0.00    -0.056 N 
ATOM     30  H63 UNL     1      39.215  55.320  13.660  1.00  0.00     0.276 HD
ATOM     31  H62 UNL     1      38.960  56.849  13.723  1.00  0.00     0.276 HD
ATOM     32  H61 UNL     1      40.564  56.330  13.700  1.00  0.00     0.276 HD
ENDBRANCH  28  29
ENDBRANCH  24  25
ENDBRANCH   4  24
BRANCH   6  33
HETATM   33  O3  UNL     1      35.508  51.972  13.146  1.00  0.00    -0.390 OA
ATOM     34  H3  UNL     1      34.640  52.259  12.887  1.00  0.00     0.210 HD
ENDBRANCH   6  33
BRANCH   5  35
HETATM   35  O2  UNL     1      37.290  54.343  13.026  1.00  0.00    -0.385 OA
ATOM     36  H2  UNL     1      37.300  53.640  12.387  1.00  0.00     0.210 HD
ENDBRANCH   5  35
TORSDOF 15
ENDMDL
MODEL 5
REMARK VINA RESULT: -6.646902801      3.087      5.832
REMARK  15 active torsions:
REMARK  status: ('A' for Active; 'I' for Inactive)
REMARK    1  A    between atoms: N1_1  and  C1_5 
REMARK    2  A    between atoms: C1_5  and  C2_6 
REMARK    3  A    between atoms: C2_6  and  N2_7 
REMARK    4  A    between atoms: N2_7  and  C3_10 
REMARK    5  A    between atoms: C3_10  and  C4_11 
REMARK    6  A    between atoms: C4_11  and  C5_12 
REMARK    7  A    between atoms: C5_12  and  C6_13 
REMARK    8  A    between atoms: C6_13  and  C7_14 
REMARK    9  A    between atoms: C7_14  and  C8_15 
REMARK   10  A    between atoms: C9_18  and  O1_19 
REMARK   11  A    between atoms: O1_19  and  C10_20 
REMARK   12  A    between atoms: C11_23  and  N6_24 
REMARK   13  A    between atoms: C12_28  and  O2_29 
REMARK   14  A    between atoms: C13_31  and  O3_32 
REMARK   15  A    between atoms: C14_34  and  O4_35 
ROOT
HETATM    1  C8  UNL     1      35.255  53.134  17.619  1.00  0.00     0.114 C 
HETATM    2  N3  UNL     1      35.971  54.306  17.150  1.00  0.00    -0.365 N 
ATOM      3  H3  UNL     1      36.256  54.985  17.856  1.00  0.00     0.161 HD
HETATM    4  C9  UNL     1      36.276  54.569  15.948  1.00  0.00     0.148 C 
HETATM    5  C12 UNL     1      35.872  53.598  14.915  1.00  0.00     0.223 C 
HETATM    6  C13 UNL     1      36.036  52.198  15.397  1.00  0.00     0.185 C 
HETATM    7  C14 UNL     1      35.722  51.949  16.828  1.00  0.00     0.172 C 
ENDROOT
BRANCH   1   8
HETATM    8  C7  UNL     1      35.686  52.958  19.068  1.00  0.00     0.028 C 
BRANCH   8   9
HETATM    9  C6  UNL     1      34.535  52.993  20.037  1.00  0.00     0.002 C 
BRANCH   9  10
HETATM   10  C5  UNL     1      33.326  52.371  19.382  1.00  0.00     0.002 C 
BRANCH  10  11
HETATM   11  C4  UNL     1      32.481  51.549  20.292  1.00  0.00     0.027 C 
BRANCH  11  12
HETATM   12  C3  UNL     1      33.013  51.561  21.700  1.00  0.00     0.232 C 
BRANCH  12  13
HETATM   13  N2  UNL     1      33.111  50.235  22.271  1.00  0.00    -0.074 N 
ATOM     14  H22 UNL     1      32.261  49.976  22.771  1.00  0.00     0.277 HD
ATOM     15  H21 UNL     1      33.764  50.209  23.053  1.00  0.00     0.277 HD
BRANCH  13  16
HETATM   16  C2  UNL     1      33.449  49.267  21.264  1.00  0.00     0.259 C 
BRANCH  16  17
HETATM   17  C1  UNL     1      34.953  49.319  21.010  1.00  0.00     0.257 C 
BRANCH  17  18
HETATM   18  N1  UNL     1      35.213  49.281  19.588  1.00  0.00    -0.078 N 
ATOM     19  H13 UNL     1      36.060  48.756  19.368  1.00  0.00     0.274 HD
ATOM     20  H12 UNL     1      34.542  48.696  19.091  1.00  0.00     0.274 HD
ATOM     21  H11 UNL     1      35.243  50.230  19.215  1.00  0.00     0.274 HD
ENDBRANCH  17  18
ENDBRANCH  16  17
ENDBRANCH  13  16
ENDBRANCH  12  13
ENDBRANCH  11  12
ENDBRANCH  10  11
ENDBRANCH   9  10
ENDBRANCH   8   9
ENDBRANCH   1   8
BRANCH   7  22
HETATM   22  O4  UNL     1      34.818  50.879  16.913  1.00  0.00    -0.391 OA
ATOM     23  H4  UNL     1      33.964  51.164  17.218  1.00  0.00     0.210 HD
ENDBRANCH   7  22
BRANCH   4  24
HETATM   24  O1  UNL     1      36.976  55.758  15.676  1.00  0.00    -0.310 OA
BRANCH  24  25
HETATM   25  C10 UNL     1      38.245  55.952  16.303  1.00  0.00     0.286 A 
HETATM   26  N4  UNL     1      38.809  54.752  16.834  1.00  0.00    -0.110 NA
HETATM   27  N5  UNL     1      39.836  54.789  15.940  1.00  0.00    -0.108 NA
HETATM   28  C11 UNL     1      39.405  56.039  15.402  1.00  0.00     0.337 A 
BRANCH  28  29
HETATM   29  N6  UNL     1      39.015  55.913  14.007  1.00  0.00    -0.056 N 
ATOM     30  H63 UNL     1      38.031  55.662  13.918  1.00  0.00     0.276 HD
ATOM     31  H62 UNL     1      38.991  56.822  13.544  1.00  0.00     0.276 HD
ATOM     32  H61 UNL     1      39.613  55.256  13.505  1.00  0.00     0.276 HD
ENDBRANCH  28  29
ENDBRANCH  24  25
ENDBRANCH   4  24
BRANCH   6  33
HETATM   33  O3  UNL     1      35.346  51.287  14.555  1.00  0.00    -0.390 OA
ATOM     34  H3  UNL     1      34.415  51.289  14.743  1.00  0.00     0.210 HD
ENDBRANCH   6  33
BRANCH   5  35
HETATM   35  O2  UNL     1      36.662  53.828  13.765  1.00  0.00    -0.385 OA
ATOM     36  H2  UNL     1      37.042  52.999  13.497  1.00  0.00     0.210 HD
ENDBRANCH   5  35
TORSDOF 15
ENDMDL
