MODEL 1
REMARK VINA RESULT: -11.262336714      0.000      0.000
REMARK  8 active torsions:
REMARK  status: ('A' for Active; 'I' for Inactive)
REMARK       I    between atoms: C1_2  and  N1_3 
REMARK    1  A    between atoms: C1_2  and  C15_23 
REMARK    2  A    between atoms: N1_3  and  C2_4 
REMARK    3  A    between atoms: C2_4  and  C3_5 
REMARK    4  A    between atoms: C8_11  and  O2_12 
REMARK    5  A    between atoms: O2_12  and  C9_13 
REMARK    6  A    between atoms: C9_13  and  C10_14 
REMARK    7  A    between atoms: C18_26  and  S1_27 
REMARK    8  A    between atoms: S1_27  and  C19_30 
ROOT
HETATM    1  O1  UNL     1     -21.612  20.545  -8.887  1.00  0.00    -0.251 OA
HETATM    2  C1  UNL     1     -20.881  19.770  -8.176  1.00  0.00     0.325 C 
HETATM    3  N1  UNL     1     -21.329  18.823  -7.271  1.00  0.00    -0.378 NA
ENDROOT
BRANCH   3   4
HETATM    4  C2  UNL     1     -21.753  17.929  -6.415  1.00  0.00     0.200 C 
BRANCH   4   5
HETATM    5  C3  UNL     1     -21.353  17.984  -4.979  1.00  0.00     0.028 A 
HETATM    6  C4  UNL     1     -21.675  19.012  -4.142  1.00  0.00     0.040 A 
HETATM    7  C5  UNL     1     -21.233  19.019  -2.809  1.00  0.00     0.035 A 
HETATM    8 CL1  UNL     1     -21.641  20.338  -1.734  1.00  0.00    -0.084 Cl
HETATM    9  C6  UNL     1     -20.465  17.976  -2.344  1.00  0.00     0.026 A 
HETATM   10  C7  UNL     1     -20.134  16.928  -3.187  1.00  0.00     0.039 A 
HETATM   11  C8  UNL     1     -20.575  16.934  -4.490  1.00  0.00     0.082 A 
BRANCH  11  12
HETATM   12  O2  UNL     1     -20.280  15.930  -5.346  1.00  0.00    -0.344 OA
BRANCH  12  13
HETATM   13  C9  UNL     1     -19.556  14.791  -5.012  1.00  0.00     0.232 C 
BRANCH  13  14
HETATM   14  C10 UNL     1     -18.216  14.712  -5.653  1.00  0.00     0.035 A 
HETATM   15  C11 UNL     1     -17.206  14.097  -4.987  1.00  0.00     0.030 A 
HETATM   16  C12 UNL     1     -15.957  14.022  -5.552  1.00  0.00     0.047 A 
HETATM   17  C13 UNL     1     -15.761  14.577  -6.790  1.00  0.00     0.154 A 
HETATM   18  F1  UNL     1     -14.546  14.537  -7.398  1.00  0.00    -0.203 F 
HETATM   19  C14 UNL     1     -16.779  15.195  -7.461  1.00  0.00     0.142 A 
HETATM   20 CL2  UNL     1     -16.480  15.887  -9.056  1.00  0.00    -0.061 Cl
HETATM   21  N2  UNL     1     -17.999  15.247  -6.865  1.00  0.00    -0.346 N 
ATOM     22  H2  UNL     1     -18.770  15.705  -7.351  1.00  0.00     0.167 HD
ENDBRANCH  13  14
ENDBRANCH  12  13
ENDBRANCH  11  12
ENDBRANCH   4   5
ENDBRANCH   3   4
BRANCH   2  23
HETATM   23  C15 UNL     1     -19.438  20.001  -8.421  1.00  0.00     0.048 A 
HETATM   24  C16 UNL     1     -19.103  20.995  -9.333  1.00  0.00     0.020 A 
HETATM   25  C17 UNL     1     -17.796  21.298  -9.619  1.00  0.00     0.026 A 
HETATM   26  C18 UNL     1     -16.728  20.621  -9.008  1.00  0.00     0.086 A 
HETATM   27  C25 UNL     1     -17.082  19.647  -8.113  1.00  0.00     0.057 A 
HETATM   28 CL4  UNL     1     -15.817  18.760  -7.290  1.00  0.00    -0.083 Cl
HETATM   29  C26 UNL     1     -18.420  19.333  -7.817  1.00  0.00     0.043 A 
BRANCH  26  30
HETATM   30  S1  UNL     1     -15.091  21.042  -9.437  1.00  0.00     0.208 S 
HETATM   31  O3  UNL     1     -14.228  19.792  -9.291  1.00  0.00    -0.217 OA
HETATM   32  O4  UNL     1     -14.516  22.007  -8.403  1.00  0.00    -0.217 OA
BRANCH  30  33
HETATM   33  C19 UNL     1     -14.900  21.763 -10.984  1.00  0.00     0.064 A 
HETATM   34  C20 UNL     1     -13.942  21.291 -11.894  1.00  0.00     0.025 A 
HETATM   35  C21 UNL     1     -13.811  21.854 -13.135  1.00  0.00     0.025 A 
HETATM   36  C22 UNL     1     -14.596  22.898 -13.566  1.00  0.00     0.034 A 
HETATM   37 CL3  UNL     1     -14.395  23.599 -15.161  1.00  0.00    -0.084 Cl
HETATM   38  C23 UNL     1     -15.555  23.374 -12.669  1.00  0.00     0.025 A 
HETATM   39  C24 UNL     1     -15.676  22.801 -11.425  1.00  0.00     0.025 A 
ENDBRANCH  30  33
ENDBRANCH  26  30
ENDBRANCH   2  23
TORSDOF 8
ENDMDL
MODEL 2
REMARK VINA RESULT: -10.922026688      2.990      4.948
REMARK  8 active torsions:
REMARK  status: ('A' for Active; 'I' for Inactive)
REMARK       I    between atoms: C1_2  and  N1_3 
REMARK    1  A    between atoms: C1_2  and  C15_23 
REMARK    2  A    between atoms: N1_3  and  C2_4 
REMARK    3  A    between atoms: C2_4  and  C3_5 
REMARK    4  A    between atoms: C8_11  and  O2_12 
REMARK    5  A    between atoms: O2_12  and  C9_13 
REMARK    6  A    between atoms: C9_13  and  C10_14 
REMARK    7  A    between atoms: C18_26  and  S1_27 
REMARK    8  A    between atoms: S1_27  and  C19_30 
ROOT
HETATM    1  O1  UNL     1     -15.696  17.308  -9.146  1.00  0.00    -0.251 OA
HETATM    2  C1  UNL     1     -16.142  18.354  -8.557  1.00  0.00     0.325 C 
HETATM    3  N1  UNL     1     -16.953  18.380  -7.436  1.00  0.00    -0.378 NA
ENDROOT
BRANCH   3   4
HETATM    4  C2  UNL     1     -17.720  18.405  -6.376  1.00  0.00     0.200 C 
BRANCH   4   5
HETATM    5  C3  UNL     1     -17.993  17.167  -5.591  1.00  0.00     0.028 A 
HETATM    6  C4  UNL     1     -17.313  15.996  -5.760  1.00  0.00     0.040 A 
HETATM    7  C5  UNL     1     -17.647  14.855  -5.012  1.00  0.00     0.035 A 
HETATM    8 CL1  UNL     1     -16.779  13.352  -5.231  1.00  0.00    -0.084 Cl
HETATM    9  C6  UNL     1     -18.676  14.920  -4.100  1.00  0.00     0.026 A 
HETATM   10  C7  UNL     1     -19.371  16.105  -3.922  1.00  0.00     0.039 A 
HETATM   11  C8  UNL     1     -19.032  17.215  -4.660  1.00  0.00     0.082 A 
BRANCH  11  12
HETATM   12  O2  UNL     1     -19.681  18.392  -4.515  1.00  0.00    -0.344 OA
BRANCH  12  13
HETATM   13  C9  UNL     1     -21.018  18.604  -4.831  1.00  0.00     0.232 C 
BRANCH  13  14
HETATM   14  C10 UNL     1     -21.260  18.929  -6.262  1.00  0.00     0.035 A 
HETATM   15  C11 UNL     1     -21.882  18.012  -7.046  1.00  0.00     0.030 A 
HETATM   16  C12 UNL     1     -22.105  18.284  -8.373  1.00  0.00     0.047 A 
HETATM   17  C13 UNL     1     -21.692  19.489  -8.876  1.00  0.00     0.154 A 
HETATM   18  F1  UNL     1     -21.882  19.812 -10.183  1.00  0.00    -0.203 F 
HETATM   19  C14 UNL     1     -21.067  20.413  -8.085  1.00  0.00     0.142 A 
HETATM   20 CL2  UNL     1     -20.560  21.955  -8.778  1.00  0.00    -0.061 Cl
HETATM   21  N2  UNL     1     -20.864  20.103  -6.779  1.00  0.00    -0.346 N 
ATOM     22  H2  UNL     1     -20.399  20.780  -6.174  1.00  0.00     0.167 HD
ENDBRANCH  13  14
ENDBRANCH  12  13
ENDBRANCH  11  12
ENDBRANCH   4   5
ENDBRANCH   3   4
BRANCH   2  23
HETATM   23  C15 UNL     1     -15.690  19.595  -9.229  1.00  0.00     0.048 A 
HETATM   24  C16 UNL     1     -14.414  19.587  -9.779  1.00  0.00     0.020 A 
HETATM   25  C17 UNL     1     -13.908  20.680 -10.436  1.00  0.00     0.026 A 
HETATM   26  C18 UNL     1     -14.649  21.863 -10.586  1.00  0.00     0.086 A 
HETATM   27  C25 UNL     1     -15.903  21.847 -10.037  1.00  0.00     0.057 A 
HETATM   28 CL4  UNL     1     -16.907  23.273 -10.189  1.00  0.00    -0.083 Cl
HETATM   29  C26 UNL     1     -16.426  20.729  -9.363  1.00  0.00     0.043 A 
BRANCH  26  30
HETATM   30  S1  UNL     1     -13.933  23.222 -11.413  1.00  0.00     0.208 S 
HETATM   31  O3  UNL     1     -12.416  23.095 -11.303  1.00  0.00    -0.217 OA
HETATM   32  O4  UNL     1     -14.248  24.511 -10.660  1.00  0.00    -0.217 OA
BRANCH  30  33
HETATM   33  C19 UNL     1     -14.431  23.435 -13.043  1.00  0.00     0.064 A 
HETATM   34  C20 UNL     1     -13.510  23.767 -14.048  1.00  0.00     0.025 A 
HETATM   35  C21 UNL     1     -13.909  23.911 -15.350  1.00  0.00     0.025 A 
HETATM   36  C22 UNL     1     -15.213  23.742 -15.752  1.00  0.00     0.034 A 
HETATM   37 CL3  UNL     1     -15.689  23.942 -17.427  1.00  0.00    -0.084 Cl
HETATM   38  C23 UNL     1     -16.139  23.410 -14.759  1.00  0.00     0.025 A 
HETATM   39  C24 UNL     1     -15.725  23.269 -13.456  1.00  0.00     0.025 A 
ENDBRANCH  30  33
ENDBRANCH  26  30
ENDBRANCH   2  23
TORSDOF 8
ENDMDL
MODEL 3
REMARK VINA RESULT: -10.898271033      2.402      3.455
REMARK  8 active torsions:
REMARK  status: ('A' for Active; 'I' for Inactive)
REMARK       I    between atoms: C1_2  and  N1_3 
REMARK    1  A    between atoms: C1_2  and  C15_23 
REMARK    2  A    between atoms: N1_3  and  C2_4 
REMARK    3  A    between atoms: C2_4  and  C3_5 
REMARK    4  A    between atoms: C8_11  and  O2_12 
REMARK    5  A    between atoms: O2_12  and  C9_13 
REMARK    6  A    between atoms: C9_13  and  C10_14 
REMARK    7  A    between atoms: C18_26  and  S1_27 
REMARK    8  A    between atoms: S1_27  and  C19_30 
ROOT
HETATM    1  O1  UNL     1     -15.807  17.308  -8.832  1.00  0.00    -0.251 OA
HETATM    2  C1  UNL     1     -16.279  18.391  -8.336  1.00  0.00     0.325 C 
HETATM    3  N1  UNL     1     -17.159  18.491  -7.274  1.00  0.00    -0.378 NA
ENDROOT
BRANCH   3   4
HETATM    4  C2  UNL     1     -17.992  18.585  -6.269  1.00  0.00     0.200 C 
BRANCH   4   5
HETATM    5  C3  UNL     1     -19.431  18.912  -6.486  1.00  0.00     0.028 A 
HETATM    6  C4  UNL     1     -19.877  19.763  -7.456  1.00  0.00     0.040 A 
HETATM    7  C5  UNL     1     -21.245  20.057  -7.581  1.00  0.00     0.035 A 
HETATM    8 CL1  UNL     1     -21.818  21.151  -8.820  1.00  0.00    -0.084 Cl
HETATM    9  C6  UNL     1     -22.144  19.480  -6.714  1.00  0.00     0.026 A 
HETATM   10  C7  UNL     1     -21.700  18.614  -5.728  1.00  0.00     0.039 A 
HETATM   11  C8  UNL     1     -20.358  18.334  -5.617  1.00  0.00     0.082 A 
BRANCH  11  12
HETATM   12  O2  UNL     1     -19.881  17.493  -4.673  1.00  0.00    -0.344 OA
BRANCH  12  13
HETATM   13  C9  UNL     1     -19.997  16.108  -4.714  1.00  0.00     0.232 C 
BRANCH  13  14
HETATM   14  C10 UNL     1     -18.800  15.414  -5.261  1.00  0.00     0.035 A 
HETATM   15  C11 UNL     1     -17.920  14.847  -4.398  1.00  0.00     0.030 A 
HETATM   16  C12 UNL     1     -16.801  14.211  -4.878  1.00  0.00     0.047 A 
HETATM   17  C13 UNL     1     -16.602  14.165  -6.233  1.00  0.00     0.154 A 
HETATM   18  F1  UNL     1     -15.512  13.553  -6.767  1.00  0.00    -0.203 F 
HETATM   19  C14 UNL     1     -17.491  14.735  -7.102  1.00  0.00     0.142 A 
HETATM   20 CL2  UNL     1     -17.195  14.641  -8.840  1.00  0.00    -0.061 Cl
HETATM   21  N2  UNL     1     -18.583  15.354  -6.585  1.00  0.00    -0.346 N 
ATOM     22  H2  UNL     1     -19.256  15.786  -7.218  1.00  0.00     0.167 HD
ENDBRANCH  13  14
ENDBRANCH  12  13
ENDBRANCH  11  12
ENDBRANCH   4   5
ENDBRANCH   3   4
BRANCH   2  23
HETATM   23  C15 UNL     1     -15.772  19.586  -9.051  1.00  0.00     0.048 A 
HETATM   24  C16 UNL     1     -14.496  19.503  -9.598  1.00  0.00     0.020 A 
HETATM   25  C17 UNL     1     -13.942  20.548 -10.292  1.00  0.00     0.026 A 
HETATM   26  C18 UNL     1     -14.630  21.757 -10.487  1.00  0.00     0.086 A 
HETATM   27  C25 UNL     1     -15.884  21.815  -9.941  1.00  0.00     0.057 A 
HETATM   28 CL4  UNL     1     -16.825  23.277 -10.146  1.00  0.00    -0.083 Cl
HETATM   29  C26 UNL     1     -16.457  20.747  -9.228  1.00  0.00     0.043 A 
BRANCH  26  30
HETATM   30  S1  UNL     1     -13.854  23.051 -11.360  1.00  0.00     0.208 S 
HETATM   31  O3  UNL     1     -12.345  22.839 -11.276  1.00  0.00    -0.217 OA
HETATM   32  O4  UNL     1     -14.078  24.374 -10.633  1.00  0.00    -0.217 OA
BRANCH  30  33
HETATM   33  C19 UNL     1     -14.373  23.256 -12.984  1.00  0.00     0.064 A 
HETATM   34  C20 UNL     1     -15.714  23.069 -13.349  1.00  0.00     0.025 A 
HETATM   35  C21 UNL     1     -16.126  23.258 -14.641  1.00  0.00     0.025 A 
HETATM   36  C22 UNL     1     -15.270  23.636 -15.648  1.00  0.00     0.034 A 
HETATM   37 CL3  UNL     1     -15.832  23.860 -17.294  1.00  0.00    -0.084 Cl
HETATM   38  C23 UNL     1     -13.931  23.825 -15.296  1.00  0.00     0.025 A 
HETATM   39  C24 UNL     1     -13.530  23.632 -13.995  1.00  0.00     0.025 A 
ENDBRANCH  30  33
ENDBRANCH  26  30
ENDBRANCH   2  23
TORSDOF 8
ENDMDL
MODEL 4
REMARK VINA RESULT: -10.806226511      2.976      4.812
REMARK  8 active torsions:
REMARK  status: ('A' for Active; 'I' for Inactive)
REMARK       I    between atoms: C1_2  and  N1_3 
REMARK    1  A    between atoms: C1_2  and  C15_23 
REMARK    2  A    between atoms: N1_3  and  C2_4 
REMARK    3  A    between atoms: C2_4  and  C3_5 
REMARK    4  A    between atoms: C8_11  and  O2_12 
REMARK    5  A    between atoms: O2_12  and  C9_13 
REMARK    6  A    between atoms: C9_13  and  C10_14 
REMARK    7  A    between atoms: C18_26  and  S1_27 
REMARK    8  A    between atoms: S1_27  and  C19_30 
ROOT
HETATM    1  O1  UNL     1     -15.664  17.178  -8.601  1.00  0.00    -0.251 OA
HETATM    2  C1  UNL     1     -16.427  18.198  -8.465  1.00  0.00     0.325 C 
HETATM    3  N1  UNL     1     -17.637  18.232  -7.794  1.00  0.00    -0.378 NA
ENDROOT
BRANCH   3   4
HETATM    4  C2  UNL     1     -18.781  18.265  -7.161  1.00  0.00     0.200 C 
BRANCH   4   5
HETATM    5  C3  UNL     1     -19.886  19.162  -7.608  1.00  0.00     0.028 A 
HETATM    6  C4  UNL     1     -19.704  20.463  -7.978  1.00  0.00     0.040 A 
HETATM    7  C5  UNL     1     -20.795  21.264  -8.352  1.00  0.00     0.035 A 
HETATM    8 CL1  UNL     1     -20.564  22.933  -8.824  1.00  0.00    -0.084 Cl
HETATM    9  C6  UNL     1     -22.063  20.729  -8.342  1.00  0.00     0.026 A 
HETATM   10  C7  UNL     1     -22.257  19.410  -7.968  1.00  0.00     0.039 A 
HETATM   11  C8  UNL     1     -21.179  18.636  -7.605  1.00  0.00     0.082 A 
BRANCH  11  12
HETATM   12  O2  UNL     1     -21.322  17.343  -7.238  1.00  0.00    -0.344 OA
BRANCH  12  13
HETATM   13  C9  UNL     1     -21.958  16.915  -6.078  1.00  0.00     0.232 C 
BRANCH  13  14
HETATM   14  C10 UNL     1     -21.266  17.310  -4.823  1.00  0.00     0.035 A 
HETATM   15  C11 UNL     1     -20.209  16.573  -4.397  1.00  0.00     0.030 A 
HETATM   16  C12 UNL     1     -19.562  16.910  -3.234  1.00  0.00     0.047 A 
HETATM   17  C13 UNL     1     -20.005  17.996  -2.526  1.00  0.00     0.154 A 
HETATM   18  F1  UNL     1     -19.406  18.376  -1.366  1.00  0.00    -0.203 F 
HETATM   19  C14 UNL     1     -21.069  18.739  -2.956  1.00  0.00     0.142 A 
HETATM   20 CL2  UNL     1     -21.597  20.135  -2.013  1.00  0.00    -0.061 Cl
HETATM   21  N2  UNL     1     -21.681  18.370  -4.111  1.00  0.00    -0.346 N 
ATOM     22  H2  UNL     1     -22.477  18.913  -4.446  1.00  0.00     0.167 HD
ENDBRANCH  13  14
ENDBRANCH  12  13
ENDBRANCH  11  12
ENDBRANCH   4   5
ENDBRANCH   3   4
BRANCH   2  23
HETATM   23  C15 UNL     1     -15.866  19.395  -9.134  1.00  0.00     0.048 A 
HETATM   24  C16 UNL     1     -14.569  19.295  -9.626  1.00  0.00     0.020 A 
HETATM   25  C17 UNL     1     -13.964  20.341 -10.275  1.00  0.00     0.026 A 
HETATM   26  C18 UNL     1     -14.618  21.566 -10.477  1.00  0.00     0.086 A 
HETATM   27  C25 UNL     1     -15.893  21.642  -9.985  1.00  0.00     0.057 A 
HETATM   28 CL4  UNL     1     -16.794  23.127 -10.203  1.00  0.00    -0.083 Cl
HETATM   29  C26 UNL     1     -16.518  20.572  -9.319  1.00  0.00     0.043 A 
BRANCH  26  30
HETATM   30  S1  UNL     1     -13.778  22.860 -11.290  1.00  0.00     0.208 S 
HETATM   31  O3  UNL     1     -12.280  22.587 -11.189  1.00  0.00    -0.217 OA
HETATM   32  O4  UNL     1     -13.965  24.164 -10.521  1.00  0.00    -0.217 OA
BRANCH  30  33
HETATM   33  C19 UNL     1     -14.260  23.141 -12.915  1.00  0.00     0.064 A 
HETATM   34  C20 UNL     1     -15.598  23.005 -13.311  1.00  0.00     0.025 A 
HETATM   35  C21 UNL     1     -15.980  23.254 -14.602  1.00  0.00     0.025 A 
HETATM   36  C22 UNL     1     -15.094  23.647 -15.578  1.00  0.00     0.034 A 
HETATM   37 CL3  UNL     1     -15.618  23.949 -17.224  1.00  0.00    -0.084 Cl
HETATM   38  C23 UNL     1     -13.758  23.786 -15.195  1.00  0.00     0.025 A 
HETATM   39  C24 UNL     1     -13.388  23.532 -13.895  1.00  0.00     0.025 A 
ENDBRANCH  30  33
ENDBRANCH  26  30
ENDBRANCH   2  23
TORSDOF 8
ENDMDL
MODEL 5
REMARK VINA RESULT: -10.723001610      2.497      4.847
REMARK  8 active torsions:
REMARK  status: ('A' for Active; 'I' for Inactive)
REMARK       I    between atoms: C1_2  and  N1_3 
REMARK    1  A    between atoms: C1_2  and  C15_23 
REMARK    2  A    between atoms: N1_3  and  C2_4 
REMARK    3  A    between atoms: C2_4  and  C3_5 
REMARK    4  A    between atoms: C8_11  and  O2_12 
REMARK    5  A    between atoms: O2_12  and  C9_13 
REMARK    6  A    between atoms: C9_13  and  C10_14 
REMARK    7  A    between atoms: C18_26  and  S1_27 
REMARK    8  A    between atoms: S1_27  and  C19_30 
ROOT
HETATM    1  O1  UNL     1     -19.822  20.987  -8.091  1.00  0.00    -0.251 OA
HETATM    2  C1  UNL     1     -19.009  19.999  -8.155  1.00  0.00     0.325 C 
HETATM    3  N1  UNL     1     -19.210  18.737  -7.625  1.00  0.00    -0.378 NA
ENDROOT
BRANCH   3   4
HETATM    4  C2  UNL     1     -19.399  17.544  -7.123  1.00  0.00     0.200 C 
BRANCH   4   5
HETATM    5  C3  UNL     1     -18.267  16.587  -6.957  1.00  0.00     0.028 A 
HETATM    6  C4  UNL     1     -17.342  16.331  -7.928  1.00  0.00     0.040 A 
HETATM    7  C5  UNL     1     -16.323  15.388  -7.720  1.00  0.00     0.035 A 
HETATM    8 CL1  UNL     1     -15.139  15.056  -8.964  1.00  0.00    -0.084 Cl
HETATM    9  C6  UNL     1     -16.259  14.713  -6.522  1.00  0.00     0.026 A 
HETATM   10  C7  UNL     1     -17.193  14.967  -5.531  1.00  0.00     0.039 A 
HETATM   11  C8  UNL     1     -18.185  15.894  -5.748  1.00  0.00     0.082 A 
BRANCH  11  12
HETATM   12  O2  UNL     1     -19.114  16.176  -4.808  1.00  0.00    -0.344 OA
BRANCH  12  13
HETATM   13  C9  UNL     1     -18.831  16.623  -3.523  1.00  0.00     0.232 C 
BRANCH  13  14
HETATM   14  C10 UNL     1     -19.705  17.734  -3.058  1.00  0.00     0.035 A 
HETATM   15  C11 UNL     1     -19.526  18.230  -1.808  1.00  0.00     0.030 A 
HETATM   16  C12 UNL     1     -20.329  19.246  -1.352  1.00  0.00     0.047 A 
HETATM   17  C13 UNL     1     -21.300  19.740  -2.183  1.00  0.00     0.154 A 
HETATM   18  F1  UNL     1     -22.127  20.743  -1.785  1.00  0.00    -0.203 F 
HETATM   19  C14 UNL     1     -21.478  19.241  -3.443  1.00  0.00     0.142 A 
HETATM   20 CL2  UNL     1     -22.738  19.917  -4.479  1.00  0.00    -0.061 Cl
HETATM   21  N2  UNL     1     -20.663  18.235  -3.853  1.00  0.00    -0.346 N 
ATOM     22  H2  UNL     1     -20.783  17.851  -4.791  1.00  0.00     0.167 HD
ENDBRANCH  13  14
ENDBRANCH  12  13
ENDBRANCH  11  12
ENDBRANCH   4   5
ENDBRANCH   3   4
BRANCH   2  23
HETATM   23  C15 UNL     1     -17.768  20.358  -8.881  1.00  0.00     0.048 A 
HETATM   24  C16 UNL     1     -17.782  21.540  -9.613  1.00  0.00     0.020 A 
HETATM   25  C17 UNL     1     -16.680  21.969 -10.307  1.00  0.00     0.026 A 
HETATM   26  C18 UNL     1     -15.481  21.239 -10.318  1.00  0.00     0.086 A 
HETATM   27  C25 UNL     1     -15.490  20.079  -9.591  1.00  0.00     0.057 A 
HETATM   28 CL4  UNL     1     -14.033  19.110  -9.532  1.00  0.00    -0.083 Cl
HETATM   29  C26 UNL     1     -16.617  19.635  -8.877  1.00  0.00     0.043 A 
BRANCH  26  30
HETATM   30  S1  UNL     1     -14.126  21.833 -11.242  1.00  0.00     0.208 S 
HETATM   31  O3  UNL     1     -13.129  20.691 -11.405  1.00  0.00    -0.217 OA
HETATM   32  O4  UNL     1     -13.361  22.875 -10.430  1.00  0.00    -0.217 OA
BRANCH  30  33
HETATM   33  C19 UNL     1     -14.525  22.542 -12.755  1.00  0.00     0.064 A 
HETATM   34  C20 UNL     1     -13.535  23.085 -13.588  1.00  0.00     0.025 A 
HETATM   35  C21 UNL     1     -13.856  23.627 -14.804  1.00  0.00     0.025 A 
HETATM   36  C22 UNL     1     -15.145  23.673 -15.281  1.00  0.00     0.034 A 
HETATM   37 CL3  UNL     1     -15.520  24.382 -16.841  1.00  0.00    -0.084 Cl
HETATM   38  C23 UNL     1     -16.139  23.134 -14.461  1.00  0.00     0.025 A 
HETATM   39  C24 UNL     1     -15.803  22.594 -13.242  1.00  0.00     0.025 A 
ENDBRANCH  30  33
ENDBRANCH  26  30
ENDBRANCH   2  23
TORSDOF 8
ENDMDL
