MODEL 1
REMARK VINA RESULT: -8.009746081      0.000      0.000
REMARK  8 active torsions:
REMARK  status: ('A' for Active; 'I' for Inactive)
REMARK    1  A    between atoms: C2_2  and  C3_3 
REMARK    2  A    between atoms: C3_3  and  C4_4 
REMARK    3  A    between atoms: C4_4  and  C5_5 
REMARK    4  A    between atoms: C5_5  and  S1_6 
REMARK    5  A    between atoms: S1_6  and  N1_9 
REMARK    6  A    between atoms: N1_9  and  C6_11 
REMARK    7  A    between atoms: C17_29  and  C18_30 
REMARK    8  A    between atoms: C18_30  and  C19_31 
ROOT
HETATM    1  C6  UNL     1     -21.353  19.483  -4.374  1.00  0.00     0.130 A 
HETATM    2  N2  UNL     1     -20.777  19.255  -3.169  1.00  0.00    -0.337 N 
ATOM      3  H2  UNL     1     -19.823  18.895  -3.155  1.00  0.00     0.168 HD
HETATM    4  C7  UNL     1     -21.386  19.475  -1.994  1.00  0.00     0.183 A 
HETATM    5  N3  UNL     1     -22.636  19.948  -2.036  1.00  0.00    -0.338 N 
ATOM      6  H3  UNL     1     -23.112  20.122  -1.151  1.00  0.00     0.168 HD
HETATM    7  C8  UNL     1     -23.302  20.209  -3.171  1.00  0.00     0.126 A 
HETATM    8  C9  UNL     1     -22.641  19.969  -4.389  1.00  0.00     0.065 A 
HETATM    9  C10 UNL     1     -23.309  20.234  -5.555  1.00  0.00     0.009 A 
HETATM   10  C11 UNL     1     -22.752  20.025  -6.873  1.00  0.00     0.036 A 
HETATM   11  C12 UNL     1     -22.084  21.016  -7.561  1.00  0.00     0.132 A 
HETATM   12  F1  UNL     1     -21.874  22.250  -7.005  1.00  0.00    -0.205 F 
HETATM   13  C13 UNL     1     -21.591  20.823  -8.832  1.00  0.00     0.085 A 
HETATM   14  C14 UNL     1     -21.752  19.620  -9.464  1.00  0.00     0.120 A 
HETATM   15  F2  UNL     1     -21.267  19.417 -10.728  1.00  0.00    -0.206 F 
HETATM   16  C15 UNL     1     -22.421  18.639  -8.766  1.00  0.00     0.067 A 
HETATM   17  C16 UNL     1     -22.921  18.810  -7.495  1.00  0.00     0.051 A 
HETATM   18 CL1  UNL     1     -23.733  17.435  -6.778  1.00  0.00    -0.083 Cl
HETATM   19  C17 UNL     1     -24.627  20.737  -5.466  1.00  0.00     0.027 A 
HETATM   20  C24 UNL     1     -25.228  20.956  -4.268  1.00  0.00     0.256 A 
HETATM   21  O3  UNL     1     -26.394  21.406  -4.177  1.00  0.00    -0.267 OA
HETATM   22  N5  UNL     1     -24.555  20.687  -3.116  1.00  0.00    -0.303 N 
HETATM   23  C25 UNL     1     -25.180  20.908  -1.825  1.00  0.00     0.161 C 
ENDROOT
BRANCH   1  24
HETATM   24  N1  UNL     1     -20.708  19.261  -5.459  1.00  0.00    -0.269 N 
ATOM     25  H1  UNL     1     -20.800  19.898  -6.251  1.00  0.00     0.180 HD
BRANCH  24  26
HETATM   26  S1  UNL     1     -19.686  17.883  -5.569  1.00  0.00     0.232 S 
HETATM   27  O1  UNL     1     -19.181  17.796  -6.995  1.00  0.00    -0.206 OA
HETATM   28  O2  UNL     1     -18.562  18.039  -4.605  1.00  0.00    -0.206 OA
BRANCH  26  29
HETATM   29  C5  UNL     1     -20.639  16.420  -5.289  1.00  0.00     0.163 C 
BRANCH  29  30
HETATM   30  C4  UNL     1     -19.773  15.483  -4.445  1.00  0.00     0.017 C 
BRANCH  30  31
HETATM   31  C3  UNL     1     -18.886  14.684  -5.363  1.00  0.00     0.001 C 
BRANCH  31  32
HETATM   32  C2  UNL     1     -17.520  14.622  -4.728  1.00  0.00    -0.005 C 
HETATM   33  C1  UNL     1     -16.561  13.865  -5.620  1.00  0.00     0.005 C 
ENDBRANCH  31  32
ENDBRANCH  30  31
ENDBRANCH  29  30
ENDBRANCH  26  29
ENDBRANCH  24  26
ENDBRANCH   1  24
BRANCH  19  34
HETATM   34  C18 UNL     1     -25.272  21.032  -6.739  1.00  0.00     0.087 C 
BRANCH  34  35
HETATM   35  C19 UNL     1     -26.095  22.247  -6.833  1.00  0.00    -0.007 A 
HETATM   36  C20 UNL     1     -25.590  23.504  -6.627  1.00  0.00     0.057 A 
HETATM   37 CL2  UNL     1     -23.920  23.724  -6.226  1.00  0.00    -0.082 Cl
HETATM   38  C21 UNL     1     -26.373  24.656  -6.719  1.00  0.00     0.112 A 
HETATM   39  N4  UNL     1     -27.659  24.545  -7.015  1.00  0.00    -0.372 N 
HETATM   40  C22 UNL     1     -28.203  23.336  -7.226  1.00  0.00     0.112 A 
ATOM     41  H4  UNL     1     -28.239  25.382  -7.084  1.00  0.00     0.164 HD
HETATM   42  C23 UNL     1     -27.465  22.178  -7.145  1.00  0.00     0.057 A 
HETATM   43 CL3  UNL     1     -28.141  20.604  -7.411  1.00  0.00    -0.082 Cl
ENDBRANCH  34  35
ENDBRANCH  19  34
TORSDOF 8
ENDMDL
MODEL 2
REMARK VINA RESULT: -7.941350287      1.587      1.731
REMARK  8 active torsions:
REMARK  status: ('A' for Active; 'I' for Inactive)
REMARK    1  A    between atoms: C2_2  and  C3_3 
REMARK    2  A    between atoms: C3_3  and  C4_4 
REMARK    3  A    between atoms: C4_4  and  C5_5 
REMARK    4  A    between atoms: C5_5  and  S1_6 
REMARK    5  A    between atoms: S1_6  and  N1_9 
REMARK    6  A    between atoms: N1_9  and  C6_11 
REMARK    7  A    between atoms: C17_29  and  C18_30 
REMARK    8  A    between atoms: C18_30  and  C19_31 
ROOT
HETATM    1  C6  UNL     1     -21.386  19.475  -4.358  1.00  0.00     0.130 A 
HETATM    2  N2  UNL     1     -20.834  19.245  -3.143  1.00  0.00    -0.337 N 
ATOM      3  H2  UNL     1     -19.885  18.871  -3.111  1.00  0.00     0.168 HD
HETATM    4  C7  UNL     1     -21.459  19.477  -1.979  1.00  0.00     0.183 A 
HETATM    5  N3  UNL     1     -22.701  19.968  -2.043  1.00  0.00    -0.338 N 
ATOM      6  H3  UNL     1     -23.189  20.152  -1.167  1.00  0.00     0.168 HD
HETATM    7  C8  UNL     1     -23.344  20.233  -3.190  1.00  0.00     0.126 A 
HETATM    8  C9  UNL     1     -22.667  19.979  -4.396  1.00  0.00     0.065 A 
HETATM    9  C10 UNL     1     -23.312  20.248  -5.574  1.00  0.00     0.009 A 
HETATM   10  C11 UNL     1     -22.736  20.026  -6.881  1.00  0.00     0.036 A 
HETATM   11  C12 UNL     1     -22.043  21.005  -7.562  1.00  0.00     0.132 A 
HETATM   12  F1  UNL     1     -21.826  22.238  -7.008  1.00  0.00    -0.205 F 
HETATM   13  C13 UNL     1     -21.532  20.800  -8.824  1.00  0.00     0.085 A 
HETATM   14  C14 UNL     1     -21.699  19.597  -9.454  1.00  0.00     0.120 A 
HETATM   15  F2  UNL     1     -21.196  19.382 -10.709  1.00  0.00    -0.206 F 
HETATM   16  C15 UNL     1     -22.392  18.628  -8.763  1.00  0.00     0.067 A 
HETATM   17  C16 UNL     1     -22.911  18.810  -7.502  1.00  0.00     0.051 A 
HETATM   18 CL1  UNL     1     -23.754  17.451  -6.793  1.00  0.00    -0.083 Cl
HETATM   19  C17 UNL     1     -24.624  20.770  -5.509  1.00  0.00     0.027 A 
HETATM   20  C24 UNL     1     -25.242  21.002  -4.322  1.00  0.00     0.256 A 
HETATM   21  O3  UNL     1     -26.403  21.468  -4.253  1.00  0.00    -0.267 OA
HETATM   22  N5  UNL     1     -24.591  20.728  -3.158  1.00  0.00    -0.303 N 
HETATM   23  C25 UNL     1     -25.235  20.963  -1.879  1.00  0.00     0.161 C 
ENDROOT
BRANCH   1  24
HETATM   24  N1  UNL     1     -20.726  19.240  -5.431  1.00  0.00    -0.269 N 
ATOM     25  H1  UNL     1     -20.746  19.907  -6.203  1.00  0.00     0.180 HD
BRANCH  24  26
HETATM   26  S1  UNL     1     -19.807  17.793  -5.559  1.00  0.00     0.232 S 
HETATM   27  O1  UNL     1     -18.666  17.881  -4.567  1.00  0.00    -0.206 OA
HETATM   28  O2  UNL     1     -20.694  16.633  -5.265  1.00  0.00    -0.206 OA
BRANCH  26  29
HETATM   29  C5  UNL     1     -19.066  17.707  -7.162  1.00  0.00     0.163 C 
BRANCH  29  30
HETATM   30  C4  UNL     1     -18.522  19.103  -7.473  1.00  0.00     0.017 C 
BRANCH  30  31
HETATM   31  C3  UNL     1     -17.018  19.038  -7.521  1.00  0.00     0.001 C 
BRANCH  31  32
HETATM   32  C2  UNL     1     -16.639  17.606  -7.806  1.00  0.00    -0.005 C 
HETATM   33  C1  UNL     1     -15.745  17.534  -9.025  1.00  0.00     0.005 C 
ENDBRANCH  31  32
ENDBRANCH  30  31
ENDBRANCH  29  30
ENDBRANCH  26  29
ENDBRANCH  24  26
ENDBRANCH   1  24
BRANCH  19  34
HETATM   34  C18 UNL     1     -25.244  21.068  -6.794  1.00  0.00     0.087 C 
BRANCH  34  35
HETATM   35  C19 UNL     1     -26.049  22.294  -6.906  1.00  0.00    -0.007 A 
HETATM   36  C20 UNL     1     -25.524  23.546  -6.720  1.00  0.00     0.057 A 
HETATM   37 CL2  UNL     1     -23.851  23.748  -6.323  1.00  0.00    -0.082 Cl
HETATM   38  C21 UNL     1     -26.290  24.708  -6.829  1.00  0.00     0.112 A 
HETATM   39  N4  UNL     1     -27.578  24.612  -7.123  1.00  0.00    -0.372 N 
HETATM   40  C22 UNL     1     -28.140  23.408  -7.314  1.00  0.00     0.112 A 
ATOM     41  H4  UNL     1     -28.145  25.456  -7.204  1.00  0.00     0.164 HD
HETATM   42  C23 UNL     1     -27.420  22.240  -7.216  1.00  0.00     0.057 A 
HETATM   43 CL3  UNL     1     -28.119  20.673  -7.457  1.00  0.00    -0.082 Cl
ENDBRANCH  34  35
ENDBRANCH  19  34
TORSDOF 8
ENDMDL
MODEL 3
REMARK VINA RESULT: -7.901040771      0.053      1.430
REMARK  8 active torsions:
REMARK  status: ('A' for Active; 'I' for Inactive)
REMARK    1  A    between atoms: C2_2  and  C3_3 
REMARK    2  A    between atoms: C3_3  and  C4_4 
REMARK    3  A    between atoms: C4_4  and  C5_5 
REMARK    4  A    between atoms: C5_5  and  S1_6 
REMARK    5  A    between atoms: S1_6  and  N1_9 
REMARK    6  A    between atoms: N1_9  and  C6_11 
REMARK    7  A    between atoms: C17_29  and  C18_30 
REMARK    8  A    between atoms: C18_30  and  C19_31 
ROOT
HETATM    1  C6  UNL     1     -21.354  19.473  -4.386  1.00  0.00     0.130 A 
HETATM    2  N2  UNL     1     -20.787  19.238  -3.179  1.00  0.00    -0.337 N 
ATOM      3  H2  UNL     1     -19.837  18.867  -3.160  1.00  0.00     0.168 HD
HETATM    4  C7  UNL     1     -21.399  19.463  -2.007  1.00  0.00     0.183 A 
HETATM    5  N3  UNL     1     -22.644  19.951  -2.055  1.00  0.00    -0.338 N 
ATOM      6  H3  UNL     1     -23.122  20.130  -1.172  1.00  0.00     0.168 HD
HETATM    7  C8  UNL     1     -23.301  20.220  -3.193  1.00  0.00     0.126 A 
HETATM    8  C9  UNL     1     -22.637  19.973  -4.408  1.00  0.00     0.065 A 
HETATM    9  C10 UNL     1     -23.296  20.247  -5.577  1.00  0.00     0.009 A 
HETATM   10  C11 UNL     1     -22.734  20.033  -6.892  1.00  0.00     0.036 A 
HETATM   11  C12 UNL     1     -22.052  21.016  -7.575  1.00  0.00     0.132 A 
HETATM   12  F1  UNL     1     -21.831  22.248  -7.018  1.00  0.00    -0.205 F 
HETATM   13  C13 UNL     1     -21.555  20.819  -8.844  1.00  0.00     0.085 A 
HETATM   14  C14 UNL     1     -21.726  19.619  -9.478  1.00  0.00     0.120 A 
HETATM   15  F2  UNL     1     -21.237  19.411 -10.740  1.00  0.00    -0.206 F 
HETATM   16  C15 UNL     1     -22.409  18.645  -8.784  1.00  0.00     0.067 A 
HETATM   17  C16 UNL     1     -22.914  18.820  -7.516  1.00  0.00     0.051 A 
HETATM   18 CL1  UNL     1     -23.745  17.454  -6.805  1.00  0.00    -0.083 Cl
HETATM   19  C17 UNL     1     -24.609  20.765  -5.494  1.00  0.00     0.027 A 
HETATM   20  C24 UNL     1     -25.213  20.990  -4.299  1.00  0.00     0.256 A 
HETATM   21  O3  UNL     1     -26.375  21.452  -4.214  1.00  0.00    -0.267 OA
HETATM   22  N5  UNL     1     -24.549  20.712  -3.144  1.00  0.00    -0.303 N 
HETATM   23  C25 UNL     1     -25.178  20.939  -1.856  1.00  0.00     0.161 C 
ENDROOT
BRANCH   1  24
HETATM   24  N1  UNL     1     -20.706  19.245  -5.468  1.00  0.00    -0.269 N 
ATOM     25  H1  UNL     1     -20.803  19.872  -6.267  1.00  0.00     0.180 HD
BRANCH  24  26
HETATM   26  S1  UNL     1     -19.674  17.874  -5.563  1.00  0.00     0.232 S 
HETATM   27  O1  UNL     1     -19.131  17.801  -6.975  1.00  0.00    -0.206 OA
HETATM   28  O2  UNL     1     -18.576  18.029  -4.568  1.00  0.00    -0.206 OA
BRANCH  26  29
HETATM   29  C5  UNL     1     -20.625  16.403  -5.320  1.00  0.00     0.163 C 
BRANCH  29  30
HETATM   30  C4  UNL     1     -19.767  15.456  -4.477  1.00  0.00     0.017 C 
BRANCH  30  31
HETATM   31  C3  UNL     1     -18.864  14.674  -5.394  1.00  0.00     0.001 C 
BRANCH  31  32
HETATM   32  C2  UNL     1     -17.505  14.617  -4.744  1.00  0.00    -0.005 C 
HETATM   33  C1  UNL     1     -16.531  13.874  -5.633  1.00  0.00     0.005 C 
ENDBRANCH  31  32
ENDBRANCH  30  31
ENDBRANCH  29  30
ENDBRANCH  26  29
ENDBRANCH  24  26
ENDBRANCH   1  24
BRANCH  19  34
HETATM   34  C18 UNL     1     -25.243  21.068  -6.770  1.00  0.00     0.087 C 
BRANCH  34  35
HETATM   35  C19 UNL     1     -26.124  22.244  -6.843  1.00  0.00    -0.007 A 
HETATM   36  C20 UNL     1     -27.465  22.152  -7.109  1.00  0.00     0.057 A 
HETATM   37 CL2  UNL     1     -28.201  20.610  -7.388  1.00  0.00    -0.082 Cl
HETATM   38  C21 UNL     1     -28.299  23.269  -7.175  1.00  0.00     0.112 A 
HETATM   39  N4  UNL     1     -27.788  24.475  -6.977  1.00  0.00    -0.372 N 
HETATM   40  C22 UNL     1     -26.479  24.618  -6.714  1.00  0.00     0.112 A 
ATOM     41  H4  UNL     1     -28.390  25.296  -7.024  1.00  0.00     0.164 HD
HETATM   42  C23 UNL     1     -25.624  23.543  -6.640  1.00  0.00     0.057 A 
HETATM   43 CL3  UNL     1     -23.932  23.699  -6.303  1.00  0.00    -0.082 Cl
ENDBRANCH  34  35
ENDBRANCH  19  34
TORSDOF 8
ENDMDL
MODEL 4
REMARK VINA RESULT: -7.825965269      0.916      1.782
REMARK  8 active torsions:
REMARK  status: ('A' for Active; 'I' for Inactive)
REMARK    1  A    between atoms: C2_2  and  C3_3 
REMARK    2  A    between atoms: C3_3  and  C4_4 
REMARK    3  A    between atoms: C4_4  and  C5_5 
REMARK    4  A    between atoms: C5_5  and  S1_6 
REMARK    5  A    between atoms: S1_6  and  N1_9 
REMARK    6  A    between atoms: N1_9  and  C6_11 
REMARK    7  A    between atoms: C17_29  and  C18_30 
REMARK    8  A    between atoms: C18_30  and  C19_31 
ROOT
HETATM    1  C6  UNL     1     -21.293  19.359  -4.390  1.00  0.00     0.130 A 
HETATM    2  N2  UNL     1     -20.732  19.101  -3.185  1.00  0.00    -0.337 N 
ATOM      3  H2  UNL     1     -19.796  18.693  -3.169  1.00  0.00     0.168 HD
HETATM    4  C7  UNL     1     -21.331  19.347  -2.011  1.00  0.00     0.183 A 
HETATM    5  N3  UNL     1     -22.557  19.882  -2.054  1.00  0.00    -0.338 N 
ATOM      6  H3  UNL     1     -23.025  20.077  -1.169  1.00  0.00     0.168 HD
HETATM    7  C8  UNL     1     -23.206  20.177  -3.190  1.00  0.00     0.126 A 
HETATM    8  C9  UNL     1     -22.556  19.908  -4.407  1.00  0.00     0.065 A 
HETATM    9  C10 UNL     1     -23.207  20.208  -5.574  1.00  0.00     0.009 A 
HETATM   10  C11 UNL     1     -22.658  19.976  -6.890  1.00  0.00     0.036 A 
HETATM   11  C12 UNL     1     -21.940  20.933  -7.574  1.00  0.00     0.132 A 
HETATM   12  F1  UNL     1     -21.671  22.154  -7.016  1.00  0.00    -0.205 F 
HETATM   13  C13 UNL     1     -21.454  20.720  -8.845  1.00  0.00     0.085 A 
HETATM   14  C14 UNL     1     -21.673  19.527  -9.480  1.00  0.00     0.120 A 
HETATM   15  F2  UNL     1     -21.196  19.303 -10.744  1.00  0.00    -0.206 F 
HETATM   16  C15 UNL     1     -22.391  18.579  -8.786  1.00  0.00     0.067 A 
HETATM   17  C16 UNL     1     -22.885  18.771  -7.516  1.00  0.00     0.051 A 
HETATM   18 CL1  UNL     1     -23.766  17.437  -6.804  1.00  0.00    -0.083 Cl
HETATM   19  C17 UNL     1     -24.499  20.776  -5.486  1.00  0.00     0.027 A 
HETATM   20  C24 UNL     1     -25.091  21.021  -4.289  1.00  0.00     0.256 A 
HETATM   21  O3  UNL     1     -26.234  21.528  -4.200  1.00  0.00    -0.267 OA
HETATM   22  N5  UNL     1     -24.434  20.717  -3.136  1.00  0.00    -0.303 N 
HETATM   23  C25 UNL     1     -25.051  20.966  -1.846  1.00  0.00     0.161 C 
ENDROOT
BRANCH   1  24
HETATM   24  N1  UNL     1     -20.657  19.108  -5.474  1.00  0.00    -0.269 N 
ATOM     25  H1  UNL     1     -20.715  19.751  -6.264  1.00  0.00     0.180 HD
BRANCH  24  26
HETATM   26  S1  UNL     1     -19.706  17.680  -5.586  1.00  0.00     0.232 S 
HETATM   27  O1  UNL     1     -18.383  17.952  -4.900  1.00  0.00    -0.206 OA
HETATM   28  O2  UNL     1     -20.439  16.562  -4.930  1.00  0.00    -0.206 OA
BRANCH  26  29
HETATM   29  C5  UNL     1     -19.328  17.357  -7.283  1.00  0.00     0.163 C 
BRANCH  29  30
HETATM   30  C4  UNL     1     -17.849  16.969  -7.340  1.00  0.00     0.017 C 
BRANCH  30  31
HETATM   31  C3  UNL     1     -17.746  15.482  -7.555  1.00  0.00     0.001 C 
BRANCH  31  32
HETATM   32  C2  UNL     1     -16.780  14.945  -6.529  1.00  0.00    -0.005 C 
HETATM   33  C1  UNL     1     -17.535  14.313  -5.380  1.00  0.00     0.005 C 
ENDBRANCH  31  32
ENDBRANCH  30  31
ENDBRANCH  29  30
ENDBRANCH  26  29
ENDBRANCH  24  26
ENDBRANCH   1  24
BRANCH  19  34
HETATM   34  C18 UNL     1     -25.125  21.105  -6.760  1.00  0.00     0.087 C 
BRANCH  34  35
HETATM   35  C19 UNL     1     -25.970  22.307  -6.825  1.00  0.00    -0.007 A 
HETATM   36  C20 UNL     1     -27.319  22.254  -7.061  1.00  0.00     0.057 A 
HETATM   37 CL2  UNL     1     -28.108  20.734  -7.310  1.00  0.00    -0.082 Cl
HETATM   38  C21 UNL     1     -28.119  23.396  -7.120  1.00  0.00     0.112 A 
HETATM   39  N4  UNL     1     -27.566  24.587  -6.945  1.00  0.00    -0.372 N 
HETATM   40  C22 UNL     1     -26.249  24.693  -6.711  1.00  0.00     0.112 A 
ATOM     41  H4  UNL     1     -28.144  25.427  -6.987  1.00  0.00     0.164 HD
HETATM   42  C23 UNL     1     -25.426  23.592  -6.645  1.00  0.00     0.057 A 
HETATM   43 CL3  UNL     1     -23.723  23.698  -6.346  1.00  0.00    -0.082 Cl
ENDBRANCH  34  35
ENDBRANCH  19  34
TORSDOF 8
ENDMDL
MODEL 5
REMARK VINA RESULT: -7.480231383      3.216      4.130
REMARK  8 active torsions:
REMARK  status: ('A' for Active; 'I' for Inactive)
REMARK    1  A    between atoms: C2_2  and  C3_3 
REMARK    2  A    between atoms: C3_3  and  C4_4 
REMARK    3  A    between atoms: C4_4  and  C5_5 
REMARK    4  A    between atoms: C5_5  and  S1_6 
REMARK    5  A    between atoms: S1_6  and  N1_9 
REMARK    6  A    between atoms: N1_9  and  C6_11 
REMARK    7  A    between atoms: C17_29  and  C18_30 
REMARK    8  A    between atoms: C18_30  and  C19_31 
ROOT
HETATM    1  C6  UNL     1     -23.661  21.595  -5.297  1.00  0.00     0.130 A 
HETATM    2  N2  UNL     1     -24.188  21.468  -4.056  1.00  0.00    -0.337 N 
ATOM      3  H2  UNL     1     -23.643  20.969  -3.352  1.00  0.00     0.168 HD
HETATM    4  C7  UNL     1     -25.384  21.957  -3.696  1.00  0.00     0.183 A 
HETATM    5  N3  UNL     1     -26.082  22.608  -4.634  1.00  0.00    -0.338 N 
ATOM      6  H3  UNL     1     -26.992  22.987  -4.376  1.00  0.00     0.168 HD
HETATM    7  C8  UNL     1     -25.657  22.791  -5.892  1.00  0.00     0.126 A 
HETATM    8  C9  UNL     1     -24.400  22.267  -6.244  1.00  0.00     0.065 A 
HETATM    9  C10 UNL     1     -23.953  22.451  -7.525  1.00  0.00     0.009 A 
HETATM   10  C11 UNL     1     -22.687  21.958  -8.020  1.00  0.00     0.036 A 
HETATM   11  C12 UNL     1     -21.535  22.715  -7.992  1.00  0.00     0.132 A 
HETATM   12  F1  UNL     1     -21.523  23.972  -7.448  1.00  0.00    -0.205 F 
HETATM   13  C13 UNL     1     -20.341  22.255  -8.501  1.00  0.00     0.085 A 
HETATM   14  C14 UNL     1     -20.260  21.009  -9.062  1.00  0.00     0.120 A 
HETATM   15  F2  UNL     1     -19.079  20.542  -9.572  1.00  0.00    -0.206 F 
HETATM   16  C15 UNL     1     -21.417  20.264  -9.083  1.00  0.00     0.067 A 
HETATM   17  C16 UNL     1     -22.620  20.703  -8.580  1.00  0.00     0.051 A 
HETATM   18 CL1  UNL     1     -23.973  19.599  -8.696  1.00  0.00    -0.083 Cl
HETATM   19  C17 UNL     1     -24.783  23.161  -8.423  1.00  0.00     0.027 A 
HETATM   20  C24 UNL     1     -25.990  23.652  -8.042  1.00  0.00     0.256 A 
HETATM   21  O3  UNL     1     -26.732  24.287  -8.828  1.00  0.00    -0.267 OA
HETATM   22  N5  UNL     1     -26.424  23.461  -6.766  1.00  0.00    -0.303 N 
HETATM   23  C25 UNL     1     -27.714  23.973  -6.340  1.00  0.00     0.161 C 
ENDROOT
BRANCH   1  24
HETATM   24  N1  UNL     1     -22.505  21.111  -5.568  1.00  0.00    -0.269 N 
ATOM     25  H1  UNL     1     -21.869  21.616  -6.186  1.00  0.00     0.180 HD
BRANCH  24  26
HETATM   26  S1  UNL     1     -22.035  19.606  -4.883  1.00  0.00     0.232 S 
HETATM   27  O1  UNL     1     -21.507  19.878  -3.489  1.00  0.00    -0.206 OA
HETATM   28  O2  UNL     1     -23.219  18.703  -4.848  1.00  0.00    -0.206 OA
BRANCH  26  29
HETATM   29  C5  UNL     1     -20.683  18.937  -5.805  1.00  0.00     0.163 C 
BRANCH  29  30
HETATM   30  C4  UNL     1     -19.868  18.078  -4.834  1.00  0.00     0.017 C 
BRANCH  30  31
HETATM   31  C3  UNL     1     -18.449  17.997  -5.333  1.00  0.00     0.001 C 
BRANCH  31  32
HETATM   32  C2  UNL     1     -18.388  18.748  -6.639  1.00  0.00    -0.005 C 
HETATM   33  C1  UNL     1     -16.963  18.806  -7.143  1.00  0.00     0.005 C 
ENDBRANCH  31  32
ENDBRANCH  30  31
ENDBRANCH  29  30
ENDBRANCH  26  29
ENDBRANCH  24  26
ENDBRANCH   1  24
BRANCH  19  34
HETATM   34  C18 UNL     1     -24.237  23.354  -9.760  1.00  0.00     0.087 C 
BRANCH  34  35
HETATM   35  C19 UNL     1     -24.368  24.684 -10.376  1.00  0.00    -0.007 A 
HETATM   36  C20 UNL     1     -23.953  25.833  -9.755  1.00  0.00     0.057 A 
HETATM   37 CL2  UNL     1     -23.250  25.772  -8.174  1.00  0.00    -0.082 Cl
HETATM   38  C21 UNL     1     -24.076  27.093 -10.342  1.00  0.00     0.112 A 
HETATM   39  N4  UNL     1     -24.614  27.199 -11.548  1.00  0.00    -0.372 N 
HETATM   40  C22 UNL     1     -25.036  26.103 -12.198  1.00  0.00     0.112 A 
ATOM     41  H4  UNL     1     -24.707  28.116 -11.984  1.00  0.00     0.164 HD
HETATM   42  C23 UNL     1     -24.933  24.843 -11.654  1.00  0.00     0.057 A 
HETATM   43 CL3  UNL     1     -25.470  23.412 -12.470  1.00  0.00    -0.082 Cl
ENDBRANCH  34  35
ENDBRANCH  19  34
TORSDOF 8
ENDMDL
