MODEL 1
REMARK VINA RESULT: -9.934780935      0.000      0.000
REMARK  10 active torsions:
REMARK  status: ('A' for Active; 'I' for Inactive)
REMARK    1  A    between atoms: C7_8  and  C8_9 
REMARK    2  A    between atoms: C8_9  and  C9_10 
REMARK    3  A    between atoms: C8_9  and  C22_29 
REMARK    4  A    between atoms: C12_13  and  N1_14 
REMARK    5  A    between atoms: N1_14  and  C13_16 
REMARK    6  A    between atoms: C13_16  and  O1_17 
REMARK    7  A    between atoms: C13_16  and  C14_19 
REMARK    8  A    between atoms: C25_32  and  O2_33 
REMARK    9  A    between atoms: O2_33  and  S1_34 
REMARK   10  A    between atoms: S1_34  and  C26_37 
ROOT
HETATM    1  C1  UNL     1     -16.469  13.540  -5.733  1.00  0.00     0.018 C 
HETATM    2  C2  UNL     1     -17.010  14.626  -5.709  1.00  0.00    -0.071 C 
HETATM    3  C3  UNL     1     -17.658  15.925  -5.656  1.00  0.00     0.094 A 
HETATM    4  C4  UNL     1     -18.060  16.418  -4.407  1.00  0.00     0.138 A 
HETATM    5  F1  UNL     1     -17.835  15.680  -3.293  1.00  0.00    -0.204 F 
HETATM    6  C5  UNL     1     -18.671  17.654  -4.398  1.00  0.00     0.044 A 
HETATM    7  C6  UNL     1     -18.860  18.338  -5.581  1.00  0.00     0.014 A 
HETATM    8  C7  UNL     1     -18.460  17.842  -6.813  1.00  0.00    -0.004 A 
HETATM    9  C28 UNL     1     -17.856  16.624  -6.827  1.00  0.00     0.145 A 
HETATM   10  F4  UNL     1     -17.413  16.025  -7.964  1.00  0.00    -0.204 F 
ENDROOT
BRANCH   8  11
HETATM   11  C8  UNL     1     -18.701  18.637  -8.018  1.00  0.00     0.104 C 
BRANCH  11  12
HETATM   12  C9  UNL     1     -20.036  19.296  -8.032  1.00  0.00    -0.044 A 
HETATM   13  C10 UNL     1     -20.247  20.572  -7.556  1.00  0.00     0.010 A 
HETATM   14  C11 UNL     1     -21.461  21.184  -7.571  1.00  0.00     0.030 A 
HETATM   15  C12 UNL     1     -22.599  20.539  -8.086  1.00  0.00     0.034 A 
HETATM   16  C20 UNL     1     -22.386  19.271  -8.557  1.00  0.00     0.030 A 
HETATM   17  C21 UNL     1     -21.150  18.634  -8.546  1.00  0.00     0.010 A 
BRANCH  15  18
HETATM   18  N1  UNL     1     -23.854  21.206  -8.050  1.00  0.00    -0.336 N 
ATOM     19  H1  UNL     1     -24.038  21.916  -8.759  1.00  0.00     0.168 HD
BRANCH  18  20
HETATM   20  C13 UNL     1     -24.854  20.948  -7.102  1.00  0.00     0.154 C 
BRANCH  20  21
HETATM   21  O1  UNL     1     -26.038  20.706  -7.592  1.00  0.00    -0.345 OA
ATOM     22  H1  UNL     1     -26.588  21.470  -7.720  1.00  0.00     0.219 HD
ENDBRANCH  20  21
BRANCH  20  23
HETATM   23  C14 UNL     1     -24.759  20.920  -5.672  1.00  0.00     0.058 A 
HETATM   24  C15 UNL     1     -25.164  22.071  -4.967  1.00  0.00     0.050 A 
HETATM   25 CL1  UNL     1     -25.702  23.460  -5.890  1.00  0.00    -0.083 Cl
HETATM   26  C16 UNL     1     -25.156  22.168  -3.613  1.00  0.00     0.025 A 
HETATM   27  C17 UNL     1     -24.736  21.105  -2.872  1.00  0.00     0.003 A 
HETATM   28  C18 UNL     1     -24.334  19.967  -3.518  1.00  0.00     0.025 A 
HETATM   29  C19 UNL     1     -24.346  19.871  -4.913  1.00  0.00     0.050 A 
HETATM   30 CL2  UNL     1     -23.870  18.367  -5.660  1.00  0.00    -0.083 Cl
ENDBRANCH  20  23
ENDBRANCH  18  20
ENDBRANCH  15  18
ENDBRANCH  11  12
BRANCH  11  31
HETATM   31  C22 UNL     1     -17.580  19.538  -8.396  1.00  0.00     0.022 A 
HETATM   32  C23 UNL     1     -16.286  19.430  -7.959  1.00  0.00     0.029 A 
HETATM   33  C24 UNL     1     -15.308  20.318  -8.379  1.00  0.00     0.041 A 
HETATM   34  C25 UNL     1     -15.668  21.321  -9.254  1.00  0.00     0.104 A 
HETATM   35  C27 UNL     1     -16.963  21.442  -9.702  1.00  0.00     0.126 A 
HETATM   36  N2  UNL     1     -17.852  20.560  -9.262  1.00  0.00    -0.366 N 
ATOM     37  H2  UNL     1     -18.812  20.652  -9.596  1.00  0.00     0.165 HD
BRANCH  34  38
HETATM   38  O2  UNL     1     -14.736  22.241  -9.712  1.00  0.00    -0.227 OA
BRANCH  38  39
HETATM   39  S1  UNL     1     -13.747  21.972 -11.062  1.00  0.00     0.332 S 
HETATM   40  O3  UNL     1     -13.469  20.500 -11.267  1.00  0.00    -0.193 OA
HETATM   41  O4  UNL     1     -12.424  22.670 -10.963  1.00  0.00    -0.193 OA
BRANCH  39  42
HETATM   42  C26 UNL     1     -14.640  22.511 -12.518  1.00  0.00     0.501 C 
HETATM   43  F2  UNL     1     -14.892  21.439 -13.347  1.00  0.00    -0.195 F 
HETATM   44  F3  UNL     1     -15.818  23.121 -12.174  1.00  0.00    -0.195 F 
ENDBRANCH  39  42
ENDBRANCH  38  39
ENDBRANCH  34  38
ENDBRANCH  11  31
ENDBRANCH   8  11
TORSDOF 10
ENDMDL
MODEL 2
REMARK VINA RESULT: -9.854436673      4.505      9.169
REMARK  10 active torsions:
REMARK  status: ('A' for Active; 'I' for Inactive)
REMARK    1  A    between atoms: C7_8  and  C8_9 
REMARK    2  A    between atoms: C8_9  and  C9_10 
REMARK    3  A    between atoms: C8_9  and  C22_29 
REMARK    4  A    between atoms: C12_13  and  N1_14 
REMARK    5  A    between atoms: N1_14  and  C13_16 
REMARK    6  A    between atoms: C13_16  and  O1_17 
REMARK    7  A    between atoms: C13_16  and  C14_19 
REMARK    8  A    between atoms: C25_32  and  O2_33 
REMARK    9  A    between atoms: O2_33  and  S1_34 
REMARK   10  A    between atoms: S1_34  and  C26_37 
ROOT
HETATM    1  C1  UNL     1     -16.420  13.889  -5.736  1.00  0.00     0.018 C 
HETATM    2  C2  UNL     1     -16.204  14.731  -6.583  1.00  0.00    -0.071 C 
HETATM    3  C3  UNL     1     -15.937  15.720  -7.613  1.00  0.00     0.094 A 
HETATM    4  C4  UNL     1     -15.393  15.285  -8.829  1.00  0.00     0.138 A 
HETATM    5  F1  UNL     1     -15.133  13.968  -9.011  1.00  0.00    -0.204 F 
HETATM    6  C5  UNL     1     -15.155  16.254  -9.781  1.00  0.00     0.044 A 
HETATM    7  C6  UNL     1     -15.451  17.573  -9.511  1.00  0.00     0.014 A 
HETATM    8  C7  UNL     1     -15.989  17.995  -8.305  1.00  0.00    -0.004 A 
HETATM    9  C28 UNL     1     -16.226  17.043  -7.362  1.00  0.00     0.145 A 
HETATM   10  F4  UNL     1     -16.754  17.320  -6.140  1.00  0.00    -0.204 F 
ENDROOT
BRANCH   8  11
HETATM   11  C8  UNL     1     -16.272  19.417  -8.104  1.00  0.00     0.104 C 
BRANCH  11  12
HETATM   12  C9  UNL     1     -15.373  20.312  -8.882  1.00  0.00    -0.044 A 
HETATM   13  C10 UNL     1     -15.053  21.590  -8.476  1.00  0.00     0.010 A 
HETATM   14  C11 UNL     1     -14.227  22.412  -9.177  1.00  0.00     0.030 A 
HETATM   15  C12 UNL     1     -13.636  22.000 -10.383  1.00  0.00     0.034 A 
HETATM   16  C20 UNL     1     -13.957  20.730 -10.785  1.00  0.00     0.030 A 
HETATM   17  C21 UNL     1     -14.800  19.880 -10.078  1.00  0.00     0.010 A 
BRANCH  15  18
HETATM   18  N1  UNL     1     -12.806  22.906 -11.098  1.00  0.00    -0.336 N 
ATOM     19  H1  UNL     1     -11.796  22.791 -11.022  1.00  0.00     0.168 HD
BRANCH  18  20
HETATM   20  C13 UNL     1     -13.290  23.949 -11.901  1.00  0.00     0.154 C 
BRANCH  20  21
HETATM   21  O1  UNL     1     -13.013  25.151 -11.480  1.00  0.00    -0.345 OA
ATOM     22  H1  UNL     1     -13.365  25.373 -10.626  1.00  0.00     0.219 HD
ENDBRANCH  20  21
BRANCH  20  23
HETATM   23  C14 UNL     1     -14.050  23.878 -13.114  1.00  0.00     0.058 A 
HETATM   24  C15 UNL     1     -13.340  23.878 -14.332  1.00  0.00     0.050 A 
HETATM   25 CL1  UNL     1     -11.594  24.016 -14.271  1.00  0.00    -0.083 Cl
HETATM   26  C16 UNL     1     -13.931  23.784 -15.550  1.00  0.00     0.025 A 
HETATM   27  C17 UNL     1     -15.287  23.683 -15.626  1.00  0.00     0.003 A 
HETATM   28  C18 UNL     1     -16.016  23.678 -14.466  1.00  0.00     0.025 A 
HETATM   29  C19 UNL     1     -15.402  23.774 -13.213  1.00  0.00     0.050 A 
HETATM   30 CL2  UNL     1     -16.395  23.707 -11.779  1.00  0.00    -0.083 Cl
ENDBRANCH  20  23
ENDBRANCH  18  20
ENDBRANCH  15  18
ENDBRANCH  11  12
BRANCH  11  31
HETATM   31  C22 UNL     1     -17.711  19.778  -8.198  1.00  0.00     0.022 A 
HETATM   32  C23 UNL     1     -18.700  19.344  -7.355  1.00  0.00     0.029 A 
HETATM   33  C24 UNL     1     -20.016  19.747  -7.522  1.00  0.00     0.041 A 
HETATM   34  C25 UNL     1     -20.311  20.601  -8.564  1.00  0.00     0.104 A 
HETATM   35  C27 UNL     1     -19.329  21.045  -9.418  1.00  0.00     0.126 A 
HETATM   36  N2  UNL     1     -18.089  20.623  -9.204  1.00  0.00    -0.366 N 
ATOM     37  H2  UNL     1     -17.362  20.954  -9.839  1.00  0.00     0.165 HD
BRANCH  34  38
HETATM   38  O2  UNL     1     -21.609  21.041  -8.783  1.00  0.00    -0.227 OA
BRANCH  38  39
HETATM   39  S1  UNL     1     -22.976  20.261  -8.156  1.00  0.00     0.332 S 
HETATM   40  O3  UNL     1     -24.242  20.704  -8.853  1.00  0.00    -0.193 OA
HETATM   41  O4  UNL     1     -23.162  20.503  -6.689  1.00  0.00    -0.193 OA
BRANCH  39  42
HETATM   42  C26 UNL     1     -22.816  18.509  -8.493  1.00  0.00     0.501 C 
HETATM   43  F2  UNL     1     -24.060  17.918  -8.547  1.00  0.00    -0.195 F 
HETATM   44  F3  UNL     1     -22.147  18.294  -9.670  1.00  0.00    -0.195 F 
ENDBRANCH  39  42
ENDBRANCH  38  39
ENDBRANCH  34  38
ENDBRANCH  11  31
ENDBRANCH   8  11
TORSDOF 10
ENDMDL
MODEL 3
REMARK VINA RESULT: -9.847124208      4.597      9.442
REMARK  10 active torsions:
REMARK  status: ('A' for Active; 'I' for Inactive)
REMARK    1  A    between atoms: C7_8  and  C8_9 
REMARK    2  A    between atoms: C8_9  and  C9_10 
REMARK    3  A    between atoms: C8_9  and  C22_29 
REMARK    4  A    between atoms: C12_13  and  N1_14 
REMARK    5  A    between atoms: N1_14  and  C13_16 
REMARK    6  A    between atoms: C13_16  and  O1_17 
REMARK    7  A    between atoms: C13_16  and  C14_19 
REMARK    8  A    between atoms: C25_32  and  O2_33 
REMARK    9  A    between atoms: O2_33  and  S1_34 
REMARK   10  A    between atoms: S1_34  and  C26_37 
ROOT
HETATM    1  C1  UNL     1     -16.445  14.008  -5.724  1.00  0.00     0.018 C 
HETATM    2  C2  UNL     1     -16.239  14.832  -6.590  1.00  0.00    -0.071 C 
HETATM    3  C3  UNL     1     -15.984  15.801  -7.643  1.00  0.00     0.094 A 
HETATM    4  C4  UNL     1     -15.461  15.341  -8.859  1.00  0.00     0.138 A 
HETATM    5  F1  UNL     1     -15.210  14.019  -9.021  1.00  0.00    -0.204 F 
HETATM    6  C5  UNL     1     -15.234  16.290  -9.832  1.00  0.00     0.044 A 
HETATM    7  C6  UNL     1     -15.519  17.616  -9.582  1.00  0.00     0.014 A 
HETATM    8  C7  UNL     1     -16.036  18.063  -8.375  1.00  0.00    -0.004 A 
HETATM    9  C28 UNL     1     -16.262  17.130  -7.412  1.00  0.00     0.145 A 
HETATM   10  F4  UNL     1     -16.770  17.432  -6.187  1.00  0.00    -0.204 F 
ENDROOT
BRANCH   8  11
HETATM   11  C8  UNL     1     -16.309  19.490  -8.197  1.00  0.00     0.104 C 
BRANCH  11  12
HETATM   12  C9  UNL     1     -15.397  20.367  -8.982  1.00  0.00    -0.044 A 
HETATM   13  C10 UNL     1     -14.890  20.009 -10.212  1.00  0.00     0.010 A 
HETATM   14  C11 UNL     1     -14.062  20.807 -10.939  1.00  0.00     0.030 A 
HETATM   15  C12 UNL     1     -13.666  22.071 -10.470  1.00  0.00     0.034 A 
HETATM   16  C20 UNL     1     -14.172  22.423  -9.247  1.00  0.00     0.030 A 
HETATM   17  C21 UNL     1     -15.018  21.617  -8.494  1.00  0.00     0.010 A 
BRANCH  15  18
HETATM   18  N1  UNL     1     -12.773  22.856 -11.250  1.00  0.00    -0.336 N 
ATOM     19  H1  UNL     1     -11.778  22.641 -11.198  1.00  0.00     0.168 HD
BRANCH  18  20
HETATM   20  C13 UNL     1     -13.176  23.907 -12.087  1.00  0.00     0.154 C 
BRANCH  20  21
HETATM   21  O1  UNL     1     -13.167  25.090 -11.539  1.00  0.00    -0.345 OA
ATOM     22  H1  UNL     1     -13.438  25.802 -12.106  1.00  0.00     0.219 HD
ENDBRANCH  20  21
BRANCH  20  23
HETATM   23  C14 UNL     1     -13.601  23.862 -13.455  1.00  0.00     0.058 A 
HETATM   24  C15 UNL     1     -14.981  23.729 -13.707  1.00  0.00     0.050 A 
HETATM   25 CL1  UNL     1     -16.062  23.578 -12.336  1.00  0.00    -0.083 Cl
HETATM   26  C16 UNL     1     -15.521  23.705 -14.952  1.00  0.00     0.025 A 
HETATM   27  C17 UNL     1     -14.703  23.813 -16.036  1.00  0.00     0.003 A 
HETATM   28  C18 UNL     1     -13.355  23.945 -15.835  1.00  0.00     0.025 A 
HETATM   29  C19 UNL     1     -12.803  23.970 -14.550  1.00  0.00     0.050 A 
HETATM   30 CL2  UNL     1     -11.081  24.195 -14.375  1.00  0.00    -0.083 Cl
ENDBRANCH  20  23
ENDBRANCH  18  20
ENDBRANCH  15  18
ENDBRANCH  11  12
BRANCH  11  31
HETATM   31  C22 UNL     1     -17.744  19.861  -8.306  1.00  0.00     0.022 A 
HETATM   32  C23 UNL     1     -18.286  20.687  -9.255  1.00  0.00     0.029 A 
HETATM   33  C24 UNL     1     -19.644  20.965  -9.277  1.00  0.00     0.041 A 
HETATM   34  C25 UNL     1     -20.445  20.388  -8.314  1.00  0.00     0.104 A 
HETATM   35  C27 UNL     1     -19.916  19.558  -7.354  1.00  0.00     0.126 A 
HETATM   36  N2  UNL     1     -18.608  19.331  -7.388  1.00  0.00    -0.366 N 
ATOM     37  H2  UNL     1     -18.217  18.714  -6.675  1.00  0.00     0.165 HD
BRANCH  34  38
HETATM   38  O2  UNL     1     -21.812  20.626  -8.282  1.00  0.00    -0.227 OA
BRANCH  38  39
HETATM   39  S1  UNL     1     -22.906  19.659  -7.423  1.00  0.00     0.332 S 
HETATM   40  O3  UNL     1     -24.339  20.055  -7.699  1.00  0.00    -0.193 OA
HETATM   41  O4  UNL     1     -22.700  19.722  -5.940  1.00  0.00    -0.193 OA
BRANCH  39  42
HETATM   42  C26 UNL     1     -22.739  17.976  -8.014  1.00  0.00     0.501 C 
HETATM   43  F2  UNL     1     -23.912  17.281  -7.812  1.00  0.00    -0.195 F 
HETATM   44  F3  UNL     1     -22.406  17.953  -9.344  1.00  0.00    -0.195 F 
ENDBRANCH  39  42
ENDBRANCH  38  39
ENDBRANCH  34  38
ENDBRANCH  11  31
ENDBRANCH   8  11
TORSDOF 10
ENDMDL
MODEL 4
REMARK VINA RESULT: -9.819913469      0.332      1.495
REMARK  10 active torsions:
REMARK  status: ('A' for Active; 'I' for Inactive)
REMARK    1  A    between atoms: C7_8  and  C8_9 
REMARK    2  A    between atoms: C8_9  and  C9_10 
REMARK    3  A    between atoms: C8_9  and  C22_29 
REMARK    4  A    between atoms: C12_13  and  N1_14 
REMARK    5  A    between atoms: N1_14  and  C13_16 
REMARK    6  A    between atoms: C13_16  and  O1_17 
REMARK    7  A    between atoms: C13_16  and  C14_19 
REMARK    8  A    between atoms: C25_32  and  O2_33 
REMARK    9  A    between atoms: O2_33  and  S1_34 
REMARK   10  A    between atoms: S1_34  and  C26_37 
ROOT
HETATM    1  C1  UNL     1     -16.555  13.507  -5.826  1.00  0.00     0.018 C 
HETATM    2  C2  UNL     1     -17.071  14.604  -5.782  1.00  0.00    -0.071 C 
HETATM    3  C3  UNL     1     -17.690  15.916  -5.703  1.00  0.00     0.094 A 
HETATM    4  C4  UNL     1     -18.063  16.403  -4.443  1.00  0.00     0.138 A 
HETATM    5  F1  UNL     1     -17.838  15.646  -3.342  1.00  0.00    -0.204 F 
HETATM    6  C5  UNL     1     -18.647  17.651  -4.411  1.00  0.00     0.044 A 
HETATM    7  C6  UNL     1     -18.838  18.354  -5.582  1.00  0.00     0.014 A 
HETATM    8  C7  UNL     1     -18.467  17.865  -6.825  1.00  0.00    -0.004 A 
HETATM    9  C28 UNL     1     -17.890  16.633  -6.863  1.00  0.00     0.145 A 
HETATM   10  F4  UNL     1     -17.476  16.039  -8.014  1.00  0.00    -0.204 F 
ENDROOT
BRANCH   8  11
HETATM   11  C8  UNL     1     -18.708  18.679  -8.017  1.00  0.00     0.104 C 
BRANCH  11  12
HETATM   12  C9  UNL     1     -20.030  19.363  -8.006  1.00  0.00    -0.044 A 
HETATM   13  C10 UNL     1     -20.274  20.511  -7.285  1.00  0.00     0.010 A 
HETATM   14  C11 UNL     1     -21.476  21.146  -7.275  1.00  0.00     0.030 A 
HETATM   15  C12 UNL     1     -22.567  20.659  -8.016  1.00  0.00     0.034 A 
HETATM   16  C20 UNL     1     -22.322  19.517  -8.731  1.00  0.00     0.030 A 
HETATM   17  C21 UNL     1     -21.097  18.859  -8.749  1.00  0.00     0.010 A 
BRANCH  15  18
HETATM   18  N1  UNL     1     -23.814  21.338  -7.948  1.00  0.00    -0.336 N 
ATOM     19  H1  UNL     1     -23.977  22.105  -8.600  1.00  0.00     0.168 HD
BRANCH  18  20
HETATM   20  C13 UNL     1     -24.834  21.019  -7.040  1.00  0.00     0.154 C 
BRANCH  20  21
HETATM   21  O1  UNL     1     -25.965  20.657  -7.578  1.00  0.00    -0.345 OA
ATOM     22  H1  UNL     1     -26.716  20.681  -6.997  1.00  0.00     0.219 HD
ENDBRANCH  20  21
BRANCH  20  23
HETATM   23  C14 UNL     1     -24.809  21.041  -5.607  1.00  0.00     0.058 A 
HETATM   24  C15 UNL     1     -24.346  19.887  -4.944  1.00  0.00     0.050 A 
HETATM   25 CL1  UNL     1     -23.887  18.502  -5.915  1.00  0.00    -0.083 Cl
HETATM   26  C16 UNL     1     -24.240  19.783  -3.595  1.00  0.00     0.025 A 
HETATM   27  C17 UNL     1     -24.597  20.842  -2.815  1.00  0.00     0.003 A 
HETATM   28  C18 UNL     1     -25.051  21.984  -3.420  1.00  0.00     0.025 A 
HETATM   29  C19 UNL     1     -25.157  22.086  -4.811  1.00  0.00     0.050 A 
HETATM   30 CL2  UNL     1     -25.694  23.593  -5.509  1.00  0.00    -0.083 Cl
ENDBRANCH  20  23
ENDBRANCH  18  20
ENDBRANCH  15  18
ENDBRANCH  11  12
BRANCH  11  31
HETATM   31  C22 UNL     1     -17.575  19.563  -8.399  1.00  0.00     0.022 A 
HETATM   32  C23 UNL     1     -16.276  19.420  -7.986  1.00  0.00     0.029 A 
HETATM   33  C24 UNL     1     -15.287  20.296  -8.407  1.00  0.00     0.041 A 
HETATM   34  C25 UNL     1     -15.641  21.323  -9.256  1.00  0.00     0.104 A 
HETATM   35  C27 UNL     1     -16.940  21.480  -9.678  1.00  0.00     0.126 A 
HETATM   36  N2  UNL     1     -17.841  20.608  -9.240  1.00  0.00    -0.366 N 
ATOM     37  H2  UNL     1     -18.804  20.726  -9.554  1.00  0.00     0.165 HD
BRANCH  34  38
HETATM   38  O2  UNL     1     -14.697  22.232  -9.713  1.00  0.00    -0.227 OA
BRANCH  38  39
HETATM   39  S1  UNL     1     -13.783  21.998 -11.121  1.00  0.00     0.332 S 
HETATM   40  O3  UNL     1     -13.410  20.545 -11.311  1.00  0.00    -0.193 OA
HETATM   41  O4  UNL     1     -12.513  22.793 -11.129  1.00  0.00    -0.193 OA
BRANCH  39  42
HETATM   42  C26 UNL     1     -14.809  22.429 -12.525  1.00  0.00     0.501 C 
HETATM   43  F2  UNL     1     -14.312  23.551 -13.152  1.00  0.00    -0.195 F 
HETATM   44  F3  UNL     1     -14.882  21.391 -13.417  1.00  0.00    -0.195 F 
ENDBRANCH  39  42
ENDBRANCH  38  39
ENDBRANCH  34  38
ENDBRANCH  11  31
ENDBRANCH   8  11
TORSDOF 10
ENDMDL
MODEL 5
REMARK VINA RESULT: -9.761910513      4.480      9.276
REMARK  10 active torsions:
REMARK  status: ('A' for Active; 'I' for Inactive)
REMARK    1  A    between atoms: C7_8  and  C8_9 
REMARK    2  A    between atoms: C8_9  and  C9_10 
REMARK    3  A    between atoms: C8_9  and  C22_29 
REMARK    4  A    between atoms: C12_13  and  N1_14 
REMARK    5  A    between atoms: N1_14  and  C13_16 
REMARK    6  A    between atoms: C13_16  and  O1_17 
REMARK    7  A    between atoms: C13_16  and  C14_19 
REMARK    8  A    between atoms: C25_32  and  O2_33 
REMARK    9  A    between atoms: O2_33  and  S1_34 
REMARK   10  A    between atoms: S1_34  and  C26_37 
ROOT
HETATM    1  C1  UNL     1     -16.441  14.072  -5.675  1.00  0.00     0.018 C 
HETATM    2  C2  UNL     1     -16.228  14.888  -6.547  1.00  0.00    -0.071 C 
HETATM    3  C3  UNL     1     -15.964  15.847  -7.606  1.00  0.00     0.094 A 
HETATM    4  C4  UNL     1     -15.414  15.379  -8.807  1.00  0.00     0.138 A 
HETATM    5  F1  UNL     1     -15.146  14.059  -8.949  1.00  0.00    -0.204 F 
HETATM    6  C5  UNL     1     -15.180  16.320  -9.787  1.00  0.00     0.044 A 
HETATM    7  C6  UNL     1     -15.484  17.645  -9.558  1.00  0.00     0.014 A 
HETATM    8  C7  UNL     1     -16.028  18.100  -8.366  1.00  0.00    -0.004 A 
HETATM    9  C28 UNL     1     -16.262  17.176  -7.396  1.00  0.00     0.145 A 
HETATM   10  F4  UNL     1     -16.794  17.486  -6.184  1.00  0.00    -0.204 F 
ENDROOT
BRANCH   8  11
HETATM   11  C8  UNL     1     -16.320  19.526  -8.209  1.00  0.00     0.104 C 
BRANCH  11  12
HETATM   12  C9  UNL     1     -15.405  20.404  -8.988  1.00  0.00    -0.044 A 
HETATM   13  C10 UNL     1     -14.920  20.064 -10.233  1.00  0.00     0.010 A 
HETATM   14  C11 UNL     1     -14.089  20.863 -10.955  1.00  0.00     0.030 A 
HETATM   15  C12 UNL     1     -13.666  22.111 -10.466  1.00  0.00     0.034 A 
HETATM   16  C20 UNL     1     -14.148  22.445  -9.228  1.00  0.00     0.030 A 
HETATM   17  C21 UNL     1     -14.998  21.637  -8.480  1.00  0.00     0.010 A 
BRANCH  15  18
HETATM   18  N1  UNL     1     -12.771  22.896 -11.242  1.00  0.00    -0.336 N 
ATOM     19  H1  UNL     1     -11.776  22.676 -11.194  1.00  0.00     0.168 HD
BRANCH  18  20
HETATM   20  C13 UNL     1     -13.170  23.957 -12.068  1.00  0.00     0.154 C 
BRANCH  20  21
HETATM   21  O1  UNL     1     -13.000  25.148 -11.567  1.00  0.00    -0.345 OA
ATOM     22  H1  UNL     1     -12.750  25.819 -12.192  1.00  0.00     0.219 HD
ENDBRANCH  20  21
BRANCH  20  23
HETATM   23  C14 UNL     1     -13.743  23.914 -13.381  1.00  0.00     0.058 A 
HETATM   24  C15 UNL     1     -12.865  23.983 -14.481  1.00  0.00     0.050 A 
HETATM   25 CL1  UNL     1     -11.152  24.167 -14.161  1.00  0.00    -0.083 Cl
HETATM   26  C16 UNL     1     -13.270  23.921 -15.775  1.00  0.00     0.025 A 
HETATM   27  C17 UNL     1     -14.597  23.786 -16.052  1.00  0.00     0.003 A 
HETATM   28  C18 UNL     1     -15.485  23.714 -15.012  1.00  0.00     0.025 A 
HETATM   29  C19 UNL     1     -15.062  23.776 -13.680  1.00  0.00     0.050 A 
HETATM   30 CL2  UNL     1     -16.250  23.624 -12.409  1.00  0.00    -0.083 Cl
ENDBRANCH  20  23
ENDBRANCH  18  20
ENDBRANCH  15  18
ENDBRANCH  11  12
BRANCH  11  31
HETATM   31  C22 UNL     1     -17.757  19.880  -8.347  1.00  0.00     0.022 A 
HETATM   32  C23 UNL     1     -18.281  20.751  -9.265  1.00  0.00     0.029 A 
HETATM   33  C24 UNL     1     -19.642  21.008  -9.319  1.00  0.00     0.041 A 
HETATM   34  C25 UNL     1     -20.465  20.362  -8.420  1.00  0.00     0.104 A 
HETATM   35  C27 UNL     1     -19.954  19.486  -7.491  1.00  0.00     0.126 A 
HETATM   36  N2  UNL     1     -18.642  19.283  -7.492  1.00  0.00    -0.366 N 
ATOM     37  H2  UNL     1     -18.265  18.632  -6.803  1.00  0.00     0.165 HD
BRANCH  34  38
HETATM   38  O2  UNL     1     -21.836  20.577  -8.422  1.00  0.00    -0.227 OA
BRANCH  38  39
HETATM   39  S1  UNL     1     -22.611  21.666  -7.381  1.00  0.00     0.332 S 
HETATM   40  O3  UNL     1     -22.302  21.370  -5.931  1.00  0.00    -0.193 OA
HETATM   41  O4  UNL     1     -24.102  21.658  -7.534  1.00  0.00    -0.193 OA
BRANCH  39  42
HETATM   42  C26 UNL     1     -21.951  23.301  -7.701  1.00  0.00     0.501 C 
HETATM   43  F2  UNL     1     -20.753  23.469  -7.039  1.00  0.00    -0.195 F 
HETATM   44  F3  UNL     1     -21.773  23.505  -9.044  1.00  0.00    -0.195 F 
ENDBRANCH  39  42
ENDBRANCH  38  39
ENDBRANCH  34  38
ENDBRANCH  11  31
ENDBRANCH   8  11
TORSDOF 10
ENDMDL
