MODEL 1
REMARK VINA RESULT: -6.361635579      0.000      0.000
REMARK  11 active torsions:
REMARK  status: ('A' for Active; 'I' for Inactive)
REMARK    1  A    between atoms: C2_2  and  N1_4 
REMARK    2  A    between atoms: N1_4  and  C4_6 
REMARK    3  A    between atoms: C5_9  and  C6_10 
REMARK    4  A    between atoms: C6_10  and  N3_12 
REMARK    5  A    between atoms: N5_18  and  C8_19 
REMARK    6  A    between atoms: C8_19  and  O1_20 
REMARK    7  A    between atoms: O1_20  and  C9_21 
REMARK    8  A    between atoms: C9_21  and  C10_22 
REMARK    9  A    between atoms: C10_22  and  C11_23 
REMARK   10  A    between atoms: C11_23  and  N6_24 
REMARK   11  A    between atoms: C11_23  and  N7_28 
ROOT
HETATM    1  C4  UNL     1       3.617  24.380  33.093  1.00  0.00     0.698 A 
HETATM    2  N2  UNL     1       3.587  23.049  33.458  1.00  0.00    -0.176 N 
ATOM      3  H2  UNL     1       3.938  22.282  32.884  1.00  0.00     0.185 HD
HETATM    4  C5  UNL     1       3.039  22.904  34.659  1.00  0.00     0.142 A 
HETATM    5  N4  UNL     1       2.717  24.134  35.065  1.00  0.00    -0.268 N 
ATOM      6  H4  UNL     1       2.274  24.367  35.954  1.00  0.00     0.189 HD
HETATM    7  N5  UNL     1       3.072  25.023  34.108  1.00  0.00    -0.099 N 
ENDROOT
BRANCH   7   8
HETATM    8  C8  UNL     1       2.800  26.436  34.323  1.00  0.00     0.335 C 
BRANCH   8   9
HETATM    9  O1  UNL     1       2.234  27.039  33.233  1.00  0.00    -0.370 OA
BRANCH   9  10
HETATM   10  C9  UNL     1       2.963  28.151  32.873  1.00  0.00     0.173 C 
BRANCH  10  11
HETATM   11  C10 UNL     1       2.788  29.351  33.741  1.00  0.00     0.088 C 
BRANCH  11  12
HETATM   12  C11 UNL     1       1.391  29.959  33.575  1.00  0.00     0.380 C 
BRANCH  12  13
HETATM   13  N6  UNL     1       0.472  29.406  34.573  1.00  0.00    -0.050 N 
ATOM     14  H63 UNL     1       0.968  28.916  35.316  1.00  0.00     0.276 HD
ATOM     15  H62 UNL     1       0.039  30.137  35.137  1.00  0.00     0.276 HD
ATOM     16  H61 UNL     1      -0.224  28.811  34.123  1.00  0.00     0.276 HD
ENDBRANCH  12  13
BRANCH  12  17
HETATM   17  N7  UNL     1       0.906  29.532  32.280  1.00  0.00    -0.050 N 
ATOM     18  H73 UNL     1       0.877  30.284  31.592  1.00  0.00     0.276 HD
ATOM     19  H72 UNL     1       1.561  28.929  31.783  1.00  0.00     0.276 HD
ATOM     20  H71 UNL     1      -0.003  29.096  32.439  1.00  0.00     0.276 HD
ENDBRANCH  12  17
ENDBRANCH  11  12
ENDBRANCH  10  11
ENDBRANCH   9  10
ENDBRANCH   8   9
ENDBRANCH   7   8
BRANCH   1  21
HETATM   21  N1  UNL     1       4.181  24.770  31.872  1.00  0.00    -0.221 N 
ATOM     22  H1  UNL     1       3.596  24.580  31.058  1.00  0.00     0.178 HD
BRANCH  21  23
HETATM   23  C2  UNL     1       5.432  25.387  31.567  1.00  0.00     0.091 C 
HETATM   24  C1  UNL     1       5.740  25.572  30.123  1.00  0.00     0.032 C 
HETATM   25  C3  UNL     1       6.596  24.526  32.135  1.00  0.00     0.032 C 
ENDBRANCH  21  23
ENDBRANCH   1  21
BRANCH   4  26
HETATM   26  C6  UNL     1       2.824  21.626  35.406  1.00  0.00     0.248 C 
HETATM   27  C7  UNL     1       4.182  20.967  35.591  1.00  0.00     0.048 C 
BRANCH  26  28
HETATM   28  N3  UNL     1       1.897  20.761  34.714  1.00  0.00    -0.069 N 
ATOM     29  H33 UNL     1       1.772  21.048  33.743  1.00  0.00     0.275 HD
ATOM     30  H32 UNL     1       2.295  19.836  34.554  1.00  0.00     0.275 HD
ATOM     31  H31 UNL     1       1.005  20.704  35.204  1.00  0.00     0.275 HD
ENDBRANCH  26  28
ENDBRANCH   4  26
TORSDOF 11
ENDMDL
MODEL 2
REMARK VINA RESULT: -6.215616810      2.453      6.157
REMARK  11 active torsions:
REMARK  status: ('A' for Active; 'I' for Inactive)
REMARK    1  A    between atoms: C2_2  and  N1_4 
REMARK    2  A    between atoms: N1_4  and  C4_6 
REMARK    3  A    between atoms: C5_9  and  C6_10 
REMARK    4  A    between atoms: C6_10  and  N3_12 
REMARK    5  A    between atoms: N5_18  and  C8_19 
REMARK    6  A    between atoms: C8_19  and  O1_20 
REMARK    7  A    between atoms: O1_20  and  C9_21 
REMARK    8  A    between atoms: C9_21  and  C10_22 
REMARK    9  A    between atoms: C10_22  and  C11_23 
REMARK   10  A    between atoms: C11_23  and  N6_24 
REMARK   11  A    between atoms: C11_23  and  N7_28 
ROOT
HETATM    1  C4  UNL     1       3.700  24.215  33.693  1.00  0.00     0.698 A 
HETATM    2  N2  UNL     1       2.751  25.136  34.089  1.00  0.00    -0.176 N 
ATOM      3  H2  UNL     1       1.865  24.900  34.538  1.00  0.00     0.185 HD
HETATM    4  C5  UNL     1       3.148  26.371  33.806  1.00  0.00     0.142 A 
HETATM    5  N4  UNL     1       4.346  26.246  33.230  1.00  0.00    -0.268 N 
ATOM      6  H4  UNL     1       4.923  27.016  32.892  1.00  0.00     0.189 HD
HETATM    7  N5  UNL     1       4.672  24.934  33.166  1.00  0.00    -0.099 N 
ENDROOT
BRANCH   7   8
HETATM    8  C8  UNL     1       5.936  24.552  32.556  1.00  0.00     0.335 C 
BRANCH   8   9
HETATM    9  O1  UNL     1       6.392  25.477  31.656  1.00  0.00    -0.370 OA
BRANCH   9  10
HETATM   10  C9  UNL     1       6.121  25.064  30.370  1.00  0.00     0.173 C 
BRANCH  10  11
HETATM   11  C10 UNL     1       6.858  25.780  29.290  1.00  0.00     0.088 C 
BRANCH  11  12
HETATM   12  C11 UNL     1       8.287  26.125  29.726  1.00  0.00     0.380 C 
BRANCH  12  13
HETATM   13  N6  UNL     1       9.060  26.628  28.588  1.00  0.00    -0.050 N 
ATOM     14  H63 UNL     1       9.386  27.582  28.743  1.00  0.00     0.276 HD
ATOM     15  H62 UNL     1       9.967  26.169  28.511  1.00  0.00     0.276 HD
ATOM     16  H61 UNL     1       8.519  26.546  27.727  1.00  0.00     0.276 HD
ENDBRANCH  12  13
BRANCH  12  17
HETATM   17  N7  UNL     1       8.906  24.881  30.132  1.00  0.00    -0.050 N 
ATOM     18  H73 UNL     1       8.460  24.455  30.944  1.00  0.00     0.276 HD
ATOM     19  H72 UNL     1       8.741  24.116  29.479  1.00  0.00     0.276 HD
ATOM     20  H71 UNL     1       9.896  25.082  30.276  1.00  0.00     0.276 HD
ENDBRANCH  12  17
ENDBRANCH  11  12
ENDBRANCH  10  11
ENDBRANCH   9  10
ENDBRANCH   8   9
ENDBRANCH   7   8
BRANCH   1  21
HETATM   21  N1  UNL     1       3.502  22.847  33.920  1.00  0.00    -0.221 N 
ATOM     22  H1  UNL     1       3.441  22.284  33.072  1.00  0.00     0.178 HD
BRANCH  21  23
HETATM   23  C2  UNL     1       3.370  22.104  35.132  1.00  0.00     0.091 C 
HETATM   24  C1  UNL     1       4.542  21.275  35.526  1.00  0.00     0.032 C 
HETATM   25  C3  UNL     1       2.178  21.113  35.015  1.00  0.00     0.032 C 
ENDBRANCH  21  23
ENDBRANCH   1  21
BRANCH   4  26
HETATM   26  C6  UNL     1       2.408  27.643  34.075  1.00  0.00     0.248 C 
HETATM   27  C7  UNL     1       2.348  28.425  32.772  1.00  0.00     0.048 C 
BRANCH  26  28
HETATM   28  N3  UNL     1       3.034  28.403  35.131  1.00  0.00    -0.069 N 
ATOM     29  H33 UNL     1       2.549  28.279  36.019  1.00  0.00     0.275 HD
ATOM     30  H32 UNL     1       3.938  28.009  35.389  1.00  0.00     0.275 HD
ATOM     31  H31 UNL     1       3.112  29.389  34.882  1.00  0.00     0.275 HD
ENDBRANCH  26  28
ENDBRANCH   4  26
TORSDOF 11
ENDMDL
MODEL 3
REMARK VINA RESULT: -6.146956363      2.331      6.053
REMARK  11 active torsions:
REMARK  status: ('A' for Active; 'I' for Inactive)
REMARK    1  A    between atoms: C2_2  and  N1_4 
REMARK    2  A    between atoms: N1_4  and  C4_6 
REMARK    3  A    between atoms: C5_9  and  C6_10 
REMARK    4  A    between atoms: C6_10  and  N3_12 
REMARK    5  A    between atoms: N5_18  and  C8_19 
REMARK    6  A    between atoms: C8_19  and  O1_20 
REMARK    7  A    between atoms: O1_20  and  C9_21 
REMARK    8  A    between atoms: C9_21  and  C10_22 
REMARK    9  A    between atoms: C10_22  and  C11_23 
REMARK   10  A    between atoms: C11_23  and  N6_24 
REMARK   11  A    between atoms: C11_23  and  N7_28 
ROOT
HETATM    1  C4  UNL     1       3.718  24.165  33.710  1.00  0.00     0.698 A 
HETATM    2  N2  UNL     1       2.769  25.100  34.074  1.00  0.00    -0.176 N 
ATOM      3  H2  UNL     1       1.868  24.877  34.499  1.00  0.00     0.185 HD
HETATM    4  C5  UNL     1       3.188  26.328  33.793  1.00  0.00     0.142 A 
HETATM    5  N4  UNL     1       4.400  26.186  33.252  1.00  0.00    -0.268 N 
ATOM      6  H4  UNL     1       4.994  26.947  32.925  1.00  0.00     0.189 HD
HETATM    7  N5  UNL     1       4.712  24.870  33.206  1.00  0.00    -0.099 N 
ENDROOT
BRANCH   7   8
HETATM    8  C8  UNL     1       5.988  24.469  32.634  1.00  0.00     0.335 C 
BRANCH   8   9
HETATM    9  O1  UNL     1       5.990  24.504  31.266  1.00  0.00    -0.370 OA
BRANCH   9  10
HETATM   10  C9  UNL     1       7.276  24.375  30.788  1.00  0.00     0.173 C 
BRANCH  10  11
HETATM   11  C10 UNL     1       7.966  25.647  30.429  1.00  0.00     0.088 C 
BRANCH  11  12
HETATM   12  C11 UNL     1       7.551  26.132  29.036  1.00  0.00     0.380 C 
BRANCH  12  13
HETATM   13  N6  UNL     1       6.178  25.717  28.739  1.00  0.00    -0.050 N 
ATOM     14  H63 UNL     1       5.669  25.459  29.584  1.00  0.00     0.276 HD
ATOM     15  H62 UNL     1       5.598  26.503  28.448  1.00  0.00     0.276 HD
ATOM     16  H61 UNL     1       6.175  24.966  28.049  1.00  0.00     0.276 HD
ENDBRANCH  12  13
BRANCH  12  17
HETATM   17  N7  UNL     1       8.406  25.448  28.089  1.00  0.00    -0.050 N 
ATOM     18  H73 UNL     1       9.014  24.753  28.524  1.00  0.00     0.276 HD
ATOM     19  H72 UNL     1       7.900  24.808  27.477  1.00  0.00     0.276 HD
ATOM     20  H71 UNL     1       8.917  26.171  27.583  1.00  0.00     0.276 HD
ENDBRANCH  12  17
ENDBRANCH  11  12
ENDBRANCH  10  11
ENDBRANCH   9  10
ENDBRANCH   8   9
ENDBRANCH   7   8
BRANCH   1  21
HETATM   21  N1  UNL     1       3.498  22.802  33.941  1.00  0.00    -0.221 N 
ATOM     22  H1  UNL     1       3.422  22.238  33.094  1.00  0.00     0.178 HD
BRANCH  21  23
HETATM   23  C2  UNL     1       3.362  22.063  35.155  1.00  0.00     0.091 C 
HETATM   24  C1  UNL     1       4.518  21.208  35.538  1.00  0.00     0.032 C 
HETATM   25  C3  UNL     1       2.146  21.099  35.051  1.00  0.00     0.032 C 
ENDBRANCH  21  23
ENDBRANCH   1  21
BRANCH   4  26
HETATM   26  C6  UNL     1       2.455  27.610  34.033  1.00  0.00     0.248 C 
HETATM   27  C7  UNL     1       2.448  28.388  32.726  1.00  0.00     0.048 C 
BRANCH  26  28
HETATM   28  N3  UNL     1       3.055  28.367  35.107  1.00  0.00    -0.069 N 
ATOM     29  H33 UNL     1       3.986  28.018  35.334  1.00  0.00     0.275 HD
ATOM     30  H32 UNL     1       3.308  29.307  34.805  1.00  0.00     0.275 HD
ATOM     31  H31 UNL     1       2.453  28.387  35.929  1.00  0.00     0.275 HD
ENDBRANCH  26  28
ENDBRANCH   4  26
TORSDOF 11
ENDMDL
MODEL 4
REMARK VINA RESULT: -5.999973384      0.935      1.015
REMARK  11 active torsions:
REMARK  status: ('A' for Active; 'I' for Inactive)
REMARK    1  A    between atoms: C2_2  and  N1_4 
REMARK    2  A    between atoms: N1_4  and  C4_6 
REMARK    3  A    between atoms: C5_9  and  C6_10 
REMARK    4  A    between atoms: C6_10  and  N3_12 
REMARK    5  A    between atoms: N5_18  and  C8_19 
REMARK    6  A    between atoms: C8_19  and  O1_20 
REMARK    7  A    between atoms: O1_20  and  C9_21 
REMARK    8  A    between atoms: C9_21  and  C10_22 
REMARK    9  A    between atoms: C10_22  and  C11_23 
REMARK   10  A    between atoms: C11_23  and  N6_24 
REMARK   11  A    between atoms: C11_23  and  N7_28 
ROOT
HETATM    1  C4  UNL     1       4.698  24.457  32.953  1.00  0.00     0.698 A 
HETATM    2  N2  UNL     1       4.598  23.231  33.580  1.00  0.00    -0.176 N 
ATOM      3  H2  UNL     1       5.258  22.463  33.461  1.00  0.00     0.185 HD
HETATM    4  C5  UNL     1       3.523  23.190  34.359  1.00  0.00     0.142 A 
HETATM    5  N4  UNL     1       2.935  24.382  34.234  1.00  0.00    -0.268 N 
ATOM      6  H4  UNL     1       2.079  24.671  34.708  1.00  0.00     0.189 HD
HETATM    7  N5  UNL     1       3.656  25.143  33.379  1.00  0.00    -0.099 N 
ENDROOT
BRANCH   7   8
HETATM    8  C8  UNL     1       3.193  26.487  33.072  1.00  0.00     0.335 C 
BRANCH   8   9
HETATM    9  O1  UNL     1       2.188  26.905  33.903  1.00  0.00    -0.370 OA
BRANCH   9  10
HETATM   10  C9  UNL     1       2.601  27.994  34.639  1.00  0.00     0.173 C 
BRANCH  10  11
HETATM   11  C10 UNL     1       2.770  29.265  33.878  1.00  0.00     0.088 C 
BRANCH  11  12
HETATM   12  C11 UNL     1       1.415  29.896  33.540  1.00  0.00     0.380 C 
BRANCH  12  13
HETATM   13  N6  UNL     1       0.399  29.471  34.505  1.00  0.00    -0.050 N 
ATOM     14  H63 UNL     1      -0.514  29.350  34.067  1.00  0.00     0.276 HD
ATOM     15  H62 UNL     1       0.547  28.511  34.814  1.00  0.00     0.276 HD
ATOM     16  H61 UNL     1       0.361  30.121  35.290  1.00  0.00     0.276 HD
ENDBRANCH  12  13
BRANCH  12  17
HETATM   17  N7  UNL     1       1.019  29.360  32.255  1.00  0.00    -0.050 N 
ATOM     18  H73 UNL     1       1.126  30.026  31.490  1.00  0.00     0.276 HD
ATOM     19  H72 UNL     1       1.661  28.652  31.898  1.00  0.00     0.276 HD
ATOM     20  H71 UNL     1       0.063  29.021  32.363  1.00  0.00     0.276 HD
ENDBRANCH  12  17
ENDBRANCH  11  12
ENDBRANCH  10  11
ENDBRANCH   9  10
ENDBRANCH   8   9
ENDBRANCH   7   8
BRANCH   1  21
HETATM   21  N1  UNL     1       5.776  24.734  32.102  1.00  0.00    -0.221 N 
ATOM     22  H1  UNL     1       6.663  24.329  32.401  1.00  0.00     0.178 HD
BRANCH  21  23
HETATM   23  C2  UNL     1       5.849  25.484  30.890  1.00  0.00     0.091 C 
HETATM   24  C1  UNL     1       5.525  24.746  29.639  1.00  0.00     0.032 C 
HETATM   25  C3  UNL     1       7.293  26.026  30.692  1.00  0.00     0.032 C 
ENDBRANCH  21  23
ENDBRANCH   1  21
BRANCH   4  26
HETATM   26  C6  UNL     1       3.064  22.044  35.205  1.00  0.00     0.248 C 
HETATM   27  C7  UNL     1       4.291  21.230  35.583  1.00  0.00     0.048 C 
BRANCH  26  28
HETATM   28  N3  UNL     1       2.079  21.244  34.516  1.00  0.00    -0.069 N 
ATOM     29  H33 UNL     1       1.270  21.056  35.108  1.00  0.00     0.275 HD
ATOM     30  H32 UNL     1       1.614  21.774  33.779  1.00  0.00     0.275 HD
ATOM     31  H31 UNL     1       2.486  20.382  34.155  1.00  0.00     0.275 HD
ENDBRANCH  26  28
ENDBRANCH   4  26
TORSDOF 11
ENDMDL
MODEL 5
REMARK VINA RESULT: -5.892823488      1.094      3.952
REMARK  11 active torsions:
REMARK  status: ('A' for Active; 'I' for Inactive)
REMARK    1  A    between atoms: C2_2  and  N1_4 
REMARK    2  A    between atoms: N1_4  and  C4_6 
REMARK    3  A    between atoms: C5_9  and  C6_10 
REMARK    4  A    between atoms: C6_10  and  N3_12 
REMARK    5  A    between atoms: N5_18  and  C8_19 
REMARK    6  A    between atoms: C8_19  and  O1_20 
REMARK    7  A    between atoms: O1_20  and  C9_21 
REMARK    8  A    between atoms: C9_21  and  C10_22 
REMARK    9  A    between atoms: C10_22  and  C11_23 
REMARK   10  A    between atoms: C11_23  and  N6_24 
REMARK   11  A    between atoms: C11_23  and  N7_28 
ROOT
HETATM    1  C4  UNL     1       3.628  24.245  33.882  1.00  0.00     0.698 A 
HETATM    2  N2  UNL     1       4.657  23.953  33.010  1.00  0.00    -0.176 N 
ATOM      3  H2  UNL     1       5.031  23.017  32.847  1.00  0.00     0.185 HD
HETATM    4  C5  UNL     1       5.094  25.055  32.413  1.00  0.00     0.142 A 
HETATM    5  N4  UNL     1       4.350  26.052  32.898  1.00  0.00    -0.268 N 
ATOM      6  H4  UNL     1       4.437  27.035  32.639  1.00  0.00     0.189 HD
HETATM    7  N5  UNL     1       3.464  25.550  33.788  1.00  0.00    -0.099 N 
ENDROOT
BRANCH   7   8
HETATM    8  C8  UNL     1       2.553  26.461  34.465  1.00  0.00     0.335 C 
BRANCH   8   9
HETATM    9  O1  UNL     1       2.251  27.564  33.713  1.00  0.00    -0.370 OA
BRANCH   9  10
HETATM   10  C9  UNL     1       2.545  28.713  34.415  1.00  0.00     0.173 C 
BRANCH  10  11
HETATM   11  C10 UNL     1       2.302  29.995  33.692  1.00  0.00     0.088 C 
BRANCH  11  12
HETATM   12  C11 UNL     1       0.808  30.206  33.421  1.00  0.00     0.380 C 
BRANCH  12  13
HETATM   13  N6  UNL     1       0.007  29.628  34.501  1.00  0.00    -0.050 N 
ATOM     14  H63 UNL     1       0.517  28.904  35.007  1.00  0.00     0.276 HD
ATOM     15  H62 UNL     1      -0.126  30.285  35.270  1.00  0.00     0.276 HD
ATOM     16  H61 UNL     1      -0.882  29.283  34.139  1.00  0.00     0.276 HD
ENDBRANCH  12  13
BRANCH  12  17
HETATM   17  N7  UNL     1       0.496  29.456  32.223  1.00  0.00    -0.050 N 
ATOM     18  H73 UNL     1       0.175  28.507  32.414  1.00  0.00     0.276 HD
ATOM     19  H72 UNL     1      -0.346  29.783  31.750  1.00  0.00     0.276 HD
ATOM     20  H71 UNL     1       1.328  29.489  31.634  1.00  0.00     0.276 HD
ENDBRANCH  12  17
ENDBRANCH  11  12
ENDBRANCH  10  11
ENDBRANCH   9  10
ENDBRANCH   8   9
ENDBRANCH   7   8
BRANCH   1  21
HETATM   21  N1  UNL     1       2.994  23.224  34.602  1.00  0.00    -0.221 N 
ATOM     22  H1  UNL     1       2.243  23.544  35.214  1.00  0.00     0.178 HD
BRANCH  21  23
HETATM   23  C2  UNL     1       3.216  21.815  34.629  1.00  0.00     0.091 C 
HETATM   24  C1  UNL     1       2.095  20.981  35.142  1.00  0.00     0.032 C 
HETATM   25  C3  UNL     1       4.430  21.490  35.545  1.00  0.00     0.032 C 
ENDBRANCH  21  23
ENDBRANCH   1  21
BRANCH   4  26
HETATM   26  C6  UNL     1       6.193  25.162  31.404  1.00  0.00     0.248 C 
HETATM   27  C7  UNL     1       5.557  25.490  30.062  1.00  0.00     0.048 C 
BRANCH  26  28
HETATM   28  N3  UNL     1       6.974  23.948  31.346  1.00  0.00    -0.069 N 
ATOM     29  H33 UNL     1       6.692  23.288  32.070  1.00  0.00     0.275 HD
ATOM     30  H32 UNL     1       6.740  23.391  30.525  1.00  0.00     0.275 HD
ATOM     31  H31 UNL     1       7.973  24.147  31.391  1.00  0.00     0.275 HD
ENDBRANCH  26  28
ENDBRANCH   4  26
TORSDOF 11
ENDMDL
