MODEL 1
REMARK VINA RESULT: -7.686048670      0.000      0.000
REMARK  13 active torsions:
REMARK  status: ('A' for Active; 'I' for Inactive)
REMARK    1  A    between atoms: C3_3  and  C4_4 
REMARK    2  A    between atoms: C5_6  and  C6_7 
REMARK    3  A    between atoms: C6_7  and  C7_8 
REMARK    4  A    between atoms: C7_8  and  O2_9 
REMARK    5  A    between atoms: O2_9  and  C8_10 
REMARK    6  A    between atoms: C10_13  and  N1_14 
REMARK    7  A    between atoms: N1_14  and  C11_17 
REMARK    8  A    between atoms: C11_17  and  C12_18 
REMARK    9  A    between atoms: C14_20  and  C15_21 
REMARK   10  A    between atoms: C18_24  and  O4_25 
REMARK   11  A    between atoms: C19_27  and  C20_28 
REMARK   12  A    between atoms: C25_33  and  O5_34 
REMARK   13  A    between atoms: C26_36  and  O6_37 
ROOT
HETATM    1  C1  UNL     1      25.986  28.831  15.052  1.00  0.00     0.112 C 
HETATM    2  C2  UNL     1      25.411  28.696  16.396  1.00  0.00    -0.108 C 
HETATM    3  C3  UNL     1      24.958  28.578  17.506  1.00  0.00    -0.072 C 
ENDROOT
BRANCH   3   4
HETATM    4  C4  UNL     1      24.426  28.430  18.871  1.00  0.00     0.231 C 
HETATM    5  O1  UNL     1      25.484  28.541  19.760  1.00  0.00    -0.363 OA
HETATM    6  C5  UNL     1      25.111  28.142  21.010  1.00  0.00     0.158 C 
HETATM    7  C10 UNL     1      23.727  28.441  21.446  1.00  0.00     0.246 C 
HETATM    8  C25 UNL     1      22.924  29.336  20.564  1.00  0.00     0.183 C 
HETATM    9  C26 UNL     1      23.486  29.574  19.197  1.00  0.00     0.190 C 
BRANCH   6  10
HETATM   10  C6  UNL     1      25.327  26.619  21.057  1.00  0.00     0.061 C 
BRANCH  10  11
HETATM   11  C7  UNL     1      26.767  26.291  20.768  1.00  0.00     0.181 C 
BRANCH  11  12
HETATM   12  O2  UNL     1      26.854  25.074  20.091  1.00  0.00    -0.322 OA
BRANCH  12  13
HETATM   13  C8  UNL     1      27.051  24.876  18.758  1.00  0.00     0.254 C 
HETATM   14  C9  UNL     1      27.229  23.475  18.246  1.00  0.00     0.126 C 
HETATM   15  O3  UNL     1      27.083  25.850  17.981  1.00  0.00    -0.266 OA
ENDBRANCH  12  13
ENDBRANCH  11  12
ENDBRANCH  10  11
ENDBRANCH   6  10
BRANCH   7  16
HETATM   16  N1  UNL     1      23.669  29.042  22.793  1.00  0.00    -0.062 N 
ATOM     17  H12 UNL     1      24.593  29.072  23.224  1.00  0.00     0.278 HD
ATOM     18  H11 UNL     1      23.482  30.043  22.743  1.00  0.00     0.278 HD
BRANCH  16  19
HETATM   19  C11 UNL     1      22.719  28.377  23.645  1.00  0.00     0.271 C 
BRANCH  19  20
HETATM   20  C12 UNL     1      23.427  27.656  24.747  1.00  0.00    -0.032 A 
HETATM   21  C13 UNL     1      23.704  28.299  25.933  1.00  0.00     0.019 A 
HETATM   22  C14 UNL     1      24.366  27.641  26.976  1.00  0.00    -0.020 A 
HETATM   23  C18 UNL     1      24.722  26.343  26.760  1.00  0.00     0.079 A 
HETATM   24  C19 UNL     1      24.463  25.664  25.585  1.00  0.00    -0.016 A 
HETATM   25  C24 UNL     1      23.810  26.333  24.575  1.00  0.00     0.019 A 
BRANCH  22  26
HETATM   26  C15 UNL     1      24.665  28.310  28.267  1.00  0.00     0.013 C 
HETATM   27  C16 UNL     1      25.382  29.621  27.909  1.00  0.00     0.015 C 
HETATM   28  C17 UNL     1      23.411  28.600  29.057  1.00  0.00     0.015 C 
ENDBRANCH  22  26
BRANCH  23  29
HETATM   29  O4  UNL     1      25.376  25.608  27.715  1.00  0.00    -0.360 OA
ATOM     30  H4  UNL     1      25.524  24.676  27.611  1.00  0.00     0.217 HD
ENDBRANCH  23  29
BRANCH  24  31
HETATM   31  C20 UNL     1      24.847  24.275  25.367  1.00  0.00    -0.021 C 
HETATM   32  C21 UNL     1      23.931  23.308  26.131  1.00  0.00     0.019 C 
HETATM   33  C22 UNL     1      24.702  23.971  23.891  1.00  0.00     0.019 C 
HETATM   34  C23 UNL     1      26.243  23.927  25.772  1.00  0.00     0.019 C 
ENDBRANCH  24  31
ENDBRANCH  19  20
ENDBRANCH  16  19
ENDBRANCH   7  16
BRANCH   8  35
HETATM   35  O5  UNL     1      22.700  30.597  21.158  1.00  0.00    -0.391 OA
ATOM     36  H5  UNL     1      23.503  31.099  21.235  1.00  0.00     0.210 HD
ENDBRANCH   8  35
BRANCH   9  37
HETATM   37  O6  UNL     1      22.497  29.716  18.226  1.00  0.00    -0.389 OA
ATOM     38  H6  UNL     1      22.440  30.611  17.915  1.00  0.00     0.210 HD
ENDBRANCH   9  37
ENDBRANCH   3   4
TORSDOF 13
ENDMDL
MODEL 2
REMARK VINA RESULT: -7.666647784      2.577      8.347
REMARK  13 active torsions:
REMARK  status: ('A' for Active; 'I' for Inactive)
REMARK    1  A    between atoms: C3_3  and  C4_4 
REMARK    2  A    between atoms: C5_6  and  C6_7 
REMARK    3  A    between atoms: C6_7  and  C7_8 
REMARK    4  A    between atoms: C7_8  and  O2_9 
REMARK    5  A    between atoms: O2_9  and  C8_10 
REMARK    6  A    between atoms: C10_13  and  N1_14 
REMARK    7  A    between atoms: N1_14  and  C11_17 
REMARK    8  A    between atoms: C11_17  and  C12_18 
REMARK    9  A    between atoms: C14_20  and  C15_21 
REMARK   10  A    between atoms: C18_24  and  O4_25 
REMARK   11  A    between atoms: C19_27  and  C20_28 
REMARK   12  A    between atoms: C25_33  and  O5_34 
REMARK   13  A    between atoms: C26_36  and  O6_37 
ROOT
HETATM    1  C1  UNL     1      20.255  28.960  25.900  1.00  0.00     0.112 C 
HETATM    2  C2  UNL     1      21.354  28.596  24.998  1.00  0.00    -0.108 C 
HETATM    3  C3  UNL     1      22.251  28.278  24.258  1.00  0.00    -0.072 C 
ENDROOT
BRANCH   3   4
HETATM    4  C4  UNL     1      23.335  27.867  23.351  1.00  0.00     0.231 C 
HETATM    5  O1  UNL     1      23.120  26.544  22.993  1.00  0.00    -0.363 OA
HETATM    6  C5  UNL     1      24.223  26.021  22.385  1.00  0.00     0.158 C 
HETATM    7  C10 UNL     1      25.020  26.916  21.513  1.00  0.00     0.246 C 
HETATM    8  C25 UNL     1      24.434  28.253  21.210  1.00  0.00     0.183 C 
HETATM    9  C26 UNL     1      23.273  28.662  22.060  1.00  0.00     0.190 C 
BRANCH   6  10
HETATM   10  C6  UNL     1      25.128  25.494  23.512  1.00  0.00     0.061 C 
BRANCH  10  11
HETATM   11  C7  UNL     1      24.304  24.763  24.537  1.00  0.00     0.181 C 
BRANCH  11  12
HETATM   12  O2  UNL     1      24.124  23.434  24.147  1.00  0.00    -0.322 OA
BRANCH  12  13
HETATM   13  C8  UNL     1      25.041  22.428  24.175  1.00  0.00     0.254 C 
HETATM   14  C9  UNL     1      25.940  22.292  25.371  1.00  0.00     0.126 C 
HETATM   15  O3  UNL     1      25.128  21.636  23.216  1.00  0.00    -0.266 OA
ENDBRANCH  12  13
ENDBRANCH  11  12
ENDBRANCH  10  11
ENDBRANCH   6  10
BRANCH   7  16
HETATM   16  N1  UNL     1      25.338  26.307  20.207  1.00  0.00    -0.062 N 
ATOM     17  H12 UNL     1      24.756  25.489  20.029  1.00  0.00     0.278 HD
ATOM     18  H11 UNL     1      25.024  26.899  19.437  1.00  0.00     0.278 HD
BRANCH  16  19
HETATM   19  C11 UNL     1      26.736  25.988  20.081  1.00  0.00     0.271 C 
BRANCH  19  20
HETATM   20  C12 UNL     1      27.193  26.207  18.674  1.00  0.00    -0.032 A 
HETATM   21  C13 UNL     1      26.620  27.194  17.903  1.00  0.00     0.019 A 
HETATM   22  C14 UNL     1      27.035  27.414  16.584  1.00  0.00    -0.020 A 
HETATM   23  C18 UNL     1      28.023  26.608  16.105  1.00  0.00     0.079 A 
HETATM   24  C19 UNL     1      28.622  25.607  16.846  1.00  0.00    -0.016 A 
HETATM   25  C24 UNL     1      28.197  25.411  18.141  1.00  0.00     0.019 A 
BRANCH  22  26
HETATM   26  C15 UNL     1      26.440  28.479  15.739  1.00  0.00     0.013 C 
HETATM   27  C16 UNL     1      25.888  27.773  14.491  1.00  0.00     0.015 C 
HETATM   28  C17 UNL     1      25.333  29.217  16.453  1.00  0.00     0.015 C 
ENDBRANCH  22  26
BRANCH  23  29
HETATM   29  O4  UNL     1      28.501  26.738  14.826  1.00  0.00    -0.360 OA
ATOM     30  H4  UNL     1      29.360  26.417  14.580  1.00  0.00     0.217 HD
ENDBRANCH  23  29
BRANCH  24  31
HETATM   31  C20 UNL     1      29.680  24.752  16.323  1.00  0.00    -0.021 C 
HETATM   32  C21 UNL     1      30.929  25.564  15.947  1.00  0.00     0.019 C 
HETATM   33  C22 UNL     1      30.079  23.776  17.409  1.00  0.00     0.019 C 
HETATM   34  C23 UNL     1      29.319  23.963  15.105  1.00  0.00     0.019 C 
ENDBRANCH  24  31
ENDBRANCH  19  20
ENDBRANCH  16  19
ENDBRANCH   7  16
BRANCH   8  35
HETATM   35  O5  UNL     1      24.030  28.357  19.861  1.00  0.00    -0.391 OA
ATOM     36  H5  UNL     1      23.242  28.879  19.766  1.00  0.00     0.210 HD
ENDBRANCH   8  35
BRANCH   9  37
HETATM   37  O6  UNL     1      23.241  30.033  22.306  1.00  0.00    -0.389 OA
ATOM     38  H6  UNL     1      24.114  30.406  22.311  1.00  0.00     0.210 HD
ENDBRANCH   9  37
ENDBRANCH   3   4
TORSDOF 13
ENDMDL
MODEL 3
REMARK VINA RESULT: -7.580985850      2.760      8.470
REMARK  13 active torsions:
REMARK  status: ('A' for Active; 'I' for Inactive)
REMARK    1  A    between atoms: C3_3  and  C4_4 
REMARK    2  A    between atoms: C5_6  and  C6_7 
REMARK    3  A    between atoms: C6_7  and  C7_8 
REMARK    4  A    between atoms: C7_8  and  O2_9 
REMARK    5  A    between atoms: O2_9  and  C8_10 
REMARK    6  A    between atoms: C10_13  and  N1_14 
REMARK    7  A    between atoms: N1_14  and  C11_17 
REMARK    8  A    between atoms: C11_17  and  C12_18 
REMARK    9  A    between atoms: C14_20  and  C15_21 
REMARK   10  A    between atoms: C18_24  and  O4_25 
REMARK   11  A    between atoms: C19_27  and  C20_28 
REMARK   12  A    between atoms: C25_33  and  O5_34 
REMARK   13  A    between atoms: C26_36  and  O6_37 
ROOT
HETATM    1  C1  UNL     1      20.494  31.023  23.997  1.00  0.00     0.112 C 
HETATM    2  C2  UNL     1      21.565  30.212  23.407  1.00  0.00    -0.108 C 
HETATM    3  C3  UNL     1      22.433  29.545  22.904  1.00  0.00    -0.072 C 
ENDROOT
BRANCH   3   4
HETATM    4  C4  UNL     1      23.486  28.735  22.268  1.00  0.00     0.231 C 
HETATM    5  O1  UNL     1      23.015  27.436  22.147  1.00  0.00    -0.363 OA
HETATM    6  C5  UNL     1      24.028  26.581  21.826  1.00  0.00     0.158 C 
HETATM    7  C10 UNL     1      25.094  27.081  20.927  1.00  0.00     0.246 C 
HETATM    8  C25 UNL     1      24.862  28.406  20.283  1.00  0.00     0.183 C 
HETATM    9  C26 UNL     1      23.741  29.217  20.853  1.00  0.00     0.190 C 
BRANCH   6  10
HETATM   10  C6  UNL     1      24.666  26.148  23.158  1.00  0.00     0.061 C 
BRANCH  10  11
HETATM   11  C7  UNL     1      23.628  25.522  24.049  1.00  0.00     0.181 C 
BRANCH  11  12
HETATM   12  O2  UNL     1      23.661  24.132  23.918  1.00  0.00    -0.322 OA
BRANCH  12  13
HETATM   13  C8  UNL     1      24.652  23.284  24.308  1.00  0.00     0.254 C 
HETATM   14  C9  UNL     1      25.369  23.544  25.603  1.00  0.00     0.126 C 
HETATM   15  O3  UNL     1      24.954  22.307  23.595  1.00  0.00    -0.266 OA
ENDBRANCH  12  13
ENDBRANCH  11  12
ENDBRANCH  10  11
ENDBRANCH   6  10
BRANCH   7  16
HETATM   16  N1  UNL     1      25.401  26.145  19.827  1.00  0.00    -0.062 N 
ATOM     17  H12 UNL     1      24.667  25.445  19.722  1.00  0.00     0.278 HD
ATOM     18  H11 UNL     1      25.319  26.603  18.919  1.00  0.00     0.278 HD
BRANCH  16  19
HETATM   19  C11 UNL     1      26.692  25.527  19.984  1.00  0.00     0.271 C 
BRANCH  19  20
HETATM   20  C12 UNL     1      27.314  25.282  18.646  1.00  0.00    -0.032 A 
HETATM   21  C13 UNL     1      27.873  24.058  18.353  1.00  0.00     0.019 A 
HETATM   22  C14 UNL     1      28.459  23.810  17.106  1.00  0.00    -0.020 A 
HETATM   23  C18 UNL     1      28.451  24.833  16.206  1.00  0.00     0.079 A 
HETATM   24  C19 UNL     1      27.901  26.074  16.462  1.00  0.00    -0.016 A 
HETATM   25  C24 UNL     1      27.330  26.293  17.695  1.00  0.00     0.019 A 
BRANCH  22  26
HETATM   26  C15 UNL     1      29.058  22.496  16.764  1.00  0.00     0.013 C 
HETATM   27  C16 UNL     1      30.534  22.580  17.181  1.00  0.00     0.015 C 
HETATM   28  C17 UNL     1      28.376  21.359  17.487  1.00  0.00     0.015 C 
ENDBRANCH  22  26
BRANCH  23  29
HETATM   29  O4  UNL     1      29.000  24.696  14.956  1.00  0.00    -0.360 OA
ATOM     30  H4  UNL     1      29.936  24.592  14.833  1.00  0.00     0.217 HD
ENDBRANCH  23  29
BRANCH  24  31
HETATM   31  C20 UNL     1      27.896  27.160  15.489  1.00  0.00    -0.021 C 
HETATM   32  C21 UNL     1      26.785  26.979  14.445  1.00  0.00     0.019 C 
HETATM   33  C22 UNL     1      27.624  28.453  16.227  1.00  0.00     0.019 C 
HETATM   34  C23 UNL     1      29.165  27.330  14.717  1.00  0.00     0.019 C 
ENDBRANCH  24  31
ENDBRANCH  19  20
ENDBRANCH  16  19
ENDBRANCH   7  16
BRANCH   8  35
HETATM   35  O5  UNL     1      24.636  28.285  18.895  1.00  0.00    -0.391 OA
ATOM     36  H5  UNL     1      24.137  29.017  18.553  1.00  0.00     0.210 HD
ENDBRANCH   8  35
BRANCH   9  37
HETATM   37  O6  UNL     1      23.996  30.587  20.820  1.00  0.00    -0.389 OA
ATOM     38  H6  UNL     1      24.137  30.893  19.932  1.00  0.00     0.210 HD
ENDBRANCH   9  37
ENDBRANCH   3   4
TORSDOF 13
ENDMDL
MODEL 4
REMARK VINA RESULT: -7.558760287      1.643      2.124
REMARK  13 active torsions:
REMARK  status: ('A' for Active; 'I' for Inactive)
REMARK    1  A    between atoms: C3_3  and  C4_4 
REMARK    2  A    between atoms: C5_6  and  C6_7 
REMARK    3  A    between atoms: C6_7  and  C7_8 
REMARK    4  A    between atoms: C7_8  and  O2_9 
REMARK    5  A    between atoms: O2_9  and  C8_10 
REMARK    6  A    between atoms: C10_13  and  N1_14 
REMARK    7  A    between atoms: N1_14  and  C11_17 
REMARK    8  A    between atoms: C11_17  and  C12_18 
REMARK    9  A    between atoms: C14_20  and  C15_21 
REMARK   10  A    between atoms: C18_24  and  O4_25 
REMARK   11  A    between atoms: C19_27  and  C20_28 
REMARK   12  A    between atoms: C25_33  and  O5_34 
REMARK   13  A    between atoms: C26_36  and  O6_37 
ROOT
HETATM    1  C1  UNL     1      28.623  27.114  14.514  1.00  0.00     0.112 C 
HETATM    2  C2  UNL     1      27.693  27.312  15.632  1.00  0.00    -0.108 C 
HETATM    3  C3  UNL     1      26.914  27.476  16.536  1.00  0.00    -0.072 C 
ENDROOT
BRANCH   3   4
HETATM    4  C4  UNL     1      25.944  27.675  17.626  1.00  0.00     0.231 C 
HETATM    5  O1  UNL     1      26.648  27.993  18.778  1.00  0.00    -0.363 OA
HETATM    6  C5  UNL     1      25.843  27.917  19.876  1.00  0.00     0.158 C 
HETATM    7  C10 UNL     1      24.428  28.327  19.723  1.00  0.00     0.246 C 
HETATM    8  C25 UNL     1      24.054  28.984  18.437  1.00  0.00     0.183 C 
HETATM    9  C26 UNL     1      25.060  28.873  17.335  1.00  0.00     0.190 C 
BRANCH   6  10
HETATM   10  C6  UNL     1      25.887  26.451  20.342  1.00  0.00     0.061 C 
BRANCH  10  11
HETATM   11  C7  UNL     1      27.237  25.856  20.050  1.00  0.00     0.181 C 
BRANCH  11  12
HETATM   12  O2  UNL     1      27.089  24.617  19.426  1.00  0.00    -0.322 OA
BRANCH  12  13
HETATM   13  C8  UNL     1      27.700  24.180  18.289  1.00  0.00     0.254 C 
HETATM   14  C9  UNL     1      27.165  22.960  17.595  1.00  0.00     0.126 C 
HETATM   15  O3  UNL     1      28.688  24.792  17.838  1.00  0.00    -0.266 OA
ENDBRANCH  12  13
ENDBRANCH  11  12
ENDBRANCH  10  11
ENDBRANCH   6  10
BRANCH   7  16
HETATM   16  N1  UNL     1      23.978  29.243  20.790  1.00  0.00    -0.062 N 
ATOM     17  H12 UNL     1      24.766  29.579  21.344  1.00  0.00     0.278 HD
ATOM     18  H11 UNL     1      23.661  30.132  20.405  1.00  0.00     0.278 HD
BRANCH  16  19
HETATM   19  C11 UNL     1      22.969  28.648  21.628  1.00  0.00     0.271 C 
BRANCH  19  20
HETATM   20  C12 UNL     1      23.513  28.405  22.999  1.00  0.00    -0.032 A 
HETATM   21  C13 UNL     1      23.539  29.422  23.927  1.00  0.00     0.019 A 
HETATM   22  C14 UNL     1      24.044  29.213  25.216  1.00  0.00    -0.020 A 
HETATM   23  C18 UNL     1      24.507  27.963  25.503  1.00  0.00     0.079 A 
HETATM   24  C19 UNL     1      24.498  26.918  24.600  1.00  0.00    -0.016 A 
HETATM   25  C24 UNL     1      23.996  27.149  23.340  1.00  0.00     0.019 A 
BRANCH  22  26
HETATM   26  C15 UNL     1      24.072  30.291  26.236  1.00  0.00     0.013 C 
HETATM   27  C16 UNL     1      25.389  31.051  26.014  1.00  0.00     0.015 C 
HETATM   28  C17 UNL     1      22.899  31.231  26.098  1.00  0.00     0.015 C 
ENDBRANCH  22  26
BRANCH  23  29
HETATM   29  O4  UNL     1      25.024  27.653  26.735  1.00  0.00    -0.360 OA
ATOM     30  H4  UNL     1      25.464  26.828  26.896  1.00  0.00     0.217 HD
ENDBRANCH  23  29
BRANCH  24  31
HETATM   31  C20 UNL     1      24.994  25.585  24.920  1.00  0.00    -0.021 C 
HETATM   32  C21 UNL     1      24.078  24.866  25.922  1.00  0.00     0.019 C 
HETATM   33  C22 UNL     1      25.007  24.768  23.646  1.00  0.00     0.019 C 
HETATM   34  C23 UNL     1      26.367  25.539  25.509  1.00  0.00     0.019 C 
ENDBRANCH  24  31
ENDBRANCH  19  20
ENDBRANCH  16  19
ENDBRANCH   7  16
BRANCH   8  35
HETATM   35  O5  UNL     1      23.763  30.354  18.611  1.00  0.00    -0.391 OA
ATOM     36  H5  UNL     1      22.828  30.518  18.626  1.00  0.00     0.210 HD
ENDBRANCH   8  35
BRANCH   9  37
HETATM   37  O6  UNL     1      24.472  28.779  16.076  1.00  0.00    -0.389 OA
ATOM     38  H6  UNL     1      24.389  29.631  15.666  1.00  0.00     0.210 HD
ENDBRANCH   9  37
ENDBRANCH   3   4
TORSDOF 13
ENDMDL
MODEL 5
REMARK VINA RESULT: -7.482834796      2.863      8.481
REMARK  13 active torsions:
REMARK  status: ('A' for Active; 'I' for Inactive)
REMARK    1  A    between atoms: C3_3  and  C4_4 
REMARK    2  A    between atoms: C5_6  and  C6_7 
REMARK    3  A    between atoms: C6_7  and  C7_8 
REMARK    4  A    between atoms: C7_8  and  O2_9 
REMARK    5  A    between atoms: O2_9  and  C8_10 
REMARK    6  A    between atoms: C10_13  and  N1_14 
REMARK    7  A    between atoms: N1_14  and  C11_17 
REMARK    8  A    between atoms: C11_17  and  C12_18 
REMARK    9  A    between atoms: C14_20  and  C15_21 
REMARK   10  A    between atoms: C18_24  and  O4_25 
REMARK   11  A    between atoms: C19_27  and  C20_28 
REMARK   12  A    between atoms: C25_33  and  O5_34 
REMARK   13  A    between atoms: C26_36  and  O6_37 
ROOT
HETATM    1  C1  UNL     1      19.649  28.114  23.205  1.00  0.00     0.112 C 
HETATM    2  C2  UNL     1      21.081  28.000  22.903  1.00  0.00    -0.108 C 
HETATM    3  C3  UNL     1      22.253  27.887  22.651  1.00  0.00    -0.072 C 
ENDROOT
BRANCH   3   4
HETATM    4  C4  UNL     1      23.682  27.727  22.334  1.00  0.00     0.231 C 
HETATM    5  O1  UNL     1      23.905  26.398  22.006  1.00  0.00    -0.363 OA
HETATM    6  C5  UNL     1      25.240  26.124  21.972  1.00  0.00     0.158 C 
HETATM    7  C10 UNL     1      26.149  27.183  21.476  1.00  0.00     0.246 C 
HETATM    8  C25 UNL     1      25.510  28.382  20.860  1.00  0.00     0.183 C 
HETATM    9  C26 UNL     1      24.040  28.526  21.095  1.00  0.00     0.190 C 
BRANCH   6  10
HETATM   10  C6  UNL     1      25.642  25.760  23.412  1.00  0.00     0.061 C 
BRANCH  10  11
HETATM   11  C7  UNL     1      24.481  25.127  24.129  1.00  0.00     0.181 C 
BRANCH  11  12
HETATM   12  O2  UNL     1      24.310  23.812  23.694  1.00  0.00    -0.322 OA
BRANCH  12  13
HETATM   13  C8  UNL     1      25.012  22.710  24.080  1.00  0.00     0.254 C 
HETATM   14  C9  UNL     1      25.664  22.697  25.434  1.00  0.00     0.126 C 
HETATM   15  O3  UNL     1      25.108  21.732  23.314  1.00  0.00    -0.266 OA
ENDBRANCH  12  13
ENDBRANCH  11  12
ENDBRANCH  10  11
ENDBRANCH   6  10
BRANCH   7  16
HETATM   16  N1  UNL     1      27.118  26.684  20.479  1.00  0.00    -0.062 N 
ATOM     17  H12 UNL     1      27.226  27.343  19.708  1.00  0.00     0.278 HD
ATOM     18  H11 UNL     1      28.070  26.708  20.846  1.00  0.00     0.278 HD
BRANCH  16  19
HETATM   19  C11 UNL     1      26.778  25.371  19.999  1.00  0.00     0.271 C 
BRANCH  19  20
HETATM   20  C12 UNL     1      27.369  25.146  18.644  1.00  0.00    -0.032 A 
HETATM   21  C13 UNL     1      27.906  23.922  18.314  1.00  0.00     0.019 A 
HETATM   22  C14 UNL     1      28.463  23.693  17.050  1.00  0.00    -0.020 A 
HETATM   23  C18 UNL     1      28.450  24.735  16.172  1.00  0.00     0.079 A 
HETATM   24  C19 UNL     1      27.922  25.977  16.465  1.00  0.00    -0.016 A 
HETATM   25  C24 UNL     1      27.379  26.177  17.714  1.00  0.00     0.019 A 
BRANCH  22  26
HETATM   26  C15 UNL     1      29.037  22.379  16.668  1.00  0.00     0.013 C 
HETATM   27  C16 UNL     1      30.536  22.457  16.997  1.00  0.00     0.015 C 
HETATM   28  C17 UNL     1      28.396  21.240  17.425  1.00  0.00     0.015 C 
ENDBRANCH  22  26
BRANCH  23  29
HETATM   29  O4  UNL     1      28.973  24.617  14.909  1.00  0.00    -0.360 OA
ATOM     30  H4  UNL     1      28.719  25.206  14.208  1.00  0.00     0.217 HD
ENDBRANCH  23  29
BRANCH  24  31
HETATM   31  C20 UNL     1      27.912  27.083  15.516  1.00  0.00    -0.021 C 
HETATM   32  C21 UNL     1      26.809  26.913  14.460  1.00  0.00     0.019 C 
HETATM   33  C22 UNL     1      27.621  28.358  16.279  1.00  0.00     0.019 C 
HETATM   34  C23 UNL     1      29.184  27.283  14.755  1.00  0.00     0.019 C 
ENDBRANCH  24  31
ENDBRANCH  19  20
ENDBRANCH  16  19
ENDBRANCH   7  16
BRANCH   8  35
HETATM   35  O5  UNL     1      25.727  28.437  19.467  1.00  0.00    -0.391 OA
ATOM     36  H5  UNL     1      24.916  28.350  18.979  1.00  0.00     0.210 HD
ENDBRANCH   8  35
BRANCH   9  37
HETATM   37  O6  UNL     1      23.640  29.855  21.212  1.00  0.00    -0.389 OA
ATOM     38  H6  UNL     1      24.124  30.417  20.619  1.00  0.00     0.210 HD
ENDBRANCH   9  37
ENDBRANCH   3   4
TORSDOF 13
ENDMDL
