MODEL 1
REMARK VINA RESULT: -8.207969451      0.000      0.000
REMARK  9 active torsions:
REMARK  status: ('A' for Active; 'I' for Inactive)
REMARK    1  A    between atoms: C2_2  and  C5_5 
REMARK    2  A    between atoms: C5_5  and  C6_7 
REMARK    3  A    between atoms: C6_7  and  O2_8 
REMARK    4  A    between atoms: C6_7  and  N1_10 
REMARK    5  A    between atoms: N1_10  and  C7_12 
REMARK    6  A    between atoms: C9_14  and  C10_15 
REMARK    7  A    between atoms: C10_15  and  N2_16 
REMARK    8  A    between atoms: C10_15  and  C22_30 
REMARK       I    between atoms: N2_16  and  C11_18 
REMARK    9  A    between atoms: C11_18  and  C12_20 
ROOT
HETATM    1  C10 UNL     1      23.064  30.764  20.467  1.00  0.00     0.214 C 
ENDROOT
BRANCH   1   2
HETATM    2  C9  UNL     1      22.252  30.342  21.647  1.00  0.00     0.158 C 
HETATM    3  C8  UNL     1      22.430  28.918  22.062  1.00  0.00     0.070 C 
HETATM    4  C7  UNL     1      21.448  28.655  23.215  1.00  0.00     0.146 C 
HETATM    5  S1  UNL     1      19.818  28.619  22.340  1.00  0.00    -0.118 SA
HETATM    6  C23 UNL     1      20.077  29.847  20.997  1.00  0.00     0.244 C 
HETATM    7  O6  UNL     1      20.963  30.771  21.477  1.00  0.00    -0.373 OA
BRANCH   4   8
HETATM    8  N1  UNL     1      21.676  27.421  23.882  1.00  0.00    -0.378 N 
ATOM      9  H1  UNL     1      21.071  27.111  24.642  1.00  0.00     0.157 HD
BRANCH   8  10
HETATM   10  C6  UNL     1      22.779  26.634  23.451  1.00  0.00     0.286 C 
BRANCH  10  11
HETATM   11  C5  UNL     1      23.660  26.113  24.507  1.00  0.00     0.182 C 
HETATM   12  O1  UNL     1      23.302  26.118  25.667  1.00  0.00    -0.292 OA
BRANCH  11  13
HETATM   13  C2  UNL     1      25.021  25.557  24.232  1.00  0.00     0.014 C 
HETATM   14  C1  UNL     1      24.962  24.081  23.920  1.00  0.00     0.023 C 
HETATM   15  C3  UNL     1      25.569  26.305  23.036  1.00  0.00     0.023 C 
HETATM   16  C4  UNL     1      25.965  25.783  25.391  1.00  0.00     0.023 C 
ENDBRANCH  11  13
ENDBRANCH  10  11
BRANCH  10  17
HETATM   17  O2  UNL     1      22.264  25.569  22.659  1.00  0.00    -0.370 OA
ATOM     18  H2  UNL     1      22.925  25.255  22.052  1.00  0.00     0.212 HD
ENDBRANCH  10  17
ENDBRANCH   8  10
ENDBRANCH   4   8
ENDBRANCH   1   2
BRANCH   1  19
HETATM   19  N2  UNL     1      24.271  30.034  20.248  1.00  0.00    -0.344 N 
HETATM   20  C11 UNL     1      24.329  28.987  19.283  1.00  0.00     0.227 C 
HETATM   21  O3  UNL     1      23.275  28.740  18.641  1.00  0.00    -0.273 OA
ATOM     22  H2  UNL     1      25.104  30.266  20.790  1.00  0.00     0.163 HD
BRANCH  20  23
HETATM   23  C12 UNL     1      25.568  28.207  19.028  1.00  0.00     0.042 C 
HETATM   24  C13 UNL     1      26.550  28.395  20.167  1.00  0.00     0.024 C 
HETATM   25  C14 UNL     1      27.746  27.518  20.007  1.00  0.00    -0.013 C 
HETATM   26  C15 UNL     1      28.445  27.810  18.702  1.00  0.00     0.009 C 
HETATM   27  C19 UNL     1      27.313  26.072  20.009  1.00  0.00     0.009 C 
HETATM   28  C16 UNL     1      27.454  27.666  17.592  1.00  0.00    -0.013 C 
HETATM   29  C17 UNL     1      27.065  26.194  17.527  1.00  0.00     0.009 C 
HETATM   30  C21 UNL     1      26.243  28.553  17.739  1.00  0.00     0.024 C 
HETATM   31  C18 UNL     1      26.393  25.850  18.853  1.00  0.00    -0.013 C 
HETATM   32  C20 UNL     1      25.201  26.745  18.986  1.00  0.00     0.024 C 
ENDBRANCH  20  23
ENDBRANCH   1  19
BRANCH   1  33
HETATM   33  C22 UNL     1      23.370  32.229  20.580  1.00  0.00     0.199 C 
HETATM   34  O4  UNL     1      24.068  32.710  21.502  1.00  0.00    -0.646 OA
HETATM   35  O5  UNL     1      22.868  33.106  19.630  1.00  0.00    -0.646 OA
ENDBRANCH   1  33
TORSDOF 9
ENDMDL
MODEL 2
REMARK VINA RESULT: -8.193961495      1.887      5.289
REMARK  9 active torsions:
REMARK  status: ('A' for Active; 'I' for Inactive)
REMARK    1  A    between atoms: C2_2  and  C5_5 
REMARK    2  A    between atoms: C5_5  and  C6_7 
REMARK    3  A    between atoms: C6_7  and  O2_8 
REMARK    4  A    between atoms: C6_7  and  N1_10 
REMARK    5  A    between atoms: N1_10  and  C7_12 
REMARK    6  A    between atoms: C9_14  and  C10_15 
REMARK    7  A    between atoms: C10_15  and  N2_16 
REMARK    8  A    between atoms: C10_15  and  C22_30 
REMARK       I    between atoms: N2_16  and  C11_18 
REMARK    9  A    between atoms: C11_18  and  C12_20 
ROOT
HETATM    1  C10 UNL     1      24.868  25.820  23.511  1.00  0.00     0.214 C 
ENDROOT
BRANCH   1   2
HETATM    2  C9  UNL     1      23.432  26.171  23.717  1.00  0.00     0.158 C 
HETATM    3  C8  UNL     1      22.993  27.447  23.075  1.00  0.00     0.070 C 
HETATM    4  C7  UNL     1      21.528  27.678  23.480  1.00  0.00     0.146 C 
HETATM    5  S1  UNL     1      21.686  28.156  25.261  1.00  0.00    -0.118 SA
HETATM    6  C23 UNL     1      23.128  27.151  25.800  1.00  0.00     0.244 C 
HETATM    7  O6  UNL     1      23.120  26.015  25.040  1.00  0.00    -0.373 OA
BRANCH   4   8
HETATM    8  N1  UNL     1      20.897  28.718  22.746  1.00  0.00    -0.378 N 
ATOM      9  H1  UNL     1      19.888  28.719  22.591  1.00  0.00     0.157 HD
BRANCH   8  10
HETATM   10  C6  UNL     1      21.720  29.758  22.234  1.00  0.00     0.286 C 
BRANCH  10  11
HETATM   11  C5  UNL     1      21.562  30.072  20.807  1.00  0.00     0.182 C 
HETATM   12  O1  UNL     1      20.510  29.856  20.240  1.00  0.00    -0.292 OA
BRANCH  11  13
HETATM   13  C2  UNL     1      22.657  30.665  19.977  1.00  0.00     0.014 C 
HETATM   14  C1  UNL     1      24.014  30.172  20.420  1.00  0.00     0.023 C 
HETATM   15  C3  UNL     1      22.405  30.237  18.547  1.00  0.00     0.023 C 
HETATM   16  C4  UNL     1      22.638  32.175  20.019  1.00  0.00     0.023 C 
ENDBRANCH  11  13
ENDBRANCH  10  11
BRANCH  10  17
HETATM   17  O2  UNL     1      21.494  30.916  23.030  1.00  0.00    -0.370 OA
ATOM     18  H2  UNL     1      21.020  30.690  23.822  1.00  0.00     0.212 HD
ENDBRANCH  10  17
ENDBRANCH   8  10
ENDBRANCH   4   8
ENDBRANCH   1   2
BRANCH   1  19
HETATM   19  N2  UNL     1      25.321  25.810  22.157  1.00  0.00    -0.344 N 
HETATM   20  C11 UNL     1      26.296  26.745  21.703  1.00  0.00     0.227 C 
HETATM   21  O3  UNL     1      26.734  27.571  22.547  1.00  0.00    -0.273 OA
ATOM     22  H2  UNL     1      24.941  25.124  21.506  1.00  0.00     0.163 HD
BRANCH  20  23
HETATM   23  C12 UNL     1      26.790  26.764  20.303  1.00  0.00     0.042 C 
HETATM   24  C13 UNL     1      28.050  27.599  20.201  1.00  0.00     0.024 C 
HETATM   25  C14 UNL     1      28.646  27.526  18.836  1.00  0.00    -0.013 C 
HETATM   26  C15 UNL     1      27.657  28.002  17.801  1.00  0.00     0.009 C 
HETATM   27  C19 UNL     1      29.018  26.096  18.526  1.00  0.00     0.009 C 
HETATM   28  C16 UNL     1      26.402  27.200  17.942  1.00  0.00    -0.013 C 
HETATM   29  C17 UNL     1      26.741  25.767  17.554  1.00  0.00     0.009 C 
HETATM   30  C21 UNL     1      25.786  27.272  19.317  1.00  0.00     0.024 C 
HETATM   31  C18 UNL     1      27.776  25.266  18.556  1.00  0.00    -0.013 C 
HETATM   32  C20 UNL     1      27.152  25.353  19.914  1.00  0.00     0.024 C 
ENDBRANCH  20  23
ENDBRANCH   1  19
BRANCH   1  33
HETATM   33  C22 UNL     1      25.146  24.490  24.149  1.00  0.00     0.199 C 
HETATM   34  O4  UNL     1      24.627  23.423  23.750  1.00  0.00    -0.646 OA
HETATM   35  O5  UNL     1      26.015  24.419  25.227  1.00  0.00    -0.646 OA
ENDBRANCH   1  33
TORSDOF 9
ENDMDL
MODEL 3
REMARK VINA RESULT: -8.166882816      3.775      7.940
REMARK  9 active torsions:
REMARK  status: ('A' for Active; 'I' for Inactive)
REMARK    1  A    between atoms: C2_2  and  C5_5 
REMARK    2  A    between atoms: C5_5  and  C6_7 
REMARK    3  A    between atoms: C6_7  and  O2_8 
REMARK    4  A    between atoms: C6_7  and  N1_10 
REMARK    5  A    between atoms: N1_10  and  C7_12 
REMARK    6  A    between atoms: C9_14  and  C10_15 
REMARK    7  A    between atoms: C10_15  and  N2_16 
REMARK    8  A    between atoms: C10_15  and  C22_30 
REMARK       I    between atoms: N2_16  and  C11_18 
REMARK    9  A    between atoms: C11_18  and  C12_20 
ROOT
HETATM    1  C10 UNL     1      25.246  27.159  21.586  1.00  0.00     0.214 C 
ENDROOT
BRANCH   1   2
HETATM    2  C9  UNL     1      25.908  26.867  20.280  1.00  0.00     0.158 C 
HETATM    3  C8  UNL     1      26.648  25.570  20.222  1.00  0.00     0.070 C 
HETATM    4  C7  UNL     1      27.332  25.500  18.846  1.00  0.00     0.146 C 
HETATM    5  S1  UNL     1      28.697  26.737  19.026  1.00  0.00    -0.118 SA
HETATM    6  C23 UNL     1      27.932  27.994  20.127  1.00  0.00     0.244 C 
HETATM    7  O6  UNL     1      26.590  27.978  19.867  1.00  0.00    -0.373 OA
BRANCH   4   8
HETATM    8  N1  UNL     1      27.866  24.218  18.546  1.00  0.00    -0.378 N 
ATOM      9  H1  UNL     1      28.407  23.695  19.236  1.00  0.00     0.157 HD
BRANCH   8  10
HETATM   10  C6  UNL     1      27.620  23.689  17.250  1.00  0.00     0.286 C 
BRANCH  10  11
HETATM   11  C5  UNL     1      28.798  23.492  16.392  1.00  0.00     0.182 C 
HETATM   12  O1  UNL     1      29.298  22.392  16.273  1.00  0.00    -0.292 OA
BRANCH  11  13
HETATM   13  C2  UNL     1      29.444  24.604  15.627  1.00  0.00     0.014 C 
HETATM   14  C1  UNL     1      30.656  25.140  16.351  1.00  0.00     0.023 C 
HETATM   15  C3  UNL     1      29.865  24.033  14.291  1.00  0.00     0.023 C 
HETATM   16  C4  UNL     1      28.480  25.739  15.364  1.00  0.00     0.023 C 
ENDBRANCH  11  13
ENDBRANCH  10  11
BRANCH  10  17
HETATM   17  O2  UNL     1      26.909  22.467  17.412  1.00  0.00    -0.370 OA
ATOM     18  H2  UNL     1      26.376  22.492  18.198  1.00  0.00     0.212 HD
ENDBRANCH  10  17
ENDBRANCH   8  10
ENDBRANCH   4   8
ENDBRANCH   1   2
BRANCH   1  19
HETATM   19  N2  UNL     1      25.357  26.144  22.583  1.00  0.00    -0.344 N 
HETATM   20  C11 UNL     1      25.391  26.477  23.968  1.00  0.00     0.227 C 
HETATM   21  O3  UNL     1      25.319  27.699  24.265  1.00  0.00    -0.273 OA
ATOM     22  H2  UNL     1      25.412  25.166  22.300  1.00  0.00     0.163 HD
BRANCH  20  23
HETATM   23  C12 UNL     1      25.505  25.448  25.032  1.00  0.00     0.042 C 
HETATM   24  C13 UNL     1      24.427  25.651  26.077  1.00  0.00     0.024 C 
HETATM   25  C14 UNL     1      24.430  24.553  27.087  1.00  0.00    -0.013 C 
HETATM   26  C15 UNL     1      25.770  24.470  27.774  1.00  0.00     0.009 C 
HETATM   27  C19 UNL     1      24.158  23.238  26.398  1.00  0.00     0.009 C 
HETATM   28  C16 UNL     1      26.829  24.315  26.729  1.00  0.00    -0.013 C 
HETATM   29  C17 UNL     1      26.618  22.954  26.077  1.00  0.00     0.009 C 
HETATM   30  C21 UNL     1      26.841  25.423  25.707  1.00  0.00     0.024 C 
HETATM   31  C18 UNL     1      25.248  22.986  25.408  1.00  0.00    -0.013 C 
HETATM   32  C20 UNL     1      25.275  24.096  24.405  1.00  0.00     0.024 C 
ENDBRANCH  20  23
ENDBRANCH   1  19
BRANCH   1  33
HETATM   33  C22 UNL     1      23.799  27.477  21.343  1.00  0.00     0.199 C 
HETATM   34  O4  UNL     1      23.411  28.575  20.884  1.00  0.00    -0.646 OA
HETATM   35  O5  UNL     1      22.834  26.524  21.633  1.00  0.00    -0.646 OA
ENDBRANCH   1  33
TORSDOF 9
ENDMDL
MODEL 4
REMARK VINA RESULT: -8.156960372      3.799      7.994
REMARK  9 active torsions:
REMARK  status: ('A' for Active; 'I' for Inactive)
REMARK    1  A    between atoms: C2_2  and  C5_5 
REMARK    2  A    between atoms: C5_5  and  C6_7 
REMARK    3  A    between atoms: C6_7  and  O2_8 
REMARK    4  A    between atoms: C6_7  and  N1_10 
REMARK    5  A    between atoms: N1_10  and  C7_12 
REMARK    6  A    between atoms: C9_14  and  C10_15 
REMARK    7  A    between atoms: C10_15  and  N2_16 
REMARK    8  A    between atoms: C10_15  and  C22_30 
REMARK       I    between atoms: N2_16  and  C11_18 
REMARK    9  A    between atoms: C11_18  and  C12_20 
ROOT
HETATM    1  C10 UNL     1      25.246  27.085  21.564  1.00  0.00     0.214 C 
ENDROOT
BRANCH   1   2
HETATM    2  C9  UNL     1      25.920  26.819  20.259  1.00  0.00     0.158 C 
HETATM    3  C8  UNL     1      26.683  25.536  20.190  1.00  0.00     0.070 C 
HETATM    4  C7  UNL     1      27.377  25.494  18.819  1.00  0.00     0.146 C 
HETATM    5  S1  UNL     1      28.719  26.751  19.021  1.00  0.00    -0.118 SA
HETATM    6  C23 UNL     1      27.926  27.983  20.133  1.00  0.00     0.244 C 
HETATM    7  O6  UNL     1      26.587  27.947  19.864  1.00  0.00    -0.373 OA
BRANCH   4   8
HETATM    8  N1  UNL     1      27.934  24.225  18.506  1.00  0.00    -0.378 N 
ATOM      9  H1  UNL     1      28.508  23.719  19.181  1.00  0.00     0.157 HD
BRANCH   8  10
HETATM   10  C6  UNL     1      27.663  23.685  17.219  1.00  0.00     0.286 C 
BRANCH  10  11
HETATM   11  C5  UNL     1      28.823  23.487  16.338  1.00  0.00     0.182 C 
HETATM   12  O1  UNL     1      29.316  22.386  16.205  1.00  0.00    -0.292 OA
BRANCH  11  13
HETATM   13  C2  UNL     1      29.458  24.600  15.565  1.00  0.00     0.014 C 
HETATM   14  C1  UNL     1      30.669  25.148  16.282  1.00  0.00     0.023 C 
HETATM   15  C3  UNL     1      29.877  24.025  14.230  1.00  0.00     0.023 C 
HETATM   16  C4  UNL     1      28.485  25.726  15.300  1.00  0.00     0.023 C 
ENDBRANCH  11  13
ENDBRANCH  10  11
BRANCH  10  17
HETATM   17  O2  UNL     1      26.961  22.461  17.406  1.00  0.00    -0.370 OA
ATOM     18  H2  UNL     1      27.255  22.025  18.197  1.00  0.00     0.212 HD
ENDBRANCH  10  17
ENDBRANCH   8  10
ENDBRANCH   4   8
ENDBRANCH   1   2
BRANCH   1  19
HETATM   19  N2  UNL     1      25.313  26.033  22.527  1.00  0.00    -0.344 N 
HETATM   20  C11 UNL     1      25.347  26.318  23.923  1.00  0.00     0.227 C 
HETATM   21  O3  UNL     1      25.316  27.531  24.261  1.00  0.00    -0.273 OA
ATOM     22  H2  UNL     1      25.336  25.064  22.211  1.00  0.00     0.163 HD
BRANCH  20  23
HETATM   23  C12 UNL     1      25.417  25.250  24.952  1.00  0.00     0.042 C 
HETATM   24  C13 UNL     1      26.739  25.317  25.690  1.00  0.00     0.024 C 
HETATM   25  C14 UNL     1      26.785  24.346  26.821  1.00  0.00    -0.013 C 
HETATM   26  C15 UNL     1      26.573  22.939  26.318  1.00  0.00     0.009 C 
HETATM   27  C19 UNL     1      25.691  24.674  27.809  1.00  0.00     0.009 C 
HETATM   28  C16 UNL     1      25.289  22.897  25.554  1.00  0.00    -0.013 C 
HETATM   29  C17 UNL     1      24.166  23.147  26.553  1.00  0.00     0.009 C 
HETATM   30  C21 UNL     1      25.234  23.871  24.403  1.00  0.00     0.024 C 
HETATM   31  C18 UNL     1      24.373  24.548  27.117  1.00  0.00    -0.013 C 
HETATM   32  C20 UNL     1      24.325  25.499  25.962  1.00  0.00     0.024 C 
ENDBRANCH  20  23
ENDBRANCH   1  19
BRANCH   1  33
HETATM   33  C22 UNL     1      23.812  27.451  21.311  1.00  0.00     0.199 C 
HETATM   34  O4  UNL     1      23.466  28.550  20.823  1.00  0.00    -0.646 OA
HETATM   35  O5  UNL     1      22.811  26.542  21.623  1.00  0.00    -0.646 OA
ENDBRANCH   1  33
TORSDOF 9
ENDMDL
MODEL 5
REMARK VINA RESULT: -8.143511630      1.246      1.657
REMARK  9 active torsions:
REMARK  status: ('A' for Active; 'I' for Inactive)
REMARK    1  A    between atoms: C2_2  and  C5_5 
REMARK    2  A    between atoms: C5_5  and  C6_7 
REMARK    3  A    between atoms: C6_7  and  O2_8 
REMARK    4  A    between atoms: C6_7  and  N1_10 
REMARK    5  A    between atoms: N1_10  and  C7_12 
REMARK    6  A    between atoms: C9_14  and  C10_15 
REMARK    7  A    between atoms: C10_15  and  N2_16 
REMARK    8  A    between atoms: C10_15  and  C22_30 
REMARK       I    between atoms: N2_16  and  C11_18 
REMARK    9  A    between atoms: C11_18  and  C12_20 
ROOT
HETATM    1  C10 UNL     1      22.949  30.607  20.858  1.00  0.00     0.214 C 
ENDROOT
BRANCH   1   2
HETATM    2  C9  UNL     1      22.403  30.531  22.245  1.00  0.00     0.158 C 
HETATM    3  C8  UNL     1      23.068  29.531  23.133  1.00  0.00     0.070 C 
HETATM    4  C7  UNL     1      22.308  29.535  24.470  1.00  0.00     0.146 C 
HETATM    5  S1  UNL     1      20.725  28.689  24.022  1.00  0.00    -0.118 SA
HETATM    6  C23 UNL     1      20.473  29.240  22.287  1.00  0.00     0.244 C 
HETATM    7  O6  UNL     1      21.037  30.481  22.185  1.00  0.00    -0.373 OA
BRANCH   4   8
HETATM    8  N1  UNL     1      22.974  28.819  25.501  1.00  0.00    -0.378 N 
ATOM      9  H1  UNL     1      23.503  29.306  26.226  1.00  0.00     0.157 HD
BRANCH   8  10
HETATM   10  C6  UNL     1      22.878  27.401  25.487  1.00  0.00     0.286 C 
BRANCH  10  11
HETATM   11  C5  UNL     1      24.057  26.673  24.996  1.00  0.00     0.182 C 
HETATM   12  O1  UNL     1      25.164  26.933  25.420  1.00  0.00    -0.292 OA
BRANCH  11  13
HETATM   13  C2  UNL     1      23.975  25.591  23.966  1.00  0.00     0.014 C 
HETATM   14  C1  UNL     1      25.263  25.471  23.187  1.00  0.00     0.023 C 
HETATM   15  C3  UNL     1      23.709  24.298  24.706  1.00  0.00     0.023 C 
HETATM   16  C4  UNL     1      22.831  25.817  23.003  1.00  0.00     0.023 C 
ENDBRANCH  11  13
ENDBRANCH  10  11
BRANCH  10  17
HETATM   17  O2  UNL     1      22.543  26.980  26.805  1.00  0.00    -0.370 OA
ATOM     18  H2  UNL     1      21.827  26.355  26.784  1.00  0.00     0.212 HD
ENDBRANCH  10  17
ENDBRANCH   8  10
ENDBRANCH   4   8
ENDBRANCH   1   2
BRANCH   1  19
HETATM   19  N2  UNL     1      24.147  29.869  20.617  1.00  0.00    -0.344 N 
HETATM   20  C11 UNL     1      24.235  28.948  19.533  1.00  0.00     0.227 C 
HETATM   21  O3  UNL     1      23.215  28.819  18.806  1.00  0.00    -0.273 OA
ATOM     22  H2  UNL     1      24.951  30.003  21.230  1.00  0.00     0.163 HD
BRANCH  20  23
HETATM   23  C12 UNL     1      25.464  28.163  19.253  1.00  0.00     0.042 C 
HETATM   24  C13 UNL     1      26.432  28.271  20.414  1.00  0.00     0.024 C 
HETATM   25  C14 UNL     1      27.617  27.386  20.223  1.00  0.00    -0.013 C 
HETATM   26  C15 UNL     1      28.340  27.738  18.947  1.00  0.00     0.009 C 
HETATM   27  C19 UNL     1      27.161  25.949  20.139  1.00  0.00     0.009 C 
HETATM   28  C16 UNL     1      27.363  27.671  17.816  1.00  0.00    -0.013 C 
HETATM   29  C17 UNL     1      26.953  26.212  17.664  1.00  0.00     0.009 C 
HETATM   30  C21 UNL     1      26.165  28.569  17.995  1.00  0.00     0.024 C 
HETATM   31  C18 UNL     1      26.256  25.806  18.959  1.00  0.00    -0.013 C 
HETATM   32  C20 UNL     1      25.076  26.712  19.124  1.00  0.00     0.024 C 
ENDBRANCH  20  23
ENDBRANCH   1  19
BRANCH   1  33
HETATM   33  C22 UNL     1      23.157  32.047  20.489  1.00  0.00     0.199 C 
HETATM   34  O4  UNL     1      22.709  32.552  19.435  1.00  0.00    -0.646 OA
HETATM   35  O5  UNL     1      23.873  32.873  21.344  1.00  0.00    -0.646 OA
ENDBRANCH   1  33
TORSDOF 9
ENDMDL
