MODEL 1
REMARK VINA RESULT: -4.591898602      0.000      0.000
REMARK  4 active torsions:
REMARK  status: ('A' for Active; 'I' for Inactive)
REMARK    1  A    between atoms: C2_2  and  C5_5 
REMARK    2  A    between atoms: C5_5  and  N1_6 
REMARK    3  A    between atoms: N1_6  and  C6_8 
REMARK    4  A    between atoms: C8_10  and  N2_11 
ROOT
HETATM    1  C6  UNL     1      11.428 -23.868  18.363  1.00  0.00     0.081 C 
HETATM    2  C7  UNL     1      11.851 -22.465  18.799  1.00  0.00     0.060 C 
HETATM    3  C8  UNL     1      11.355 -22.512  20.274  1.00  0.00     0.219 C 
HETATM    4  C9  UNL     1       9.918 -22.900  20.000  1.00  0.00     0.202 C 
HETATM    5  F1  UNL     1       9.245 -23.257  21.155  1.00  0.00    -0.247 F 
HETATM    6  C10 UNL     1      10.059 -24.050  19.040  1.00  0.00     0.064 C 
ENDROOT
BRANCH   1   7
HETATM    7  N1  UNL     1      11.276 -24.046  16.985  1.00  0.00    -0.416 N 
ATOM      8  H1  UNL     1      12.071 -24.298  16.397  1.00  0.00     0.153 HD
BRANCH   7   9
HETATM    9  C5  UNL     1       9.967 -23.864  16.422  1.00  0.00     0.122 C 
BRANCH   9  10
HETATM   10  C2  UNL     1       9.849 -22.541  15.690  1.00  0.00    -0.036 C 
HETATM   11  C1  UNL     1      11.173 -21.961  15.284  1.00  0.00     0.016 C 
HETATM   12  C3  UNL     1       9.061 -22.795  14.421  1.00  0.00     0.016 C 
HETATM   13  C4  UNL     1       9.083 -21.525  16.508  1.00  0.00     0.016 C 
ENDBRANCH   9  10
ENDBRANCH   7   9
ENDBRANCH   1   7
BRANCH   3  14
HETATM   14  N2  UNL     1      11.526 -21.282  20.957  1.00  0.00    -0.072 N 
ATOM     15  H23 UNL     1      12.450 -20.892  20.777  1.00  0.00     0.274 HD
ATOM     16  H22 UNL     1      10.951 -20.551  20.538  1.00  0.00     0.274 HD
ATOM     17  H21 UNL     1      11.349 -21.353  21.959  1.00  0.00     0.274 HD
ENDBRANCH   3  14
TORSDOF 4
ENDMDL
MODEL 2
REMARK VINA RESULT: -4.486799031      0.047      1.166
REMARK  4 active torsions:
REMARK  status: ('A' for Active; 'I' for Inactive)
REMARK    1  A    between atoms: C2_2  and  C5_5 
REMARK    2  A    between atoms: C5_5  and  N1_6 
REMARK    3  A    between atoms: N1_6  and  C6_8 
REMARK    4  A    between atoms: C8_10  and  N2_11 
ROOT
HETATM    1  C6  UNL     1      11.431 -23.852  18.357  1.00  0.00     0.081 C 
HETATM    2  C7  UNL     1      11.850 -22.454  18.809  1.00  0.00     0.060 C 
HETATM    3  C8  UNL     1      11.351 -22.517  20.282  1.00  0.00     0.219 C 
HETATM    4  C9  UNL     1       9.914 -22.904  20.000  1.00  0.00     0.202 C 
HETATM    5  F1  UNL     1       9.239 -23.275  21.149  1.00  0.00    -0.247 F 
HETATM    6  C10 UNL     1      10.060 -24.044  19.028  1.00  0.00     0.064 C 
ENDROOT
BRANCH   1   7
HETATM    7  N1  UNL     1      11.283 -24.016  16.977  1.00  0.00    -0.416 N 
ATOM      8  H1  UNL     1      12.087 -24.218  16.382  1.00  0.00     0.153 HD
BRANCH   7   9
HETATM    9  C5  UNL     1       9.964 -23.892  16.421  1.00  0.00     0.122 C 
BRANCH   9  10
HETATM   10  C2  UNL     1       9.786 -22.579  15.681  1.00  0.00    -0.036 C 
HETATM   11  C1  UNL     1       9.124 -21.513  16.505  1.00  0.00     0.016 C 
HETATM   12  C3  UNL     1      11.166 -22.074  15.317  1.00  0.00     0.016 C 
HETATM   13  C4  UNL     1       9.015 -22.773  14.394  1.00  0.00     0.016 C 
ENDBRANCH   9  10
ENDBRANCH   7   9
ENDBRANCH   1   7
BRANCH   3  14
HETATM   14  N2  UNL     1      11.518 -21.295  20.979  1.00  0.00    -0.072 N 
ATOM     15  H23 UNL     1      12.489 -20.985  20.942  1.00  0.00     0.274 HD
ATOM     16  H22 UNL     1      11.078 -20.525  20.474  1.00  0.00     0.274 HD
ATOM     17  H21 UNL     1      11.185 -21.334  21.942  1.00  0.00     0.274 HD
ENDBRANCH   3  14
TORSDOF 4
ENDMDL
MODEL 3
REMARK VINA RESULT: -4.468313747      0.064      1.165
REMARK  4 active torsions:
REMARK  status: ('A' for Active; 'I' for Inactive)
REMARK    1  A    between atoms: C2_2  and  C5_5 
REMARK    2  A    between atoms: C5_5  and  N1_6 
REMARK    3  A    between atoms: N1_6  and  C6_8 
REMARK    4  A    between atoms: C8_10  and  N2_11 
ROOT
HETATM    1  C6  UNL     1      11.439 -23.831  18.414  1.00  0.00     0.081 C 
HETATM    2  C7  UNL     1      11.837 -22.421  18.849  1.00  0.00     0.060 C 
HETATM    3  C8  UNL     1      11.344 -22.476  20.324  1.00  0.00     0.219 C 
HETATM    4  C9  UNL     1       9.913 -22.889  20.052  1.00  0.00     0.202 C 
HETATM    5  F1  UNL     1       9.249 -23.258  21.208  1.00  0.00    -0.247 F 
HETATM    6  C10 UNL     1      10.075 -24.038  19.093  1.00  0.00     0.064 C 
ENDROOT
BRANCH   1   7
HETATM    7  N1  UNL     1      11.289 -24.014  17.036  1.00  0.00    -0.416 N 
ATOM      8  H1  UNL     1      12.087 -24.250  16.447  1.00  0.00     0.153 HD
BRANCH   7   9
HETATM    9  C5  UNL     1       9.975 -23.858  16.476  1.00  0.00     0.122 C 
BRANCH   9  10
HETATM   10  C2  UNL     1       9.858 -22.582  15.663  1.00  0.00    -0.036 C 
HETATM   11  C1  UNL     1       9.102 -22.759  14.378  1.00  0.00     0.016 C 
HETATM   12  C3  UNL     1       9.092 -21.580  16.501  1.00  0.00     0.016 C 
HETATM   13  C4  UNL     1      11.218 -21.989  15.370  1.00  0.00     0.016 C 
ENDBRANCH   9  10
ENDBRANCH   7   9
ENDBRANCH   1   7
BRANCH   3  14
HETATM   14  N2  UNL     1      11.493 -21.243  21.006  1.00  0.00    -0.072 N 
ATOM     15  H23 UNL     1      10.701 -20.628  20.823  1.00  0.00     0.274 HD
ATOM     16  H22 UNL     1      11.379 -21.367  22.012  1.00  0.00     0.274 HD
ATOM     17  H21 UNL     1      12.374 -20.773  20.797  1.00  0.00     0.274 HD
ENDBRANCH   3  14
TORSDOF 4
ENDMDL
MODEL 4
REMARK VINA RESULT: -4.246648885      1.849      2.614
REMARK  4 active torsions:
REMARK  status: ('A' for Active; 'I' for Inactive)
REMARK    1  A    between atoms: C2_2  and  C5_5 
REMARK    2  A    between atoms: C5_5  and  N1_6 
REMARK    3  A    between atoms: N1_6  and  C6_8 
REMARK    4  A    between atoms: C8_10  and  N2_11 
ROOT
HETATM    1  C6  UNL     1      10.259 -21.500  17.777  1.00  0.00     0.081 C 
HETATM    2  C7  UNL     1       9.533 -22.592  18.562  1.00  0.00     0.060 C 
HETATM    3  C8  UNL     1      10.211 -22.385  19.947  1.00  0.00     0.219 C 
HETATM    4  C9  UNL     1      11.651 -22.504  19.495  1.00  0.00     0.202 C 
HETATM    5  F1  UNL     1      12.541 -22.126  20.485  1.00  0.00    -0.247 F 
HETATM    6  C10 UNL     1      11.703 -21.590  18.300  1.00  0.00     0.064 C 
ENDROOT
BRANCH   1   7
HETATM    7  N1  UNL     1      10.272 -21.667  16.389  1.00  0.00    -0.416 N 
ATOM      8  H1  UNL     1       9.685 -21.091  15.785  1.00  0.00     0.153 HD
BRANCH   7   9
HETATM    9  C5  UNL     1      11.137 -22.674  15.840  1.00  0.00     0.122 C 
BRANCH   9  10
HETATM   10  C2  UNL     1      10.350 -23.805  15.203  1.00  0.00    -0.036 C 
HETATM   11  C1  UNL     1       9.751 -24.753  16.200  1.00  0.00     0.016 C 
HETATM   12  C3  UNL     1       9.206 -23.181  14.431  1.00  0.00     0.016 C 
HETATM   13  C4  UNL     1      11.198 -24.578  14.218  1.00  0.00     0.016 C 
ENDBRANCH   9  10
ENDBRANCH   7   9
ENDBRANCH   1   7
BRANCH   3  14
HETATM   14  N2  UNL     1       9.804 -23.338  20.914  1.00  0.00    -0.072 N 
ATOM     15  H23 UNL     1       8.802 -23.514  20.850  1.00  0.00     0.274 HD
ATOM     16  H22 UNL     1      10.153 -24.267  20.677  1.00  0.00     0.274 HD
ATOM     17  H21 UNL     1      10.069 -23.082  21.865  1.00  0.00     0.274 HD
ENDBRANCH   3  14
TORSDOF 4
ENDMDL
MODEL 5
REMARK VINA RESULT: -4.185937469      1.907      2.608
REMARK  4 active torsions:
REMARK  status: ('A' for Active; 'I' for Inactive)
REMARK    1  A    between atoms: C2_2  and  C5_5 
REMARK    2  A    between atoms: C5_5  and  N1_6 
REMARK    3  A    between atoms: N1_6  and  C6_8 
REMARK    4  A    between atoms: C8_10  and  N2_11 
ROOT
HETATM    1  C6  UNL     1      10.191 -21.431  17.691  1.00  0.00     0.081 C 
HETATM    2  C7  UNL     1       9.476 -22.492  18.527  1.00  0.00     0.060 C 
HETATM    3  C8  UNL     1      10.236 -22.293  19.870  1.00  0.00     0.219 C 
HETATM    4  C9  UNL     1      11.645 -22.461  19.341  1.00  0.00     0.202 C 
HETATM    5  F1  UNL     1      12.599 -22.101  20.277  1.00  0.00    -0.247 F 
HETATM    6  C10 UNL     1      11.658 -21.561  18.135  1.00  0.00     0.064 C 
ENDROOT
BRANCH   1   7
HETATM    7  N1  UNL     1      10.122 -21.612  16.306  1.00  0.00    -0.416 N 
ATOM      8  H1  UNL     1       9.386 -21.172  15.755  1.00  0.00     0.153 HD
BRANCH   7   9
HETATM    9  C5  UNL     1      11.121 -22.437  15.684  1.00  0.00     0.122 C 
BRANCH   9  10
HETATM   10  C2  UNL     1      10.598 -23.831  15.395  1.00  0.00    -0.036 C 
HETATM   11  C1  UNL     1      11.201 -24.454  14.169  1.00  0.00     0.016 C 
HETATM   12  C3  UNL     1      10.968 -24.707  16.573  1.00  0.00     0.016 C 
HETATM   13  C4  UNL     1       9.090 -23.840  15.274  1.00  0.00     0.016 C 
ENDBRANCH   9  10
ENDBRANCH   7   9
ENDBRANCH   1   7
BRANCH   3  14
HETATM   14  N2  UNL     1       9.854 -23.224  20.868  1.00  0.00    -0.072 N 
ATOM     15  H23 UNL     1      10.565 -23.288  21.597  1.00  0.00     0.274 HD
ATOM     16  H22 UNL     1       9.078 -22.864  21.424  1.00  0.00     0.274 HD
ATOM     17  H21 UNL     1       9.634 -24.146  20.492  1.00  0.00     0.274 HD
ENDBRANCH   3  14
TORSDOF 4
ENDMDL
