MODEL 1
REMARK VINA RESULT: -4.931050681      0.000      0.000
REMARK  2 active torsions:
REMARK  status: ('A' for Active; 'I' for Inactive)
REMARK    1  A    between atoms: N1_1  and  N2_4 
REMARK    2  A    between atoms: N2_4  and  N3_6 
ROOT
HETATM    1  N3  UNL     1      10.630 -22.190  18.963  1.00  0.00    -0.294 N 
ATOM      2  H3  UNL     1      10.538 -21.194  19.165  1.00  0.00     0.188 HD
HETATM    3  C1  UNL     1      10.659 -22.569  17.727  1.00  0.00     0.019 C 
HETATM    4  C2  UNL     1      10.790 -24.000  17.451  1.00  0.00     0.055 C 
HETATM    5  C3  UNL     1      10.368 -24.412  16.076  1.00  0.00     0.006 C 
HETATM    6  C4  UNL     1      10.656 -23.405  15.013  1.00  0.00     0.002 C 
HETATM    7  C5  UNL     1      10.321 -22.003  15.324  1.00  0.00     0.022 C 
HETATM    8  C6  UNL     1      10.559 -21.529  16.694  1.00  0.00     0.105 C 
HETATM    9 BR1  UNL     1      12.197 -20.473  16.758  1.00  0.00    -0.085 Br
ENDROOT
BRANCH   1  10
HETATM   10  N2  UNL     1      10.716 -23.070  20.021  1.00  0.00    -0.249 N 
ATOM     11  H2  UNL     1      11.629 -23.437  20.291  1.00  0.00     0.207 HD
BRANCH  10  12
HETATM   12  N1  UNL     1       9.580 -23.472  20.732  1.00  0.00    -0.331 N 
ATOM     13  H12 UNL     1       9.519 -23.231  21.721  1.00  0.00     0.178 HD
ATOM     14  H11 UNL     1       8.826 -23.992  20.282  1.00  0.00     0.178 HD
ENDBRANCH  10  12
ENDBRANCH   1  10
TORSDOF 2
ENDMDL
MODEL 2
REMARK VINA RESULT: -4.668077556      3.037      3.978
REMARK  2 active torsions:
REMARK  status: ('A' for Active; 'I' for Inactive)
REMARK    1  A    between atoms: N1_1  and  N2_4 
REMARK    2  A    between atoms: N2_4  and  N3_6 
ROOT
HETATM    1  N3  UNL     1      10.661 -24.229  16.136  1.00  0.00    -0.294 N 
ATOM      2  H3  UNL     1      11.140 -24.893  16.745  1.00  0.00     0.188 HD
HETATM    3  C1  UNL     1      10.083 -23.204  16.674  1.00  0.00     0.019 C 
HETATM    4  C2  UNL     1       9.399 -22.260  15.791  1.00  0.00     0.055 C 
HETATM    5  C3  UNL     1       8.395 -21.384  16.471  1.00  0.00     0.006 C 
HETATM    6  C4  UNL     1       8.760 -20.990  17.864  1.00  0.00     0.002 C 
HETATM    7  C5  UNL     1       9.278 -22.060  18.736  1.00  0.00     0.022 C 
HETATM    8  C6  UNL     1      10.162 -23.068  18.135  1.00  0.00     0.105 C 
HETATM    9 BR1  UNL     1      12.018 -22.685  18.594  1.00  0.00    -0.085 Br
ENDROOT
BRANCH   1  10
HETATM   10  N2  UNL     1      10.657 -24.465  14.778  1.00  0.00    -0.249 N 
ATOM     11  H2  UNL     1       9.838 -24.206  14.229  1.00  0.00     0.207 HD
BRANCH  10  12
HETATM   12  N1  UNL     1      11.754 -25.051  14.136  1.00  0.00    -0.331 N 
ATOM     13  H12 UNL     1      12.687 -24.860  14.502  1.00  0.00     0.178 HD
ATOM     14  H11 UNL     1      11.635 -25.655  13.323  1.00  0.00     0.178 HD
ENDBRANCH  10  12
ENDBRANCH   1  10
TORSDOF 2
ENDMDL
MODEL 3
REMARK VINA RESULT: -4.636436246      2.776      3.800
REMARK  2 active torsions:
REMARK  status: ('A' for Active; 'I' for Inactive)
REMARK    1  A    between atoms: N1_1  and  N2_4 
REMARK    2  A    between atoms: N2_4  and  N3_6 
ROOT
HETATM    1  N3  UNL     1      11.140 -23.595  16.220  1.00  0.00    -0.294 N 
ATOM      2  H3  UNL     1      11.972 -23.230  15.756  1.00  0.00     0.188 HD
HETATM    3  C1  UNL     1      10.917 -23.250  17.447  1.00  0.00     0.019 C 
HETATM    4  C2  UNL     1       9.721 -23.781  18.102  1.00  0.00     0.055 C 
HETATM    5  C3  UNL     1       9.754 -23.731  19.596  1.00  0.00     0.006 C 
HETATM    6  C4  UNL     1      10.465 -22.546  20.161  1.00  0.00     0.002 C 
HETATM    7  C5  UNL     1      11.758 -22.198  19.543  1.00  0.00     0.022 C 
HETATM    8  C6  UNL     1      11.885 -22.350  18.087  1.00  0.00     0.105 C 
HETATM    9 BR1  UNL     1      11.738 -20.610  17.220  1.00  0.00    -0.085 Br
ENDROOT
BRANCH   1  10
HETATM   10  N2  UNL     1      10.304 -24.432  15.512  1.00  0.00    -0.249 N 
ATOM     11  H2  UNL     1       9.365 -24.616  15.866  1.00  0.00     0.207 HD
BRANCH  10  12
HETATM   12  N1  UNL     1      10.716 -25.035  14.318  1.00  0.00    -0.331 N 
ATOM     13  H12 UNL     1      10.149 -25.794  13.940  1.00  0.00     0.178 HD
ATOM     14  H11 UNL     1      11.559 -24.732  13.831  1.00  0.00     0.178 HD
ENDBRANCH  10  12
ENDBRANCH   1  10
TORSDOF 2
ENDMDL
MODEL 4
REMARK VINA RESULT: -4.442579966      2.884      3.809
REMARK  2 active torsions:
REMARK  status: ('A' for Active; 'I' for Inactive)
REMARK    1  A    between atoms: N1_1  and  N2_4 
REMARK    2  A    between atoms: N2_4  and  N3_6 
ROOT
HETATM    1  N3  UNL     1      10.558 -23.272  15.830  1.00  0.00    -0.294 N 
ATOM      2  H3  UNL     1      10.771 -22.425  15.303  1.00  0.00     0.188 HD
HETATM    3  C1  UNL     1      10.479 -23.194  17.118  1.00  0.00     0.019 C 
HETATM    4  C2  UNL     1      10.174 -24.417  17.862  1.00  0.00     0.055 C 
HETATM    5  C3  UNL     1      10.538 -24.372  19.313  1.00  0.00     0.006 C 
HETATM    6  C4  UNL     1      10.369 -23.034  19.952  1.00  0.00     0.002 C 
HETATM    7  C5  UNL     1      10.872 -21.873  19.194  1.00  0.00     0.022 C 
HETATM    8  C6  UNL     1      10.699 -21.879  17.735  1.00  0.00     0.105 C 
HETATM    9 BR1  UNL     1       9.202 -20.734  17.237  1.00  0.00    -0.085 Br
ENDROOT
BRANCH   1  10
HETATM   10  N2  UNL     1      10.370 -24.448  15.136  1.00  0.00    -0.249 N 
ATOM     11  H2  UNL     1       9.454 -24.897  15.153  1.00  0.00     0.207 HD
BRANCH  10  12
HETATM   12  N1  UNL     1      11.408 -25.041  14.408  1.00  0.00    -0.331 N 
ATOM     13  H12 UNL     1      12.137 -25.536  14.921  1.00  0.00     0.178 HD
ATOM     14  H11 UNL     1      11.444 -24.984  13.390  1.00  0.00     0.178 HD
ENDBRANCH  10  12
ENDBRANCH   1  10
TORSDOF 2
ENDMDL
MODEL 5
REMARK VINA RESULT: -4.407215725     10.532     11.034
REMARK  2 active torsions:
REMARK  status: ('A' for Active; 'I' for Inactive)
REMARK    1  A    between atoms: N1_1  and  N2_4 
REMARK    2  A    between atoms: N2_4  and  N3_6 
ROOT
HETATM    1  N3  UNL     1       3.434 -24.439  24.514  1.00  0.00    -0.294 N 
ATOM      2  H3  UNL     1       2.812 -24.532  23.710  1.00  0.00     0.188 HD
HETATM    3  C1  UNL     1       3.944 -25.511  25.027  1.00  0.00     0.019 C 
HETATM    4  C2  UNL     1       4.834 -25.364  26.179  1.00  0.00     0.055 C 
HETATM    5  C3  UNL     1       5.017 -26.608  26.989  1.00  0.00     0.006 C 
HETATM    6  C4  UNL     1       5.009 -27.871  26.194  1.00  0.00     0.002 C 
HETATM    7  C5  UNL     1       3.956 -27.999  25.170  1.00  0.00     0.022 C 
HETATM    8  C6  UNL     1       3.589 -26.796  24.410  1.00  0.00     0.105 C 
HETATM    9 BR1  UNL     1       4.410 -26.849  22.642  1.00  0.00    -0.085 Br
ENDROOT
BRANCH   1  10
HETATM   10  N2  UNL     1       3.693 -23.176  25.003  1.00  0.00    -0.249 N 
ATOM     11  H2  UNL     1       4.436 -23.050  25.690  1.00  0.00     0.207 HD
BRANCH  10  12
HETATM   12  N1  UNL     1       2.959 -22.063  24.576  1.00  0.00    -0.331 N 
ATOM     13  H12 UNL     1       3.441 -21.168  24.499  1.00  0.00     0.178 HD
ATOM     14  H11 UNL     1       1.968 -22.135  24.345  1.00  0.00     0.178 HD
ENDBRANCH  10  12
ENDBRANCH   1  10
TORSDOF 2
ENDMDL
