MODEL 1
REMARK VINA RESULT: -5.846834650      0.000      0.000
REMARK  3 active torsions:
REMARK  status: ('A' for Active; 'I' for Inactive)
REMARK    1  A    between atoms: C1_2  and  N2_4 
REMARK    2  A    between atoms: N2_4  and  N3_6 
REMARK    3  A    between atoms: C2_8  and  C3_9 
ROOT
HETATM    1  N3  UNL     1      10.273 -21.356  16.389  1.00  0.00    -0.314 N 
ATOM      2  H3  UNL     1       9.775 -20.588  15.940  1.00  0.00     0.185 HD
HETATM    3  C2  UNL     1      10.166 -21.540  17.654  1.00  0.00     0.084 C 
ENDROOT
BRANCH   1   4
HETATM    4  N2  UNL     1      11.061 -22.198  15.638  1.00  0.00    -0.279 N 
ATOM      5  H2  UNL     1      12.077 -22.126  15.667  1.00  0.00     0.189 HD
BRANCH   4   6
HETATM    6  C1  UNL     1      10.426 -23.170  14.822  1.00  0.00     0.199 C 
HETATM    7  N1  UNL     1       9.258 -22.783  14.115  1.00  0.00    -0.068 NA
HETATM    8  S1  UNL     1      10.978 -24.693  14.670  1.00  0.00    -0.043 SA
ENDBRANCH   4   6
ENDBRANCH   1   4
BRANCH   3   9
HETATM    9  C3  UNL     1      10.885 -22.651  18.310  1.00  0.00     0.025 C 
HETATM   10  C4  UNL     1      11.243 -22.229  19.720  1.00  0.00     0.010 C 
HETATM   11  C5  UNL     1      10.561 -23.244  20.621  1.00  0.00     0.001 C 
HETATM   12  C6  UNL     1       9.315 -23.565  19.822  1.00  0.00     0.001 C 
HETATM   13  C7  UNL     1       9.928 -23.814  18.440  1.00  0.00     0.010 C 
ENDBRANCH   3   9
TORSDOF 3
ENDMDL
MODEL 2
REMARK VINA RESULT: -5.171155709      0.729      1.161
REMARK  3 active torsions:
REMARK  status: ('A' for Active; 'I' for Inactive)
REMARK    1  A    between atoms: C1_2  and  N2_4 
REMARK    2  A    between atoms: N2_4  and  N3_6 
REMARK    3  A    between atoms: C2_8  and  C3_9 
ROOT
HETATM    1  N3  UNL     1       9.663 -21.563  16.643  1.00  0.00    -0.314 N 
ATOM      2  H3  UNL     1       9.013 -20.899  16.225  1.00  0.00     0.185 HD
HETATM    3  C2  UNL     1       9.575 -21.851  17.890  1.00  0.00     0.084 C 
ENDROOT
BRANCH   1   4
HETATM    4  N2  UNL     1      10.637 -22.152  15.870  1.00  0.00    -0.279 N 
ATOM      5  H2  UNL     1      11.619 -21.905  15.990  1.00  0.00     0.189 HD
BRANCH   4   6
HETATM    6  C1  UNL     1      10.244 -23.112  14.902  1.00  0.00     0.199 C 
HETATM    7  N1  UNL     1       9.202 -22.762  14.005  1.00  0.00    -0.068 NA
HETATM    8  S1  UNL     1      10.934 -24.581  14.783  1.00  0.00    -0.043 SA
ENDBRANCH   4   6
ENDBRANCH   1   4
BRANCH   3   9
HETATM    9  C3  UNL     1      10.515 -22.813  18.502  1.00  0.00     0.025 C 
HETATM   10  C4  UNL     1      11.865 -22.141  18.649  1.00  0.00     0.010 C 
HETATM   11  C5  UNL     1      12.164 -22.179  20.138  1.00  0.00     0.001 C 
HETATM   12  C6  UNL     1      10.774 -22.058  20.727  1.00  0.00     0.001 C 
HETATM   13  C7  UNL     1      10.030 -23.114  19.901  1.00  0.00     0.010 C 
ENDBRANCH   3   9
TORSDOF 3
ENDMDL
MODEL 3
REMARK VINA RESULT: -4.701128498      2.821      4.548
REMARK  3 active torsions:
REMARK  status: ('A' for Active; 'I' for Inactive)
REMARK    1  A    between atoms: C1_2  and  N2_4 
REMARK    2  A    between atoms: N2_4  and  N3_6 
REMARK    3  A    between atoms: C2_8  and  C3_9 
ROOT
HETATM    1  N3  UNL     1      12.010 -21.544  17.977  1.00  0.00    -0.314 N 
ATOM      2  H3  UNL     1      12.727 -20.823  18.055  1.00  0.00     0.185 HD
HETATM    3  C2  UNL     1      11.138 -21.484  17.038  1.00  0.00     0.084 C 
ENDROOT
BRANCH   1   4
HETATM    4  N2  UNL     1      11.976 -22.582  18.879  1.00  0.00    -0.279 N 
ATOM      5  H2  UNL     1      12.480 -23.450  18.695  1.00  0.00     0.189 HD
BRANCH   4   6
HETATM    6  C1  UNL     1      11.225 -22.419  20.071  1.00  0.00     0.199 C 
HETATM    7  N1  UNL     1      11.660 -21.440  21.001  1.00  0.00    -0.068 NA
HETATM    8  S1  UNL     1       9.900 -23.301  20.409  1.00  0.00    -0.043 SA
ENDBRANCH   4   6
ENDBRANCH   1   4
BRANCH   3   9
HETATM    9  C3  UNL     1      10.097 -22.525  16.919  1.00  0.00     0.025 C 
HETATM   10  C4  UNL     1       9.037 -22.040  15.951  1.00  0.00     0.010 C 
HETATM   11  C5  UNL     1       9.017 -23.074  14.838  1.00  0.00     0.001 C 
HETATM   12  C6  UNL     1      10.470 -23.502  14.799  1.00  0.00     0.001 C 
HETATM   13  C7  UNL     1      10.727 -23.746  16.290  1.00  0.00     0.010 C 
ENDBRANCH   3   9
TORSDOF 3
ENDMDL
MODEL 4
REMARK VINA RESULT: -4.555296098      2.692      4.509
REMARK  3 active torsions:
REMARK  status: ('A' for Active; 'I' for Inactive)
REMARK    1  A    between atoms: C1_2  and  N2_4 
REMARK    2  A    between atoms: N2_4  and  N3_6 
REMARK    3  A    between atoms: C2_8  and  C3_9 
ROOT
HETATM    1  N3  UNL     1       9.325 -21.518  18.081  1.00  0.00    -0.314 N 
ATOM      2  H3  UNL     1       8.437 -21.196  18.466  1.00  0.00     0.185 HD
HETATM    3  C2  UNL     1       9.358 -22.100  16.938  1.00  0.00     0.084 C 
ENDROOT
BRANCH   1   4
HETATM    4  N2  UNL     1      10.490 -21.330  18.789  1.00  0.00    -0.279 N 
ATOM      5  H2  UNL     1      11.147 -20.597  18.526  1.00  0.00     0.189 HD
BRANCH   4   6
HETATM    6  C1  UNL     1      10.754 -22.180  19.894  1.00  0.00     0.199 C 
HETATM    7  N1  UNL     1      11.880 -21.884  20.704  1.00  0.00    -0.068 NA
HETATM    8  S1  UNL     1       9.828 -23.467  20.261  1.00  0.00    -0.043 SA
ENDBRANCH   4   6
ENDBRANCH   1   4
BRANCH   3   9
HETATM    9  C3  UNL     1      10.640 -22.569  16.377  1.00  0.00     0.025 C 
HETATM   10  C4  UNL     1      10.723 -24.072  16.551  1.00  0.00     0.010 C 
HETATM   11  C5  UNL     1      10.862 -24.625  15.143  1.00  0.00     0.001 C 
HETATM   12  C6  UNL     1      10.050 -23.625  14.346  1.00  0.00     0.001 C 
HETATM   13  C7  UNL     1      10.621 -22.310  14.888  1.00  0.00     0.010 C 
ENDBRANCH   3   9
TORSDOF 3
ENDMDL
MODEL 5
REMARK VINA RESULT: -4.429796896      1.350      2.089
REMARK  3 active torsions:
REMARK  status: ('A' for Active; 'I' for Inactive)
REMARK    1  A    between atoms: C1_2  and  N2_4 
REMARK    2  A    between atoms: N2_4  and  N3_6 
REMARK    3  A    between atoms: C2_8  and  C3_9 
ROOT
HETATM    1  N3  UNL     1      10.456 -24.568  17.196  1.00  0.00    -0.314 N 
ATOM      2  H3  UNL     1      10.664 -25.531  16.935  1.00  0.00     0.185 HD
HETATM    3  C2  UNL     1      10.857 -24.107  18.325  1.00  0.00     0.084 C 
ENDROOT
BRANCH   1   4
HETATM    4  N2  UNL     1       9.745 -23.760  16.340  1.00  0.00    -0.279 N 
ATOM      5  H2  UNL     1       8.975 -23.186  16.682  1.00  0.00     0.189 HD
BRANCH   4   6
HETATM    6  C1  UNL     1      10.107 -23.744  14.968  1.00  0.00     0.199 C 
HETATM    7  N1  UNL     1       9.508 -22.764  14.134  1.00  0.00    -0.068 NA
HETATM    8  S1  UNL     1      11.169 -24.794  14.322  1.00  0.00    -0.043 SA
ENDBRANCH   4   6
ENDBRANCH   1   4
BRANCH   3   9
HETATM    9  C3  UNL     1      10.558 -22.712  18.710  1.00  0.00     0.025 C 
HETATM   10  C4  UNL     1      10.236 -22.679  20.190  1.00  0.00     0.010 C 
HETATM   11  C5  UNL     1      11.268 -21.744  20.797  1.00  0.00     0.001 C 
HETATM   12  C6  UNL     1      12.468 -22.004  19.909  1.00  0.00     0.001 C 
HETATM   13  C7  UNL     1      11.818 -21.897  18.526  1.00  0.00     0.010 C 
ENDBRANCH   3   9
TORSDOF 3
ENDMDL
