MODEL 1
REMARK VINA RESULT: -7.849122808      0.000      0.000
REMARK  12 active torsions:
REMARK  status: ('A' for Active; 'I' for Inactive)
REMARK    1  A    between atoms: C5_6  and  S1_7 
REMARK    2  A    between atoms: S1_7  and  C6_9 
REMARK    3  A    between atoms: C9_12  and  S2_13 
REMARK    4  A    between atoms: S2_13  and  N1_16 
REMARK    5  A    between atoms: N1_16  and  C10_18 
REMARK    6  A    between atoms: C10_18  and  C11_19 
REMARK    7  A    between atoms: C10_18  and  C26_43 
REMARK    8  A    between atoms: C11_19  and  S3_20 
REMARK    9  A    between atoms: S3_20  and  C12_21 
REMARK   10  A    between atoms: C13_26  and  C14_27 
REMARK   11  A    between atoms: C26_43  and  O5_44 
REMARK   12  A    between atoms: N6_46  and  O6_48 
ROOT
HETATM    1  C10 UNL     1     -14.192 -12.694 -24.291  1.00  0.00     0.179 C 
ENDROOT
BRANCH   1   2
HETATM    2  N1  UNL     1     -13.669 -14.039 -24.099  1.00  0.00    -0.302 N 
ATOM      3  H1  UNL     1     -12.810 -14.370 -24.540  1.00  0.00     0.173 HD
BRANCH   2   4
HETATM    4  S2  UNL     1     -14.618 -15.009 -23.074  1.00  0.00     0.259 S 
HETATM    5  O3  UNL     1     -15.285 -16.139 -23.808  1.00  0.00    -0.201 OA
HETATM    6  O4  UNL     1     -15.698 -14.116 -22.476  1.00  0.00    -0.201 OA
BRANCH   4   7
HETATM    7  C9  UNL     1     -13.634 -15.585 -21.750  1.00  0.00     0.079 A 
HETATM    8  C8  UNL     1     -12.624 -14.764 -21.219  1.00  0.00     0.027 A 
HETATM    9  C7  UNL     1     -11.834 -15.178 -20.176  1.00  0.00     0.023 A 
HETATM   10  C6  UNL     1     -11.995 -16.430 -19.591  1.00  0.00     0.038 A 
HETATM   11  C28 UNL     1     -12.991 -17.230 -20.119  1.00  0.00     0.023 A 
HETATM   12  C27 UNL     1     -13.798 -16.821 -21.179  1.00  0.00     0.027 A 
BRANCH  10  13
HETATM   13  S1  UNL     1     -10.971 -16.909 -18.261  1.00  0.00     0.102 S 
HETATM   14  O2  UNL     1     -11.534 -18.311 -17.528  1.00  0.00    -0.246 OA
BRANCH  13  15
HETATM   15  C5  UNL     1     -10.605 -15.648 -17.155  1.00  0.00     0.108 A 
HETATM   16  C4  UNL     1     -11.554 -15.205 -16.267  1.00  0.00     0.040 A 
HETATM   17  C3  UNL     1     -11.236 -14.186 -15.389  1.00  0.00     0.008 A 
HETATM   18  C2  UNL     1      -9.998 -13.616 -15.394  1.00  0.00     0.074 A 
HETATM   19  C1  UNL     1      -9.060 -14.083 -16.301  1.00  0.00     0.246 A 
HETATM   20  O1  UNL     1      -7.891 -13.578 -16.338  1.00  0.00    -0.268 OA
HETATM   21  N7  UNL     1      -9.398 -15.076 -17.142  1.00  0.00    -0.316 N 
ATOM     22  H7  UNL     1      -8.697 -15.409 -17.804  1.00  0.00     0.169 HD
ENDBRANCH  13  15
ENDBRANCH  10  13
ENDBRANCH   4   7
ENDBRANCH   2   4
ENDBRANCH   1   2
BRANCH   1  23
HETATM   23  C11 UNL     1     -13.345 -11.726 -23.497  1.00  0.00     0.116 C 
BRANCH  23  24
HETATM   24  S3  UNL     1     -14.376 -10.565 -22.632  1.00  0.00    -0.090 SA
BRANCH  24  25
HETATM   25  C12 UNL     1     -14.546 -10.964 -20.878  1.00  0.00     0.159 A 
HETATM   26  N2  UNL     1     -14.424 -10.035 -19.917  1.00  0.00    -0.279 N 
HETATM   27  N3  UNL     1     -14.617 -10.324 -18.620  1.00  0.00    -0.296 N 
ATOM     28  H2  UNL     1     -14.177  -9.080 -20.180  1.00  0.00     0.189 HD
HETATM   29  C13 UNL     1     -14.945 -11.564 -18.202  1.00  0.00     0.086 A 
ATOM     30  H3  UNL     1     -14.513  -9.582 -17.929  1.00  0.00     0.187 HD
HETATM   31  C19 UNL     1     -15.072 -12.531 -19.179  1.00  0.00     0.073 A 
HETATM   32  C20 UNL     1     -15.445 -13.877 -18.799  1.00  0.00    -0.007 A 
HETATM   33  N5  UNL     1     -14.870 -12.210 -20.495  1.00  0.00    -0.333 N 
HETATM   34  C21 UNL     1     -14.661 -14.680 -18.019  1.00  0.00     0.014 A 
HETATM   35  C25 UNL     1     -16.650 -14.393 -19.235  1.00  0.00     0.014 A 
HETATM   36  C22 UNL     1     -15.066 -15.978 -17.673  1.00  0.00     0.001 A 
HETATM   37  C23 UNL     1     -16.270 -16.468 -18.120  1.00  0.00     0.000 A 
HETATM   38  C24 UNL     1     -17.057 -15.670 -18.902  1.00  0.00     0.001 A 
ATOM     39  H5  UNL     1     -14.967 -12.937 -21.203  1.00  0.00     0.168 HD
BRANCH  29  40
HETATM   40  C14 UNL     1     -15.196 -11.877 -16.810  1.00  0.00    -0.003 A 
HETATM   41  C15 UNL     1     -16.458 -11.878 -16.299  1.00  0.00     0.031 A 
HETATM   42  C16 UNL     1     -16.675 -12.198 -14.953  1.00  0.00     0.088 A 
HETATM   43  N4  UNL     1     -15.609 -12.506 -14.153  1.00  0.00    -0.375 N 
HETATM   44  C17 UNL     1     -14.366 -12.512 -14.623  1.00  0.00     0.088 A 
ATOM     45  H4  UNL     1     -15.771 -12.737 -13.173  1.00  0.00     0.164 HD
HETATM   46  C18 UNL     1     -14.147 -12.200 -15.947  1.00  0.00     0.031 A 
ENDBRANCH  29  40
ENDBRANCH  24  25
ENDBRANCH  23  24
ENDBRANCH   1  23
BRANCH   1  47
HETATM   47  C26 UNL     1     -13.994 -12.404 -25.751  1.00  0.00     0.160 C 
HETATM   48  N6  UNL     1     -14.982 -12.452 -26.554  1.00  0.00    -0.249 N 
ATOM     49  H6  UNL     1     -15.899 -12.691 -26.178  1.00  0.00     0.196 HD
BRANCH  47  50
HETATM   50  O5  UNL     1     -12.748 -12.079 -26.247  1.00  0.00    -0.347 OA
ATOM     51  H5  UNL     1     -12.650 -11.440 -26.943  1.00  0.00     0.219 HD
ENDBRANCH  47  50
BRANCH  48  52
HETATM   52  O6  UNL     1     -14.875 -12.202 -27.889  1.00  0.00    -0.288 OA
ATOM     53  H6  UNL     1     -15.586 -12.336 -28.504  1.00  0.00     0.244 HD
ENDBRANCH  48  52
ENDBRANCH   1  47
TORSDOF 12
ENDMDL
MODEL 2
REMARK VINA RESULT: -7.819488678      3.627      6.038
REMARK  12 active torsions:
REMARK  status: ('A' for Active; 'I' for Inactive)
REMARK    1  A    between atoms: C5_6  and  S1_7 
REMARK    2  A    between atoms: S1_7  and  C6_9 
REMARK    3  A    between atoms: C9_12  and  S2_13 
REMARK    4  A    between atoms: S2_13  and  N1_16 
REMARK    5  A    between atoms: N1_16  and  C10_18 
REMARK    6  A    between atoms: C10_18  and  C11_19 
REMARK    7  A    between atoms: C10_18  and  C26_43 
REMARK    8  A    between atoms: C11_19  and  S3_20 
REMARK    9  A    between atoms: S3_20  and  C12_21 
REMARK   10  A    between atoms: C13_26  and  C14_27 
REMARK   11  A    between atoms: C26_43  and  O5_44 
REMARK   12  A    between atoms: N6_46  and  O6_48 
ROOT
HETATM    1  C10 UNL     1     -15.496 -12.556 -27.894  1.00  0.00     0.179 C 
ENDROOT
BRANCH   1   2
HETATM    2  N1  UNL     1     -15.386 -12.209 -26.485  1.00  0.00    -0.302 N 
ATOM      3  H1  UNL     1     -15.996 -12.600 -25.767  1.00  0.00     0.173 HD
BRANCH   2   4
HETATM    4  S2  UNL     1     -14.149 -11.093 -26.144  1.00  0.00     0.259 S 
HETATM    5  O3  UNL     1     -14.380  -9.761 -26.802  1.00  0.00    -0.201 OA
HETATM    6  O4  UNL     1     -12.849 -11.678 -26.681  1.00  0.00    -0.201 OA
BRANCH   4   7
HETATM    7  C9  UNL     1     -13.971 -10.941 -24.413  1.00  0.00     0.079 A 
HETATM    8  C8  UNL     1     -12.708 -11.114 -23.820  1.00  0.00     0.027 A 
HETATM    9  C7  UNL     1     -12.526 -10.995 -22.465  1.00  0.00     0.023 A 
HETATM   10  C6  UNL     1     -13.583 -10.698 -21.611  1.00  0.00     0.038 A 
HETATM   11  C28 UNL     1     -14.821 -10.530 -22.202  1.00  0.00     0.023 A 
HETATM   12  C27 UNL     1     -15.017 -10.648 -23.576  1.00  0.00     0.027 A 
BRANCH  10  13
HETATM   13  S1  UNL     1     -13.301 -10.552 -19.894  1.00  0.00     0.102 S 
HETATM   14  O2  UNL     1     -13.833  -9.069 -19.310  1.00  0.00    -0.246 OA
BRANCH  13  15
HETATM   15  C5  UNL     1     -11.709 -10.961 -19.397  1.00  0.00     0.108 A 
HETATM   16  C4  UNL     1     -10.718 -10.012 -19.389  1.00  0.00     0.040 A 
HETATM   17  C3  UNL     1      -9.443 -10.367 -18.988  1.00  0.00     0.008 A 
HETATM   18  C2  UNL     1      -9.159 -11.644 -18.603  1.00  0.00     0.074 A 
HETATM   19  C1  UNL     1     -10.180 -12.581 -18.622  1.00  0.00     0.246 A 
HETATM   20  O1  UNL     1      -9.956 -13.785 -18.270  1.00  0.00    -0.268 OA
HETATM   21  N7  UNL     1     -11.409 -12.206 -19.016  1.00  0.00    -0.316 N 
ATOM     22  H7  UNL     1     -12.149 -12.907 -19.024  1.00  0.00     0.169 HD
ENDBRANCH  13  15
ENDBRANCH  10  13
ENDBRANCH   4   7
ENDBRANCH   2   4
ENDBRANCH   1   2
BRANCH   1  23
HETATM   23  C11 UNL     1     -15.714 -14.048 -28.012  1.00  0.00     0.116 C 
BRANCH  23  24
HETATM   24  S3  UNL     1     -14.181 -14.918 -27.789  1.00  0.00    -0.090 SA
BRANCH  24  25
HETATM   25  C12 UNL     1     -14.044 -15.671 -26.152  1.00  0.00     0.159 A 
HETATM   26  N2  UNL     1     -13.077 -16.552 -25.848  1.00  0.00    -0.279 N 
HETATM   27  N3  UNL     1     -12.941 -17.058 -24.612  1.00  0.00    -0.296 N 
ATOM     28  H2  UNL     1     -12.427 -16.845 -26.577  1.00  0.00     0.189 HD
HETATM   29  C13 UNL     1     -13.765 -16.715 -23.600  1.00  0.00     0.086 A 
ATOM     30  H3  UNL     1     -12.189 -17.724 -24.432  1.00  0.00     0.187 HD
HETATM   31  C19 UNL     1     -14.766 -15.813 -23.899  1.00  0.00     0.073 A 
HETATM   32  C20 UNL     1     -15.669 -15.386 -22.852  1.00  0.00    -0.007 A 
HETATM   33  N5  UNL     1     -14.883 -15.311 -25.168  1.00  0.00    -0.333 N 
HETATM   34  C21 UNL     1     -16.537 -16.231 -22.219  1.00  0.00     0.014 A 
HETATM   35  C25 UNL     1     -15.670 -14.062 -22.458  1.00  0.00     0.014 A 
HETATM   36  C22 UNL     1     -17.393 -15.772 -21.207  1.00  0.00     0.001 A 
HETATM   37  C23 UNL     1     -17.373 -14.449 -20.833  1.00  0.00     0.000 A 
HETATM   38  C24 UNL     1     -16.509 -13.599 -21.464  1.00  0.00     0.001 A 
ATOM     39  H5  UNL     1     -15.628 -14.645 -25.371  1.00  0.00     0.168 HD
BRANCH  29  40
HETATM   40  C14 UNL     1     -13.602 -17.225 -22.254  1.00  0.00    -0.003 A 
HETATM   41  C15 UNL     1     -13.972 -18.493 -21.925  1.00  0.00     0.031 A 
HETATM   42  C16 UNL     1     -13.791 -18.966 -20.619  1.00  0.00     0.088 A 
HETATM   43  N4  UNL     1     -13.242 -18.143 -19.674  1.00  0.00    -0.375 N 
HETATM   44  C17 UNL     1     -12.872 -16.901 -19.965  1.00  0.00     0.088 A 
ATOM     45  H4  UNL     1     -13.113 -18.492 -18.725  1.00  0.00     0.164 HD
HETATM   46  C18 UNL     1     -13.046 -16.431 -21.249  1.00  0.00     0.031 A 
ENDBRANCH  29  40
ENDBRANCH  24  25
ENDBRANCH  23  24
ENDBRANCH   1  23
BRANCH   1  47
HETATM   47  C26 UNL     1     -16.739 -11.861 -28.371  1.00  0.00     0.160 C 
HETATM   48  N6  UNL     1     -16.652 -10.816 -29.095  1.00  0.00    -0.249 N 
ATOM     49  H6  UNL     1     -15.724 -10.472 -29.337  1.00  0.00     0.196 HD
BRANCH  47  50
HETATM   50  O5  UNL     1     -17.991 -12.339 -28.038  1.00  0.00    -0.347 OA
ATOM     51  H5  UNL     1     -18.410 -12.085 -27.225  1.00  0.00     0.219 HD
ENDBRANCH  47  50
BRANCH  48  52
HETATM   52  O6  UNL     1     -17.737 -10.136 -29.561  1.00  0.00    -0.288 OA
ATOM     53  H6  UNL     1     -17.874  -9.939 -30.480  1.00  0.00     0.244 HD
ENDBRANCH  48  52
ENDBRANCH   1  47
TORSDOF 12
ENDMDL
MODEL 3
REMARK VINA RESULT: -7.713913244      3.247      6.026
REMARK  12 active torsions:
REMARK  status: ('A' for Active; 'I' for Inactive)
REMARK    1  A    between atoms: C5_6  and  S1_7 
REMARK    2  A    between atoms: S1_7  and  C6_9 
REMARK    3  A    between atoms: C9_12  and  S2_13 
REMARK    4  A    between atoms: S2_13  and  N1_16 
REMARK    5  A    between atoms: N1_16  and  C10_18 
REMARK    6  A    between atoms: C10_18  and  C11_19 
REMARK    7  A    between atoms: C10_18  and  C26_43 
REMARK    8  A    between atoms: C11_19  and  S3_20 
REMARK    9  A    between atoms: S3_20  and  C12_21 
REMARK   10  A    between atoms: C13_26  and  C14_27 
REMARK   11  A    between atoms: C26_43  and  O5_44 
REMARK   12  A    between atoms: N6_46  and  O6_48 
ROOT
HETATM    1  C10 UNL     1     -15.380 -12.183 -27.507  1.00  0.00     0.179 C 
ENDROOT
BRANCH   1   2
HETATM    2  N1  UNL     1     -15.250 -11.976 -26.072  1.00  0.00    -0.302 N 
ATOM      3  H1  UNL     1     -15.893 -12.381 -25.392  1.00  0.00     0.173 HD
BRANCH   2   4
HETATM    4  S2  UNL     1     -13.929 -10.999 -25.633  1.00  0.00     0.259 S 
HETATM    5  O3  UNL     1     -14.016  -9.618 -26.222  1.00  0.00    -0.201 OA
HETATM    6  O4  UNL     1     -12.670 -11.673 -26.163  1.00  0.00    -0.201 OA
BRANCH   4   7
HETATM    7  C9  UNL     1     -13.798 -10.955 -23.892  1.00  0.00     0.079 A 
HETATM    8  C8  UNL     1     -12.583 -11.294 -23.272  1.00  0.00     0.027 A 
HETATM    9  C7  UNL     1     -12.438 -11.266 -21.907  1.00  0.00     0.023 A 
HETATM   10  C6  UNL     1     -13.487 -10.899 -21.070  1.00  0.00     0.038 A 
HETATM   11  C28 UNL     1     -14.678 -10.568 -21.688  1.00  0.00     0.023 A 
HETATM   12  C27 UNL     1     -14.837 -10.593 -23.072  1.00  0.00     0.027 A 
BRANCH  10  13
HETATM   13  S1  UNL     1     -13.253 -10.872 -19.340  1.00  0.00     0.102 S 
HETATM   14  O2  UNL     1     -11.634 -11.071 -18.938  1.00  0.00    -0.246 OA
BRANCH  13  15
HETATM   15  C5  UNL     1     -14.317 -11.895 -18.462  1.00  0.00     0.108 A 
HETATM   16  C4  UNL     1     -14.340 -13.246 -18.705  1.00  0.00     0.040 A 
HETATM   17  C3  UNL     1     -15.208 -14.048 -17.988  1.00  0.00     0.008 A 
HETATM   18  C2  UNL     1     -16.038 -13.517 -17.047  1.00  0.00     0.074 A 
HETATM   19  C1  UNL     1     -15.993 -12.150 -16.823  1.00  0.00     0.246 A 
HETATM   20  O1  UNL     1     -16.754 -11.613 -15.952  1.00  0.00    -0.268 OA
HETATM   21  N7  UNL     1     -15.139 -11.396 -17.535  1.00  0.00    -0.316 N 
ATOM     22  H7  UNL     1     -15.117 -10.391 -17.359  1.00  0.00     0.169 HD
ENDBRANCH  13  15
ENDBRANCH  10  13
ENDBRANCH   4   7
ENDBRANCH   2   4
ENDBRANCH   1   2
BRANCH   1  23
HETATM   23  C11 UNL     1     -15.719 -13.634 -27.760  1.00  0.00     0.116 C 
BRANCH  23  24
HETATM   24  S3  UNL     1     -14.266 -14.646 -27.607  1.00  0.00    -0.090 SA
BRANCH  24  25
HETATM   25  C12 UNL     1     -14.121 -15.406 -25.974  1.00  0.00     0.159 A 
HETATM   26  N2  UNL     1     -13.113 -16.235 -25.657  1.00  0.00    -0.279 N 
HETATM   27  N3  UNL     1     -12.974 -16.744 -24.422  1.00  0.00    -0.296 N 
ATOM     28  H2  UNL     1     -12.433 -16.485 -26.375  1.00  0.00     0.189 HD
HETATM   29  C13 UNL     1     -13.836 -16.456 -23.425  1.00  0.00     0.086 A 
ATOM     30  H3  UNL     1     -12.191 -17.369 -24.232  1.00  0.00     0.187 HD
HETATM   31  C19 UNL     1     -14.879 -15.607 -23.737  1.00  0.00     0.073 A 
HETATM   32  C20 UNL     1     -15.825 -15.240 -22.705  1.00  0.00    -0.007 A 
HETATM   33  N5  UNL     1     -14.998 -15.101 -25.004  1.00  0.00    -0.333 N 
HETATM   34  C21 UNL     1     -16.657 -16.138 -22.097  1.00  0.00     0.014 A 
HETATM   35  C25 UNL     1     -15.907 -13.922 -22.301  1.00  0.00     0.014 A 
HETATM   36  C22 UNL     1     -17.557 -15.736 -21.099  1.00  0.00     0.001 A 
HETATM   37  C23 UNL     1     -17.618 -14.418 -20.714  1.00  0.00     0.000 A 
HETATM   38  C24 UNL     1     -16.791 -13.515 -21.321  1.00  0.00     0.001 A 
ATOM     39  H5  UNL     1     -15.775 -14.476 -25.217  1.00  0.00     0.168 HD
BRANCH  29  40
HETATM   40  C14 UNL     1     -13.672 -16.968 -22.080  1.00  0.00    -0.003 A 
HETATM   41  C15 UNL     1     -14.009 -18.249 -21.762  1.00  0.00     0.031 A 
HETATM   42  C16 UNL     1     -13.828 -18.723 -20.456  1.00  0.00     0.088 A 
HETATM   43  N4  UNL     1     -13.312 -17.890 -19.501  1.00  0.00    -0.375 N 
HETATM   44  C17 UNL     1     -12.975 -16.637 -19.782  1.00  0.00     0.088 A 
ATOM     45  H4  UNL     1     -13.182 -18.240 -18.553  1.00  0.00     0.164 HD
HETATM   46  C18 UNL     1     -13.149 -16.164 -21.065  1.00  0.00     0.031 A 
ENDBRANCH  29  40
ENDBRANCH  24  25
ENDBRANCH  23  24
ENDBRANCH   1  23
BRANCH   1  47
HETATM   47  C26 UNL     1     -16.560 -11.348 -27.916  1.00  0.00     0.160 C 
HETATM   48  N6  UNL     1     -16.696 -10.981 -29.128  1.00  0.00    -0.249 N 
ATOM     49  H6  UNL     1     -15.988 -11.269 -29.803  1.00  0.00     0.196 HD
BRANCH  47  50
HETATM   50  O5  UNL     1     -17.513 -10.966 -26.994  1.00  0.00    -0.347 OA
ATOM     51  H5  UNL     1     -18.338 -10.588 -27.272  1.00  0.00     0.219 HD
ENDBRANCH  47  50
BRANCH  48  52
HETATM   52  O6  UNL     1     -17.739 -10.223 -29.569  1.00  0.00    -0.288 OA
ATOM     53  H6  UNL     1     -18.049  -9.448 -29.116  1.00  0.00     0.244 HD
ENDBRANCH  48  52
ENDBRANCH   1  47
TORSDOF 12
ENDMDL
MODEL 4
REMARK VINA RESULT: -7.660891598      5.089      8.814
REMARK  12 active torsions:
REMARK  status: ('A' for Active; 'I' for Inactive)
REMARK    1  A    between atoms: C5_6  and  S1_7 
REMARK    2  A    between atoms: S1_7  and  C6_9 
REMARK    3  A    between atoms: C9_12  and  S2_13 
REMARK    4  A    between atoms: S2_13  and  N1_16 
REMARK    5  A    between atoms: N1_16  and  C10_18 
REMARK    6  A    between atoms: C10_18  and  C11_19 
REMARK    7  A    between atoms: C10_18  and  C26_43 
REMARK    8  A    between atoms: C11_19  and  S3_20 
REMARK    9  A    between atoms: S3_20  and  C12_21 
REMARK   10  A    between atoms: C13_26  and  C14_27 
REMARK   11  A    between atoms: C26_43  and  O5_44 
REMARK   12  A    between atoms: N6_46  and  O6_48 
ROOT
HETATM    1  C10 UNL     1     -15.365 -12.544 -28.065  1.00  0.00     0.179 C 
ENDROOT
BRANCH   1   2
HETATM    2  N1  UNL     1     -15.198 -12.341 -26.634  1.00  0.00    -0.302 N 
ATOM      3  H1  UNL     1     -15.691 -12.894 -25.932  1.00  0.00     0.173 HD
BRANCH   2   4
HETATM    4  S2  UNL     1     -14.108 -11.097 -26.236  1.00  0.00     0.259 S 
HETATM    5  O3  UNL     1     -14.492  -9.780 -26.850  1.00  0.00    -0.201 OA
HETATM    6  O4  UNL     1     -12.742 -11.502 -26.774  1.00  0.00    -0.201 OA
BRANCH   4   7
HETATM    7  C9  UNL     1     -13.967 -10.987 -24.498  1.00  0.00     0.079 A 
HETATM    8  C8  UNL     1     -12.700 -11.038 -23.893  1.00  0.00     0.027 A 
HETATM    9  C7  UNL     1     -12.547 -10.949 -22.532  1.00  0.00     0.023 A 
HETATM   10  C6  UNL     1     -13.640 -10.803 -21.684  1.00  0.00     0.038 A 
HETATM   11  C28 UNL     1     -14.882 -10.754 -22.287  1.00  0.00     0.023 A 
HETATM   12  C27 UNL     1     -15.049 -10.844 -23.668  1.00  0.00     0.027 A 
BRANCH  10  13
HETATM   13  S1  UNL     1     -13.395 -10.686 -19.959  1.00  0.00     0.102 S 
HETATM   14  O2  UNL     1     -14.004  -9.244 -19.350  1.00  0.00    -0.246 OA
BRANCH  13  15
HETATM   15  C5  UNL     1     -11.795 -11.036 -19.443  1.00  0.00     0.108 A 
HETATM   16  C4  UNL     1     -10.839 -10.052 -19.427  1.00  0.00     0.040 A 
HETATM   17  C3  UNL     1      -9.557 -10.359 -19.011  1.00  0.00     0.008 A 
HETATM   18  C2  UNL     1      -9.231 -11.623 -18.618  1.00  0.00     0.074 A 
HETATM   19  C1  UNL     1     -10.217 -12.597 -18.644  1.00  0.00     0.246 A 
HETATM   20  O1  UNL     1      -9.954 -13.791 -18.285  1.00  0.00    -0.268 OA
HETATM   21  N7  UNL     1     -11.454 -12.268 -19.053  1.00  0.00    -0.316 N 
ATOM     22  H7  UNL     1     -12.169 -12.995 -19.067  1.00  0.00     0.169 HD
ENDBRANCH  13  15
ENDBRANCH  10  13
ENDBRANCH   4   7
ENDBRANCH   2   4
ENDBRANCH   1   2
BRANCH   1  23
HETATM   23  C11 UNL     1     -15.536 -14.023 -28.329  1.00  0.00     0.116 C 
BRANCH  23  24
HETATM   24  S3  UNL     1     -14.075 -14.690 -29.088  1.00  0.00    -0.090 SA
BRANCH  24  25
HETATM   25  C12 UNL     1     -13.268 -15.938 -28.060  1.00  0.00     0.159 A 
HETATM   26  N2  UNL     1     -13.356 -15.927 -26.720  1.00  0.00    -0.279 N 
HETATM   27  N3  UNL     1     -12.810 -16.893 -25.965  1.00  0.00    -0.296 N 
ATOM     28  H2  UNL     1     -13.852 -15.162 -26.263  1.00  0.00     0.189 HD
HETATM   29  C13 UNL     1     -12.140 -17.934 -26.503  1.00  0.00     0.086 A 
ATOM     30  H3  UNL     1     -12.904 -16.840 -24.951  1.00  0.00     0.187 HD
HETATM   31  C19 UNL     1     -12.039 -17.957 -27.880  1.00  0.00     0.073 A 
HETATM   32  C20 UNL     1     -11.353 -19.058 -28.521  1.00  0.00    -0.007 A 
HETATM   33  N5  UNL     1     -12.605 -16.959 -28.627  1.00  0.00    -0.333 N 
HETATM   34  C21 UNL     1     -10.020 -19.307 -28.358  1.00  0.00     0.014 A 
HETATM   35  C25 UNL     1     -12.065 -19.912 -29.341  1.00  0.00     0.014 A 
HETATM   36  C22 UNL     1      -9.398 -20.390 -28.998  1.00  0.00     0.001 A 
HETATM   37  C23 UNL     1     -10.129 -21.225 -29.810  1.00  0.00     0.000 A 
HETATM   38  C24 UNL     1     -11.463 -20.979 -29.978  1.00  0.00     0.001 A 
ATOM     39  H5  UNL     1     -12.521 -16.991 -29.643  1.00  0.00     0.168 HD
BRANCH  29  40
HETATM   40  C14 UNL     1     -11.582 -19.002 -25.699  1.00  0.00    -0.003 A 
HETATM   41  C15 UNL     1     -10.416 -18.841 -25.015  1.00  0.00     0.031 A 
HETATM   42  C16 UNL     1      -9.905 -19.886 -24.235  1.00  0.00     0.088 A 
HETATM   43  N4  UNL     1     -10.584 -21.071 -24.166  1.00  0.00    -0.375 N 
HETATM   44  C17 UNL     1     -11.723 -21.258 -24.823  1.00  0.00     0.088 A 
ATOM     45  H4  UNL     1     -10.208 -21.829 -23.597  1.00  0.00     0.164 HD
HETATM   46  C18 UNL     1     -12.232 -20.233 -25.592  1.00  0.00     0.031 A 
ENDBRANCH  29  40
ENDBRANCH  24  25
ENDBRANCH  23  24
ENDBRANCH   1  23
BRANCH   1  47
HETATM   47  C26 UNL     1     -16.654 -11.854 -28.409  1.00  0.00     0.160 C 
HETATM   48  N6  UNL     1     -16.641 -10.757 -29.056  1.00  0.00    -0.249 N 
ATOM     49  H6  UNL     1     -15.739 -10.368 -29.329  1.00  0.00     0.196 HD
BRANCH  47  50
HETATM   50  O5  UNL     1     -17.869 -12.393 -28.035  1.00  0.00    -0.347 OA
ATOM     51  H5  UNL     1     -18.685 -12.005 -28.327  1.00  0.00     0.219 HD
ENDBRANCH  47  50
BRANCH  48  52
HETATM   52  O6  UNL     1     -17.770 -10.077 -29.401  1.00  0.00    -0.288 OA
ATOM     53  H6  UNL     1     -18.538 -10.495 -29.774  1.00  0.00     0.244 HD
ENDBRANCH  48  52
ENDBRANCH   1  47
TORSDOF 12
ENDMDL
MODEL 5
REMARK VINA RESULT: -7.565893231      3.952      7.387
REMARK  12 active torsions:
REMARK  status: ('A' for Active; 'I' for Inactive)
REMARK    1  A    between atoms: C5_6  and  S1_7 
REMARK    2  A    between atoms: S1_7  and  C6_9 
REMARK    3  A    between atoms: C9_12  and  S2_13 
REMARK    4  A    between atoms: S2_13  and  N1_16 
REMARK    5  A    between atoms: N1_16  and  C10_18 
REMARK    6  A    between atoms: C10_18  and  C11_19 
REMARK    7  A    between atoms: C10_18  and  C26_43 
REMARK    8  A    between atoms: C11_19  and  S3_20 
REMARK    9  A    between atoms: S3_20  and  C12_21 
REMARK   10  A    between atoms: C13_26  and  C14_27 
REMARK   11  A    between atoms: C26_43  and  O5_44 
REMARK   12  A    between atoms: N6_46  and  O6_48 
ROOT
HETATM    1  C10 UNL     1      -9.395 -13.638 -16.070  1.00  0.00     0.179 C 
ENDROOT
BRANCH   1   2
HETATM    2  N1  UNL     1     -10.570 -13.583 -15.213  1.00  0.00    -0.302 N 
ATOM      3  H1  UNL     1     -10.517 -13.428 -14.206  1.00  0.00     0.173 HD
BRANCH   2   4
HETATM    4  S2  UNL     1     -12.039 -13.802 -16.042  1.00  0.00     0.259 S 
HETATM    5  O3  UNL     1     -12.279 -12.737 -17.075  1.00  0.00    -0.201 OA
HETATM    6  O4  UNL     1     -13.157 -13.738 -15.010  1.00  0.00    -0.201 OA
BRANCH   4   7
HETATM    7  C9  UNL     1     -12.073 -15.404 -16.740  1.00  0.00     0.079 A 
HETATM    8  C8  UNL     1     -13.256 -16.162 -16.697  1.00  0.00     0.027 A 
HETATM    9  C7  UNL     1     -13.325 -17.420 -17.240  1.00  0.00     0.023 A 
HETATM   10  C6  UNL     1     -12.227 -18.008 -17.861  1.00  0.00     0.038 A 
HETATM   11  C28 UNL     1     -11.068 -17.256 -17.899  1.00  0.00     0.023 A 
HETATM   12  C27 UNL     1     -10.987 -15.977 -17.350  1.00  0.00     0.027 A 
BRANCH  10  13
HETATM   13  S1  UNL     1     -12.365 -19.609 -18.543  1.00  0.00     0.102 S 
HETATM   14  O2  UNL     1     -13.480 -19.646 -19.798  1.00  0.00    -0.246 OA
BRANCH  13  15
HETATM   15  C5  UNL     1     -12.582 -20.859 -17.385  1.00  0.00     0.108 A 
HETATM   16  C4  UNL     1     -13.209 -22.030 -17.735  1.00  0.00     0.040 A 
HETATM   17  C3  UNL     1     -13.375 -23.020 -16.785  1.00  0.00     0.008 A 
HETATM   18  C2  UNL     1     -12.927 -22.848 -15.509  1.00  0.00     0.074 A 
HETATM   19  C1  UNL     1     -12.299 -21.657 -15.184  1.00  0.00     0.246 A 
HETATM   20  O1  UNL     1     -11.866 -21.457 -14.002  1.00  0.00    -0.268 OA
HETATM   21  N7  UNL     1     -12.151 -20.713 -16.130  1.00  0.00    -0.316 N 
ATOM     22  H7  UNL     1     -11.687 -19.841 -15.875  1.00  0.00     0.169 HD
ENDBRANCH  13  15
ENDBRANCH  10  13
ENDBRANCH   4   7
ENDBRANCH   2   4
ENDBRANCH   1   2
BRANCH   1  23
HETATM   23  C11 UNL     1      -8.929 -12.227 -16.347  1.00  0.00     0.116 C 
BRANCH  23  24
HETATM   24  S3  UNL     1      -8.622 -12.005 -18.083  1.00  0.00    -0.090 SA
BRANCH  24  25
HETATM   25  C12 UNL     1     -10.138 -12.047 -19.065  1.00  0.00     0.159 A 
HETATM   26  N2  UNL     1     -10.826 -10.934 -19.368  1.00  0.00    -0.279 N 
HETATM   27  N3  UNL     1     -11.915 -10.963 -20.153  1.00  0.00    -0.296 N 
ATOM     28  H2  UNL     1     -10.512 -10.040 -18.990  1.00  0.00     0.189 HD
HETATM   29  C13 UNL     1     -12.386 -12.110 -20.685  1.00  0.00     0.086 A 
ATOM     30  H3  UNL     1     -12.402 -10.090 -20.353  1.00  0.00     0.187 HD
HETATM   31  C19 UNL     1     -11.690 -13.263 -20.381  1.00  0.00     0.073 A 
HETATM   32  C20 UNL     1     -12.130 -14.524 -20.940  1.00  0.00    -0.007 A 
HETATM   33  N5  UNL     1     -10.582 -13.206 -19.577  1.00  0.00    -0.333 N 
HETATM   34  C21 UNL     1     -13.333 -15.098 -20.640  1.00  0.00     0.014 A 
HETATM   35  C25 UNL     1     -11.306 -15.195 -21.823  1.00  0.00     0.014 A 
HETATM   36  C22 UNL     1     -13.718 -16.321 -21.209  1.00  0.00     0.001 A 
HETATM   37  C23 UNL     1     -12.880 -16.969 -22.086  1.00  0.00     0.000 A 
HETATM   38  C24 UNL     1     -11.674 -16.401 -22.387  1.00  0.00     0.001 A 
ATOM     39  H5  UNL     1     -10.080 -14.067 -19.363  1.00  0.00     0.168 HD
BRANCH  29  40
HETATM   40  C14 UNL     1     -13.535 -12.147 -21.566  1.00  0.00    -0.003 A 
HETATM   41  C15 UNL     1     -14.805 -12.098 -21.077  1.00  0.00     0.031 A 
HETATM   42  C16 UNL     1     -15.900 -12.121 -21.951  1.00  0.00     0.088 A 
HETATM   43  N4  UNL     1     -15.684 -12.198 -23.300  1.00  0.00    -0.375 N 
HETATM   44  C17 UNL     1     -14.457 -12.249 -23.805  1.00  0.00     0.088 A 
ATOM     45  H4  UNL     1     -16.484 -12.216 -23.932  1.00  0.00     0.164 HD
HETATM   46  C18 UNL     1     -13.376 -12.224 -22.950  1.00  0.00     0.031 A 
ENDBRANCH  29  40
ENDBRANCH  24  25
ENDBRANCH  23  24
ENDBRANCH   1  23
BRANCH   1  47
HETATM   47  C26 UNL     1      -8.343 -14.326 -15.246  1.00  0.00     0.160 C 
HETATM   48  N6  UNL     1      -8.561 -14.588 -14.018  1.00  0.00    -0.249 N 
ATOM     49  H6  UNL     1      -9.460 -14.320 -13.619  1.00  0.00     0.196 HD
BRANCH  47  50
HETATM   50  O5  UNL     1      -7.132 -14.686 -15.799  1.00  0.00    -0.347 OA
ATOM     51  H5  UNL     1      -6.457 -15.098 -15.273  1.00  0.00     0.219 HD
ENDBRANCH  47  50
BRANCH  48  52
HETATM   52  O6  UNL     1      -7.654 -15.208 -13.213  1.00  0.00    -0.288 OA
ATOM     53  H6  UNL     1      -7.306 -16.074 -13.388  1.00  0.00     0.244 HD
ENDBRANCH  48  52
ENDBRANCH   1  47
TORSDOF 12
ENDMDL
