MODEL 1
REMARK VINA RESULT: -9.815825217      0.000      0.000
REMARK  11 active torsions:
REMARK  status: ('A' for Active; 'I' for Inactive)
REMARK    1  A    between atoms: C5_5  and  N1_6 
REMARK    2  A    between atoms: N1_6  and  C6_8 
REMARK    3  A    between atoms: C7_9  and  N2_10 
REMARK       I    between atoms: N2_10  and  C8_12 
REMARK    4  A    between atoms: C8_12  and  C9_14 
REMARK    5  A    between atoms: C12_17  and  S1_18 
REMARK    6  A    between atoms: S1_18  and  N3_21 
REMARK       I    between atoms: N3_21  and  C13_23 
REMARK    7  A    between atoms: C13_23  and  C14_25 
REMARK    8  A    between atoms: C14_25  and  N4_26 
REMARK    9  A    between atoms: C16_28  and  C17_29 
REMARK   10  A    between atoms: C17_29  and  O5_30 
REMARK   11  A    between atoms: O5_30  and  C18_31 
ROOT
HETATM    1  S1  UNL     1     -15.724 -12.614 -15.262  1.00  0.00     0.281 S 
HETATM    2  O2  UNL     1     -16.284 -11.218 -15.456  1.00  0.00    -0.199 OA
HETATM    3  O3  UNL     1     -16.720 -13.387 -14.470  1.00  0.00    -0.199 OA
ENDROOT
BRANCH   1   4
HETATM    4  C12 UNL     1     -15.440 -13.389 -16.802  1.00  0.00     0.149 A 
HETATM    5  C11 UNL     1     -16.191 -12.995 -17.887  1.00  0.00     0.045 A 
HETATM    6  C10 UNL     1     -15.956 -13.624 -19.091  1.00  0.00     0.021 A 
HETATM    7  C9  UNL     1     -15.006 -14.618 -19.233  1.00  0.00     0.047 A 
HETATM    8  C28 UNL     1     -14.303 -14.947 -18.096  1.00  0.00     0.106 A 
HETATM    9  N7  UNL     1     -14.512 -14.350 -16.910  1.00  0.00    -0.354 N 
ATOM     10  H7  UNL     1     -13.966 -14.628 -16.095  1.00  0.00     0.166 HD
BRANCH   7  11
HETATM   11  C8  UNL     1     -14.768 -15.300 -20.529  1.00  0.00     0.257 C 
HETATM   12  N2  UNL     1     -13.986 -14.682 -21.487  1.00  0.00    -0.317 N 
ATOM     13  H2  UNL     1     -13.593 -13.766 -21.268  1.00  0.00     0.169 HD
HETATM   14  O1  UNL     1     -15.303 -16.404 -20.664  1.00  0.00    -0.267 OA
BRANCH  12  15
HETATM   15  C7  UNL     1     -13.697 -15.246 -22.757  1.00  0.00     0.121 A 
HETATM   16  C6  UNL     1     -14.007 -15.090 -24.078  1.00  0.00     0.119 A 
HETATM   17  C30 UNL     1     -13.210 -16.168 -24.435  1.00  0.00     0.253 A 
HETATM   18  C29 UNL     1     -12.885 -16.347 -23.134  1.00  0.00     0.253 A 
HETATM   19  O7  UNL     1     -12.954 -16.699 -25.567  1.00  0.00    -0.281 OA
HETATM   20  O6  UNL     1     -12.153 -17.158 -22.491  1.00  0.00    -0.281 OA
BRANCH  16  21
HETATM   21  N1  UNL     1     -14.809 -14.173 -24.837  1.00  0.00    -0.351 N 
ATOM     22  H1  UNL     1     -15.804 -14.353 -24.974  1.00  0.00     0.166 HD
BRANCH  21  23
HETATM   23  C5  UNL     1     -14.202 -12.998 -25.402  1.00  0.00     0.032 A 
HETATM   24  C4  UNL     1     -13.587 -12.051 -24.611  1.00  0.00     0.030 A 
HETATM   25  C3  UNL     1     -13.005 -10.922 -25.175  1.00  0.00     0.009 A 
HETATM   26  C2  UNL     1     -13.028 -10.718 -26.543  1.00  0.00    -0.062 A 
HETATM   27  C1  UNL     1     -12.423  -9.532 -27.199  1.00  0.00     0.048 C 
HETATM   28  C32 UNL     1     -13.643 -11.669 -27.329  1.00  0.00     0.009 A 
HETATM   29  C31 UNL     1     -14.217 -12.785 -26.761  1.00  0.00     0.030 A 
ENDBRANCH  21  23
ENDBRANCH  16  21
ENDBRANCH  12  15
ENDBRANCH   7  11
ENDBRANCH   1   4
BRANCH   1  30
HETATM   30  N3  UNL     1     -14.221 -12.444 -14.465  1.00  0.00    -0.248 N 
HETATM   31  C13 UNL     1     -13.630 -13.549 -13.824  1.00  0.00     0.251 C 
HETATM   32  O4  UNL     1     -14.128 -14.703 -13.781  1.00  0.00    -0.271 OA
ATOM     33  H3  UNL     1     -13.751 -11.538 -14.455  1.00  0.00     0.182 HD
BRANCH  31  34
HETATM   34  C14 UNL     1     -12.302 -13.423 -13.111  1.00  0.00     0.253 C 
BRANCH  34  35
HETATM   35  N4  UNL     1     -11.219 -13.473 -14.072  1.00  0.00    -0.278 N 
HETATM   36  C15 UNL     1     -11.342 -13.913 -15.333  1.00  0.00     0.140 A 
HETATM   37  C16 UNL     1     -10.095 -13.791 -15.909  1.00  0.00     0.068 A 
HETATM   38  N5  UNL     1      -9.303 -13.285 -14.949  1.00  0.00    -0.287 N 
HETATM   39  N6  UNL     1      -9.992 -13.100 -13.852  1.00  0.00    -0.240 N 
ATOM     40  H5  UNL     1      -8.311 -13.075 -15.059  1.00  0.00     0.188 HD
ATOM     41  H6  UNL     1      -9.629 -12.727 -12.975  1.00  0.00     0.208 HD
BRANCH  37  42
HETATM   42  C17 UNL     1      -9.738 -14.160 -17.321  1.00  0.00     0.235 C 
BRANCH  42  43
HETATM   43  O5  UNL     1     -10.514 -13.389 -18.191  1.00  0.00    -0.344 OA
BRANCH  43  44
HETATM   44  C18 UNL     1     -10.287 -12.092 -18.555  1.00  0.00     0.080 A 
HETATM   45  C19 UNL     1      -9.080 -11.463 -18.323  1.00  0.00     0.037 A 
HETATM   46  C20 UNL     1      -8.869 -10.153 -18.696  1.00  0.00     0.004 A 
HETATM   47  C21 UNL     1      -9.866  -9.432 -19.315  1.00  0.00     0.012 A 
HETATM   48  C22 UNL     1     -11.073 -10.044 -19.552  1.00  0.00    -0.023 A 
HETATM   49  C23 UNL     1     -12.102  -9.366 -20.168  1.00  0.00     0.012 A 
HETATM   50  C27 UNL     1     -11.278 -11.367 -19.173  1.00  0.00     0.007 A 
HETATM   51  C24 UNL     1     -13.307  -9.983 -20.403  1.00  0.00     0.001 A 
HETATM   52  C25 UNL     1     -13.501 -11.290 -20.025  1.00  0.00     0.001 A 
HETATM   53  C26 UNL     1     -12.478 -11.992 -19.404  1.00  0.00     0.015 A 
ENDBRANCH  43  44
ENDBRANCH  42  43
ENDBRANCH  37  42
ENDBRANCH  34  35
ENDBRANCH  31  34
ENDBRANCH   1  30
TORSDOF 11
ENDMDL
MODEL 2
REMARK VINA RESULT: -9.729087185      2.831      6.137
REMARK  11 active torsions:
REMARK  status: ('A' for Active; 'I' for Inactive)
REMARK    1  A    between atoms: C5_5  and  N1_6 
REMARK    2  A    between atoms: N1_6  and  C6_8 
REMARK    3  A    between atoms: C7_9  and  N2_10 
REMARK       I    between atoms: N2_10  and  C8_12 
REMARK    4  A    between atoms: C8_12  and  C9_14 
REMARK    5  A    between atoms: C12_17  and  S1_18 
REMARK    6  A    between atoms: S1_18  and  N3_21 
REMARK       I    between atoms: N3_21  and  C13_23 
REMARK    7  A    between atoms: C13_23  and  C14_25 
REMARK    8  A    between atoms: C14_25  and  N4_26 
REMARK    9  A    between atoms: C16_28  and  C17_29 
REMARK   10  A    between atoms: C17_29  and  O5_30 
REMARK   11  A    between atoms: O5_30  and  C18_31 
ROOT
HETATM    1  S1  UNL     1      -8.533 -13.203 -15.706  1.00  0.00     0.281 S 
HETATM    2  O2  UNL     1      -7.963 -14.600 -15.548  1.00  0.00    -0.199 OA
HETATM    3  O3  UNL     1      -7.391 -12.250 -15.670  1.00  0.00    -0.199 OA
ENDROOT
BRANCH   1   4
HETATM    4  C12 UNL     1      -9.401 -13.054 -17.215  1.00  0.00     0.149 A 
HETATM    5  C11 UNL     1      -9.288 -11.880 -17.928  1.00  0.00     0.045 A 
HETATM    6  C10 UNL     1      -9.986 -11.780 -19.112  1.00  0.00     0.021 A 
HETATM    7  C9  UNL     1     -10.778 -12.804 -19.592  1.00  0.00     0.047 A 
HETATM    8  C28 UNL     1     -10.832 -13.940 -18.815  1.00  0.00     0.106 A 
HETATM    9  N7  UNL     1     -10.162 -14.064 -17.658  1.00  0.00    -0.354 N 
ATOM     10  H7  UNL     1     -10.232 -14.925 -17.116  1.00  0.00     0.166 HD
BRANCH   7  11
HETATM   11  C8  UNL     1     -11.537 -12.684 -20.861  1.00  0.00     0.257 C 
HETATM   12  N2  UNL     1     -12.601 -11.804 -20.934  1.00  0.00    -0.317 N 
ATOM     13  H2  UNL     1     -12.831 -11.259 -20.103  1.00  0.00     0.169 HD
HETATM   14  O1  UNL     1     -11.154 -13.401 -21.790  1.00  0.00    -0.267 OA
BRANCH  12  15
HETATM   15  C7  UNL     1     -13.392 -11.614 -22.097  1.00  0.00     0.121 A 
HETATM   16  C6  UNL     1     -14.688 -11.700 -22.520  1.00  0.00     0.119 A 
HETATM   17  C30 UNL     1     -14.335 -11.330 -23.810  1.00  0.00     0.253 A 
HETATM   18  C29 UNL     1     -13.044 -11.235 -23.420  1.00  0.00     0.253 A 
HETATM   19  O7  UNL     1     -15.029 -11.172 -24.870  1.00  0.00    -0.281 OA
HETATM   20  O6  UNL     1     -11.951 -10.932 -23.987  1.00  0.00    -0.281 OA
BRANCH  16  21
HETATM   21  N1  UNL     1     -15.944 -12.017 -21.903  1.00  0.00    -0.351 N 
ATOM     22  H1  UNL     1     -16.538 -11.273 -21.537  1.00  0.00     0.166 HD
BRANCH  21  23
HETATM   23  C5  UNL     1     -16.360 -13.390 -21.804  1.00  0.00     0.032 A 
HETATM   24  C4  UNL     1     -15.750 -14.385 -22.538  1.00  0.00     0.030 A 
HETATM   25  C3  UNL     1     -16.164 -15.707 -22.429  1.00  0.00     0.009 A 
HETATM   26  C2  UNL     1     -17.200 -16.060 -21.583  1.00  0.00    -0.062 A 
HETATM   27  C1  UNL     1     -17.684 -17.454 -21.427  1.00  0.00     0.048 C 
HETATM   28  C32 UNL     1     -17.806 -15.061 -20.850  1.00  0.00     0.009 A 
HETATM   29  C31 UNL     1     -17.388 -13.753 -20.964  1.00  0.00     0.030 A 
ENDBRANCH  21  23
ENDBRANCH  16  21
ENDBRANCH  12  15
ENDBRANCH   7  11
ENDBRANCH   1   4
BRANCH   1  30
HETATM   30  N3  UNL     1      -9.643 -12.969 -14.428  1.00  0.00    -0.248 N 
HETATM   31  C13 UNL     1     -10.768 -13.807 -14.304  1.00  0.00     0.251 C 
HETATM   32  O4  UNL     1     -11.044 -14.756 -15.081  1.00  0.00    -0.271 OA
ATOM     33  H3  UNL     1      -9.491 -12.219 -13.752  1.00  0.00     0.182 HD
BRANCH  31  34
HETATM   34  C14 UNL     1     -11.766 -13.618 -13.183  1.00  0.00     0.253 C 
BRANCH  34  35
HETATM   35  N4  UNL     1     -13.055 -13.241 -13.726  1.00  0.00    -0.278 N 
HETATM   36  C15 UNL     1     -13.243 -12.739 -14.956  1.00  0.00     0.140 A 
HETATM   37  C16 UNL     1     -14.600 -12.524 -15.082  1.00  0.00     0.068 A 
HETATM   38  N5  UNL     1     -15.136 -12.913 -13.914  1.00  0.00    -0.287 N 
HETATM   39  N6  UNL     1     -14.197 -13.340 -13.110  1.00  0.00    -0.240 N 
ATOM     40  H5  UNL     1     -16.130 -12.880 -13.687  1.00  0.00     0.188 HD
ATOM     41  H6  UNL     1     -14.335 -13.691 -12.162  1.00  0.00     0.208 HD
BRANCH  37  42
HETATM   42  C17 UNL     1     -15.293 -11.967 -16.293  1.00  0.00     0.235 C 
BRANCH  42  43
HETATM   43  O5  UNL     1     -16.040 -12.990 -16.886  1.00  0.00    -0.344 OA
BRANCH  43  44
HETATM   44  C18 UNL     1     -15.556 -14.023 -17.637  1.00  0.00     0.080 A 
HETATM   45  C19 UNL     1     -14.546 -13.850 -18.562  1.00  0.00     0.037 A 
HETATM   46  C20 UNL     1     -14.070 -14.905 -19.311  1.00  0.00     0.004 A 
HETATM   47  C21 UNL     1     -14.596 -16.168 -19.156  1.00  0.00     0.012 A 
HETATM   48  C22 UNL     1     -15.602 -16.355 -18.240  1.00  0.00    -0.023 A 
HETATM   49  C23 UNL     1     -16.161 -17.600 -18.046  1.00  0.00     0.012 A 
HETATM   50  C27 UNL     1     -16.076 -15.287 -17.486  1.00  0.00     0.007 A 
HETATM   51  C24 UNL     1     -17.167 -17.783 -17.129  1.00  0.00     0.001 A 
HETATM   52  C25 UNL     1     -17.630 -16.721 -16.389  1.00  0.00     0.001 A 
HETATM   53  C26 UNL     1     -17.081 -15.459 -16.567  1.00  0.00     0.015 A 
ENDBRANCH  43  44
ENDBRANCH  42  43
ENDBRANCH  37  42
ENDBRANCH  34  35
ENDBRANCH  31  34
ENDBRANCH   1  30
TORSDOF 11
ENDMDL
MODEL 3
REMARK VINA RESULT: -9.717070170      1.721      2.279
REMARK  11 active torsions:
REMARK  status: ('A' for Active; 'I' for Inactive)
REMARK    1  A    between atoms: C5_5  and  N1_6 
REMARK    2  A    between atoms: N1_6  and  C6_8 
REMARK    3  A    between atoms: C7_9  and  N2_10 
REMARK       I    between atoms: N2_10  and  C8_12 
REMARK    4  A    between atoms: C8_12  and  C9_14 
REMARK    5  A    between atoms: C12_17  and  S1_18 
REMARK    6  A    between atoms: S1_18  and  N3_21 
REMARK       I    between atoms: N3_21  and  C13_23 
REMARK    7  A    between atoms: C13_23  and  C14_25 
REMARK    8  A    between atoms: C14_25  and  N4_26 
REMARK    9  A    between atoms: C16_28  and  C17_29 
REMARK   10  A    between atoms: C17_29  and  O5_30 
REMARK   11  A    between atoms: O5_30  and  C18_31 
ROOT
HETATM    1  S1  UNL     1     -15.868 -12.626 -15.369  1.00  0.00     0.281 S 
HETATM    2  O2  UNL     1     -16.322 -11.236 -15.771  1.00  0.00    -0.199 OA
HETATM    3  O3  UNL     1     -16.936 -13.216 -14.518  1.00  0.00    -0.199 OA
ENDROOT
BRANCH   1   4
HETATM    4  C12 UNL     1     -15.596 -13.623 -16.779  1.00  0.00     0.149 A 
HETATM    5  C11 UNL     1     -16.510 -13.571 -17.809  1.00  0.00     0.045 A 
HETATM    6  C10 UNL     1     -16.281 -14.370 -18.909  1.00  0.00     0.021 A 
HETATM    7  C9  UNL     1     -15.182 -15.203 -19.002  1.00  0.00     0.047 A 
HETATM    8  C28 UNL     1     -14.322 -15.190 -17.926  1.00  0.00     0.106 A 
HETATM    9  N7  UNL     1     -14.521 -14.421 -16.843  1.00  0.00    -0.354 N 
ATOM     10  H7  UNL     1     -13.857 -14.445 -16.070  1.00  0.00     0.166 HD
BRANCH   7  11
HETATM   11  C8  UNL     1     -14.950 -16.070 -20.183  1.00  0.00     0.257 C 
HETATM   12  N2  UNL     1     -14.082 -17.141 -20.078  1.00  0.00    -0.317 N 
ATOM     13  H2  UNL     1     -13.625 -17.302 -19.180  1.00  0.00     0.169 HD
HETATM   14  O1  UNL     1     -15.566 -15.763 -21.208  1.00  0.00    -0.267 OA
BRANCH  12  15
HETATM   15  C7  UNL     1     -13.788 -18.030 -21.145  1.00  0.00     0.121 A 
HETATM   16  C6  UNL     1     -13.095 -18.079 -22.320  1.00  0.00     0.119 A 
HETATM   17  C30 UNL     1     -13.507 -19.382 -22.558  1.00  0.00     0.253 A 
HETATM   18  C29 UNL     1     -14.203 -19.364 -21.398  1.00  0.00     0.253 A 
HETATM   19  O7  UNL     1     -13.269 -20.188 -23.518  1.00  0.00    -0.281 OA
HETATM   20  O6  UNL     1     -14.933 -20.190 -20.772  1.00  0.00    -0.281 OA
BRANCH  16  21
HETATM   21  N1  UNL     1     -12.246 -17.174 -23.043  1.00  0.00    -0.351 N 
ATOM     22  H1  UNL     1     -11.456 -17.531 -23.580  1.00  0.00     0.166 HD
BRANCH  21  23
HETATM   23  C5  UNL     1     -12.518 -15.763 -23.005  1.00  0.00     0.032 A 
HETATM   24  C4  UNL     1     -11.922 -14.937 -22.076  1.00  0.00     0.030 A 
HETATM   25  C3  UNL     1     -12.196 -13.575 -22.054  1.00  0.00     0.009 A 
HETATM   26  C2  UNL     1     -13.074 -13.011 -22.963  1.00  0.00    -0.062 A 
HETATM   27  C1  UNL     1     -13.404 -11.564 -22.986  1.00  0.00     0.048 C 
HETATM   28  C32 UNL     1     -13.666 -13.842 -23.890  1.00  0.00     0.009 A 
HETATM   29  C31 UNL     1     -13.388 -15.191 -23.904  1.00  0.00     0.030 A 
ENDBRANCH  21  23
ENDBRANCH  16  21
ENDBRANCH  12  15
ENDBRANCH   7  11
ENDBRANCH   1   4
BRANCH   1  30
HETATM   30  N3  UNL     1     -14.378 -12.448 -14.549  1.00  0.00    -0.248 N 
HETATM   31  C13 UNL     1     -13.816 -13.537 -13.857  1.00  0.00     0.251 C 
HETATM   32  O4  UNL     1     -14.331 -14.682 -13.783  1.00  0.00    -0.271 OA
ATOM     33  H3  UNL     1     -13.896 -11.548 -14.561  1.00  0.00     0.182 HD
BRANCH  31  34
HETATM   34  C14 UNL     1     -12.501 -13.403 -13.122  1.00  0.00     0.253 C 
BRANCH  34  35
HETATM   35  N4  UNL     1     -11.401 -13.448 -14.064  1.00  0.00    -0.278 N 
HETATM   36  C15 UNL     1     -11.504 -13.875 -15.331  1.00  0.00     0.140 A 
HETATM   37  C16 UNL     1     -10.247 -13.752 -15.884  1.00  0.00     0.068 A 
HETATM   38  N5  UNL     1      -9.470 -13.257 -14.906  1.00  0.00    -0.287 N 
HETATM   39  N6  UNL     1     -10.177 -13.080 -13.820  1.00  0.00    -0.240 N 
ATOM     40  H5  UNL     1      -8.476 -13.048 -14.998  1.00  0.00     0.188 HD
ATOM     41  H6  UNL     1      -9.828 -12.716 -12.933  1.00  0.00     0.208 HD
BRANCH  37  42
HETATM   42  C17 UNL     1      -9.866 -14.110 -17.293  1.00  0.00     0.235 C 
BRANCH  42  43
HETATM   43  O5  UNL     1     -10.700 -13.410 -18.169  1.00  0.00    -0.344 OA
BRANCH  43  44
HETATM   44  C18 UNL     1     -10.550 -12.115 -18.580  1.00  0.00     0.080 A 
HETATM   45  C19 UNL     1      -9.324 -11.482 -18.582  1.00  0.00     0.037 A 
HETATM   46  C20 UNL     1      -9.192 -10.175 -19.000  1.00  0.00     0.004 A 
HETATM   47  C21 UNL     1     -10.289  -9.461 -19.428  1.00  0.00     0.012 A 
HETATM   48  C22 UNL     1     -11.517 -10.079 -19.431  1.00  0.00    -0.023 A 
HETATM   49  C23 UNL     1     -12.646  -9.409 -19.850  1.00  0.00     0.012 A 
HETATM   50  C27 UNL     1     -11.642 -11.399 -19.009  1.00  0.00     0.007 A 
HETATM   51  C24 UNL     1     -13.871 -10.031 -19.851  1.00  0.00     0.001 A 
HETATM   52  C25 UNL     1     -13.986 -11.335 -19.433  1.00  0.00     0.001 A 
HETATM   53  C26 UNL     1     -12.862 -12.028 -19.007  1.00  0.00     0.015 A 
ENDBRANCH  43  44
ENDBRANCH  42  43
ENDBRANCH  37  42
ENDBRANCH  34  35
ENDBRANCH  31  34
ENDBRANCH   1  30
TORSDOF 11
ENDMDL
MODEL 4
REMARK VINA RESULT: -9.666308256      2.070      4.196
REMARK  11 active torsions:
REMARK  status: ('A' for Active; 'I' for Inactive)
REMARK    1  A    between atoms: C5_5  and  N1_6 
REMARK    2  A    between atoms: N1_6  and  C6_8 
REMARK    3  A    between atoms: C7_9  and  N2_10 
REMARK       I    between atoms: N2_10  and  C8_12 
REMARK    4  A    between atoms: C8_12  and  C9_14 
REMARK    5  A    between atoms: C12_17  and  S1_18 
REMARK    6  A    between atoms: S1_18  and  N3_21 
REMARK       I    between atoms: N3_21  and  C13_23 
REMARK    7  A    between atoms: C13_23  and  C14_25 
REMARK    8  A    between atoms: C14_25  and  N4_26 
REMARK    9  A    between atoms: C16_28  and  C17_29 
REMARK   10  A    between atoms: C17_29  and  O5_30 
REMARK   11  A    between atoms: O5_30  and  C18_31 
ROOT
HETATM    1  S1  UNL     1      -9.174 -12.829 -16.557  1.00  0.00     0.281 S 
HETATM    2  O2  UNL     1      -8.164 -13.911 -16.224  1.00  0.00    -0.199 OA
HETATM    3  O3  UNL     1      -8.411 -11.599 -16.900  1.00  0.00    -0.199 OA
ENDROOT
BRANCH   1   4
HETATM    4  C12 UNL     1     -10.182 -13.313 -17.900  1.00  0.00     0.149 A 
HETATM    5  C11 UNL     1     -10.244 -12.494 -19.006  1.00  0.00     0.045 A 
HETATM    6  C10 UNL     1     -11.051 -12.891 -20.052  1.00  0.00     0.021 A 
HETATM    7  C9  UNL     1     -11.782 -14.062 -20.018  1.00  0.00     0.047 A 
HETATM    8  C28 UNL     1     -11.659 -14.818 -18.873  1.00  0.00     0.106 A 
HETATM    9  N7  UNL     1     -10.881 -14.455 -17.840  1.00  0.00    -0.354 N 
ATOM     10  H7  UNL     1     -10.821 -15.048 -17.013  1.00  0.00     0.166 HD
BRANCH   7  11
HETATM   11  C8  UNL     1     -12.658 -14.475 -21.142  1.00  0.00     0.257 C 
HETATM   12  N2  UNL     1     -12.538 -13.842 -22.365  1.00  0.00    -0.317 N 
ATOM     13  H2  UNL     1     -11.841 -13.102 -22.455  1.00  0.00     0.169 HD
HETATM   14  O1  UNL     1     -13.458 -15.383 -20.897  1.00  0.00    -0.267 OA
BRANCH  12  15
HETATM   15  C7  UNL     1     -13.326 -14.159 -23.502  1.00  0.00     0.121 A 
HETATM   16  C6  UNL     1     -14.246 -13.597 -24.340  1.00  0.00     0.119 A 
HETATM   17  C30 UNL     1     -14.371 -14.776 -25.061  1.00  0.00     0.253 A 
HETATM   18  C29 UNL     1     -13.461 -15.359 -24.247  1.00  0.00     0.253 A 
HETATM   19  O7  UNL     1     -15.086 -15.084 -26.072  1.00  0.00    -0.281 OA
HETATM   20  O6  UNL     1     -12.930 -16.507 -24.165  1.00  0.00    -0.281 OA
BRANCH  16  21
HETATM   21  N1  UNL     1     -14.849 -12.301 -24.472  1.00  0.00    -0.351 N 
ATOM     22  H1  UNL     1     -15.684 -12.066 -23.935  1.00  0.00     0.166 HD
BRANCH  21  23
HETATM   23  C5  UNL     1     -14.269 -11.337 -25.367  1.00  0.00     0.032 A 
HETATM   24  C4  UNL     1     -12.905 -11.242 -25.541  1.00  0.00     0.030 A 
HETATM   25  C3  UNL     1     -12.361 -10.303 -26.410  1.00  0.00     0.009 A 
HETATM   26  C2  UNL     1     -13.174  -9.440 -27.124  1.00  0.00    -0.062 A 
HETATM   27  C1  UNL     1     -12.649  -8.419 -28.065  1.00  0.00     0.048 C 
HETATM   28  C32 UNL     1     -14.537  -9.540 -26.946  1.00  0.00     0.009 A 
HETATM   29  C31 UNL     1     -15.067 -10.474 -26.082  1.00  0.00     0.030 A 
ENDBRANCH  21  23
ENDBRANCH  16  21
ENDBRANCH  12  15
ENDBRANCH   7  11
ENDBRANCH   1   4
BRANCH   1  30
HETATM   30  N3  UNL     1     -10.173 -12.638 -15.183  1.00  0.00    -0.248 N 
HETATM   31  C13 UNL     1     -10.775 -13.761 -14.583  1.00  0.00     0.251 C 
HETATM   32  O4  UNL     1     -10.639 -14.946 -14.982  1.00  0.00    -0.271 OA
ATOM     33  H3  UNL     1     -10.333 -11.707 -14.796  1.00  0.00     0.182 HD
BRANCH  31  34
HETATM   34  C14 UNL     1     -11.664 -13.617 -13.368  1.00  0.00     0.253 C 
BRANCH  34  35
HETATM   35  N4  UNL     1     -13.037 -13.403 -13.782  1.00  0.00    -0.278 N 
HETATM   36  C15 UNL     1     -13.446 -13.362 -15.058  1.00  0.00     0.140 A 
HETATM   37  C16 UNL     1     -14.809 -13.149 -15.021  1.00  0.00     0.068 A 
HETATM   38  N5  UNL     1     -15.125 -13.075 -13.717  1.00  0.00    -0.287 N 
HETATM   39  N6  UNL     1     -14.051 -13.230 -12.986  1.00  0.00    -0.240 N 
ATOM     40  H5  UNL     1     -16.065 -12.923 -13.351  1.00  0.00     0.188 HD
ATOM     41  H6  UNL     1     -14.015 -13.216 -11.967  1.00  0.00     0.208 HD
BRANCH  37  42
HETATM   42  C17 UNL     1     -15.714 -13.028 -16.213  1.00  0.00     0.235 C 
BRANCH  42  43
HETATM   43  O5  UNL     1     -14.999 -13.407 -17.353  1.00  0.00    -0.344 OA
BRANCH  43  44
HETATM   44  C18 UNL     1     -15.347 -13.165 -18.652  1.00  0.00     0.080 A 
HETATM   45  C19 UNL     1     -16.234 -13.970 -19.338  1.00  0.00     0.037 A 
HETATM   46  C20 UNL     1     -16.573 -13.711 -20.649  1.00  0.00     0.004 A 
HETATM   47  C21 UNL     1     -16.030 -12.633 -21.313  1.00  0.00     0.012 A 
HETATM   48  C22 UNL     1     -15.145 -11.823 -20.643  1.00  0.00    -0.023 A 
HETATM   49  C23 UNL     1     -14.575 -10.732 -21.262  1.00  0.00     0.012 A 
HETATM   50  C27 UNL     1     -14.809 -12.091 -19.320  1.00  0.00     0.007 A 
HETATM   51  C24 UNL     1     -13.691  -9.925 -20.588  1.00  0.00     0.001 A 
HETATM   52  C25 UNL     1     -13.364 -10.197 -19.281  1.00  0.00     0.001 A 
HETATM   53  C26 UNL     1     -13.927 -11.290 -18.638  1.00  0.00     0.015 A 
ENDBRANCH  43  44
ENDBRANCH  42  43
ENDBRANCH  37  42
ENDBRANCH  34  35
ENDBRANCH  31  34
ENDBRANCH   1  30
TORSDOF 11
ENDMDL
MODEL 5
REMARK VINA RESULT: -9.660992853      2.309      4.493
REMARK  11 active torsions:
REMARK  status: ('A' for Active; 'I' for Inactive)
REMARK    1  A    between atoms: C5_5  and  N1_6 
REMARK    2  A    between atoms: N1_6  and  C6_8 
REMARK    3  A    between atoms: C7_9  and  N2_10 
REMARK       I    between atoms: N2_10  and  C8_12 
REMARK    4  A    between atoms: C8_12  and  C9_14 
REMARK    5  A    between atoms: C12_17  and  S1_18 
REMARK    6  A    between atoms: S1_18  and  N3_21 
REMARK       I    between atoms: N3_21  and  C13_23 
REMARK    7  A    between atoms: C13_23  and  C14_25 
REMARK    8  A    between atoms: C14_25  and  N4_26 
REMARK    9  A    between atoms: C16_28  and  C17_29 
REMARK   10  A    between atoms: C17_29  and  O5_30 
REMARK   11  A    between atoms: O5_30  and  C18_31 
ROOT
HETATM    1  S1  UNL     1      -8.426 -13.286 -15.395  1.00  0.00     0.281 S 
HETATM    2  O2  UNL     1      -7.883 -14.693 -15.234  1.00  0.00    -0.199 OA
HETATM    3  O3  UNL     1      -7.268 -12.353 -15.341  1.00  0.00    -0.199 OA
ENDROOT
BRANCH   1   4
HETATM    4  C12 UNL     1      -9.270 -13.117 -16.916  1.00  0.00     0.149 A 
HETATM    5  C11 UNL     1      -9.094 -11.960 -17.643  1.00  0.00     0.045 A 
HETATM    6  C10 UNL     1      -9.774 -11.844 -18.836  1.00  0.00     0.021 A 
HETATM    7  C9  UNL     1     -10.610 -12.837 -19.311  1.00  0.00     0.047 A 
HETATM    8  C28 UNL     1     -10.726 -13.957 -18.519  1.00  0.00     0.106 A 
HETATM    9  N7  UNL     1     -10.074 -14.096 -17.352  1.00  0.00    -0.354 N 
ATOM     10  H7  UNL     1     -10.191 -14.945 -16.800  1.00  0.00     0.166 HD
BRANCH   7  11
HETATM   11  C8  UNL     1     -11.349 -12.698 -20.589  1.00  0.00     0.257 C 
HETATM   12  N2  UNL     1     -11.916 -13.818 -21.170  1.00  0.00    -0.317 N 
ATOM     13  H2  UNL     1     -11.805 -14.713 -20.694  1.00  0.00     0.169 HD
HETATM   14  O1  UNL     1     -11.407 -11.558 -21.059  1.00  0.00    -0.267 OA
BRANCH  12  15
HETATM   15  C7  UNL     1     -12.641 -13.796 -22.390  1.00  0.00     0.121 A 
HETATM   16  C6  UNL     1     -13.009 -12.938 -23.386  1.00  0.00     0.119 A 
HETATM   17  C30 UNL     1     -13.709 -13.937 -24.046  1.00  0.00     0.253 A 
HETATM   18  C29 UNL     1     -13.360 -14.811 -23.074  1.00  0.00     0.253 A 
HETATM   19  O7  UNL     1     -14.380 -13.931 -25.132  1.00  0.00    -0.281 OA
HETATM   20  O6  UNL     1     -13.574 -16.039 -22.847  1.00  0.00    -0.281 OA
BRANCH  16  21
HETATM   21  N1  UNL     1     -12.766 -11.554 -23.683  1.00  0.00    -0.351 N 
ATOM     22  H1  UNL     1     -12.132 -11.008 -23.099  1.00  0.00     0.166 HD
BRANCH  21  23
HETATM   23  C5  UNL     1     -13.421 -10.944 -24.807  1.00  0.00     0.032 A 
HETATM   24  C4  UNL     1     -14.709 -10.461 -24.719  1.00  0.00     0.030 A 
HETATM   25  C3  UNL     1     -15.327  -9.874 -25.817  1.00  0.00     0.009 A 
HETATM   26  C2  UNL     1     -14.667  -9.759 -27.027  1.00  0.00    -0.062 A 
HETATM   27  C1  UNL     1     -15.276  -9.141 -28.231  1.00  0.00     0.048 C 
HETATM   28  C32 UNL     1     -13.378 -10.242 -27.109  1.00  0.00     0.009 A 
HETATM   29  C31 UNL     1     -12.774 -10.823 -26.016  1.00  0.00     0.030 A 
ENDBRANCH  21  23
ENDBRANCH  16  21
ENDBRANCH  12  15
ENDBRANCH   7  11
ENDBRANCH   1   4
BRANCH   1  30
HETATM   30  N3  UNL     1      -9.550 -13.036 -14.131  1.00  0.00    -0.248 N 
HETATM   31  C13 UNL     1     -10.690 -13.854 -14.025  1.00  0.00     0.251 C 
HETATM   32  O4  UNL     1     -10.972 -14.797 -14.809  1.00  0.00    -0.271 OA
ATOM     33  H3  UNL     1      -9.393 -12.290 -13.452  1.00  0.00     0.182 HD
BRANCH  31  34
HETATM   34  C14 UNL     1     -11.700 -13.651 -12.917  1.00  0.00     0.253 C 
BRANCH  34  35
HETATM   35  N4  UNL     1     -12.988 -13.298 -13.481  1.00  0.00    -0.278 N 
HETATM   36  C15 UNL     1     -13.174 -12.868 -14.737  1.00  0.00     0.140 A 
HETATM   37  C16 UNL     1     -14.530 -12.651 -14.874  1.00  0.00     0.068 A 
HETATM   38  N5  UNL     1     -15.067 -12.968 -13.684  1.00  0.00    -0.287 N 
HETATM   39  N6  UNL     1     -14.129 -13.354 -12.858  1.00  0.00    -0.240 N 
ATOM     40  H5  UNL     1     -16.060 -12.916 -13.458  1.00  0.00     0.188 HD
ATOM     41  H6  UNL     1     -14.268 -13.648 -11.892  1.00  0.00     0.208 HD
BRANCH  37  42
HETATM   42  C17 UNL     1     -15.222 -12.162 -16.114  1.00  0.00     0.235 C 
BRANCH  42  43
HETATM   43  O5  UNL     1     -14.365 -12.346 -17.203  1.00  0.00    -0.344 OA
BRANCH  43  44
HETATM   44  C18 UNL     1     -14.443 -11.726 -18.417  1.00  0.00     0.080 A 
HETATM   45  C19 UNL     1     -13.842 -10.507 -18.661  1.00  0.00     0.037 A 
HETATM   46  C20 UNL     1     -13.933  -9.896 -19.894  1.00  0.00     0.004 A 
HETATM   47  C21 UNL     1     -14.632 -10.490 -20.921  1.00  0.00     0.012 A 
HETATM   48  C22 UNL     1     -15.236 -11.703 -20.692  1.00  0.00    -0.023 A 
HETATM   49  C23 UNL     1     -15.947 -12.338 -21.688  1.00  0.00     0.012 A 
HETATM   50  C27 UNL     1     -15.139 -12.314 -19.447  1.00  0.00     0.007 A 
HETATM   51  C24 UNL     1     -16.549 -13.551 -21.455  1.00  0.00     0.001 A 
HETATM   52  C25 UNL     1     -16.449 -14.148 -20.221  1.00  0.00     0.001 A 
HETATM   53  C26 UNL     1     -15.737 -13.526 -19.205  1.00  0.00     0.015 A 
ENDBRANCH  43  44
ENDBRANCH  42  43
ENDBRANCH  37  42
ENDBRANCH  34  35
ENDBRANCH  31  34
ENDBRANCH   1  30
TORSDOF 11
ENDMDL
