MODEL 1
REMARK VINA RESULT: -8.620659847      0.000      0.000
REMARK  11 active torsions:
REMARK  status: ('A' for Active; 'I' for Inactive)
REMARK    1  A    between atoms: N1_2  and  C3_4 
REMARK    2  A    between atoms: C5_8  and  S1_9 
REMARK    3  A    between atoms: S1_9  and  C6_12 
REMARK    4  A    between atoms: C7_13  and  C8_14 
REMARK    5  A    between atoms: C10_17  and  N3_18 
REMARK       I    between atoms: N3_18  and  C11_20 
REMARK    6  A    between atoms: C11_20  and  C12_22 
REMARK    7  A    between atoms: C14_24  and  C15_25 
REMARK    8  A    between atoms: C18_30  and  N4_31 
REMARK    9  A    between atoms: N4_31  and  S3_33 
REMARK   10  A    between atoms: S3_33  and  C19_36 
REMARK   11  A    between atoms: C23_40  and  N5_41 
ROOT
HETATM    1  N3  UNL     1     -12.608 -15.226 -18.296  1.00  0.00    -0.303 N 
ATOM      2  H3  UNL     1     -12.652 -15.735 -17.413  1.00  0.00     0.171 HD
HETATM    3  C11 UNL     1     -11.356 -14.851 -18.850  1.00  0.00     0.259 C 
HETATM    4  O3  UNL     1     -11.054 -15.341 -19.955  1.00  0.00    -0.267 OA
ENDROOT
BRANCH   3   5
HETATM    5  C12 UNL     1     -10.440 -13.943 -18.185  1.00  0.00     0.060 A 
HETATM    6  C13 UNL     1      -9.810 -14.346 -16.997  1.00  0.00     0.037 A 
HETATM    7  C14 UNL     1      -8.943 -13.516 -16.330  1.00  0.00     0.042 A 
HETATM    8  C16 UNL     1      -8.706 -12.260 -16.867  1.00  0.00     0.021 A 
HETATM    9  C17 UNL     1      -9.323 -11.861 -18.035  1.00  0.00     0.032 A 
HETATM   10  C18 UNL     1     -10.204 -12.704 -18.714  1.00  0.00     0.058 A 
BRANCH   7  11
HETATM   11  C15 UNL     1      -8.290 -13.949 -15.097  1.00  0.00     0.209 C 
HETATM   12  O4  UNL     1      -7.293 -14.702 -15.189  1.00  0.00    -0.644 OA
HETATM   13  O5  UNL     1      -8.733 -13.557 -13.846  1.00  0.00    -0.644 OA
ENDBRANCH   7  11
BRANCH  10  14
HETATM   14  N4  UNL     1     -10.852 -12.299 -19.901  1.00  0.00    -0.280 N 
ATOM     15  H4  UNL     1     -10.661 -12.782 -20.779  1.00  0.00     0.179 HD
BRANCH  14  16
HETATM   16  S3  UNL     1     -11.959 -10.992 -19.859  1.00  0.00     0.263 S 
HETATM   17  O6  UNL     1     -11.257  -9.664 -19.807  1.00  0.00    -0.200 OA
HETATM   18  O7  UNL     1     -12.829 -11.119 -18.618  1.00  0.00    -0.200 OA
BRANCH  16  19
HETATM   19  C19 UNL     1     -13.033 -11.028 -21.223  1.00  0.00     0.082 A 
HETATM   20  C20 UNL     1     -14.406 -11.203 -21.098  1.00  0.00     0.025 A 
HETATM   21  C21 UNL     1     -15.195 -11.217 -22.217  1.00  0.00     0.004 A 
HETATM   22  C22 UNL     1     -14.686 -11.063 -23.494  1.00  0.00     0.036 A 
HETATM   23  C23 UNL     1     -13.333 -10.889 -23.629  1.00  0.00     0.104 A 
HETATM   24  C24 UNL     1     -12.526 -10.873 -22.501  1.00  0.00     0.061 A 
BRANCH  23  25
HETATM   25  N5  UNL     1     -12.725 -10.720 -24.910  1.00  0.00    -0.116 N 
HETATM   26  O8  UNL     1     -11.503 -10.590 -25.055  1.00  0.00    -0.532 OA
HETATM   27  O9  UNL     1     -13.535 -10.703 -26.006  1.00  0.00    -0.532 OA
ENDBRANCH  23  25
ENDBRANCH  16  19
ENDBRANCH  14  16
ENDBRANCH  10  14
ENDBRANCH   3   5
BRANCH   1  28
HETATM   28  C10 UNL     1     -13.709 -14.907 -18.936  1.00  0.00     0.151 A 
HETATM   29  S2  UNL     1     -15.018 -14.026 -18.327  1.00  0.00    -0.063 SA
HETATM   30  C9  UNL     1     -15.999 -14.035 -19.715  1.00  0.00     0.082 A 
HETATM   31  C8  UNL     1     -15.228 -14.760 -20.639  1.00  0.00     0.041 A 
HETATM   32  N6  UNL     1     -14.075 -15.179 -20.188  1.00  0.00    -0.336 N 
ATOM     33  H6  UNL     1     -13.454 -15.713 -20.796  1.00  0.00     0.168 HD
BRANCH  31  34
HETATM   34  C7  UNL     1     -15.782 -14.992 -21.980  1.00  0.00     0.042 C 
HETATM   35  C6  UNL     1     -15.282 -15.019 -23.153  1.00  0.00     0.116 C 
BRANCH  35  36
HETATM   36  S1  UNL     1     -13.724 -14.803 -23.817  1.00  0.00     0.199 S 
HETATM   37  O1  UNL     1     -12.739 -14.194 -22.867  1.00  0.00    -0.218 OA
HETATM   38  O2  UNL     1     -13.731 -13.988 -25.082  1.00  0.00    -0.218 OA
BRANCH  36  39
HETATM   39  C5  UNL     1     -13.045 -16.384 -24.340  1.00  0.00     0.095 A 
HETATM   40  C4  UNL     1     -13.231 -16.822 -25.627  1.00  0.00     0.131 A 
HETATM   41  N2  UNL     1     -12.718 -18.029 -26.005  1.00  0.00    -0.200 N 
HETATM   42  C3  UNL     1     -12.031 -18.813 -25.161  1.00  0.00     0.679 A 
ATOM     43  H2  UNL     1     -12.860 -18.345 -26.964  1.00  0.00     0.183 HD
HETATM   44  N7  UNL     1     -11.853 -18.379 -23.902  1.00  0.00    -0.200 N 
HETATM   45  C25 UNL     1     -12.345 -17.180 -23.473  1.00  0.00     0.131 A 
ATOM     46  H7  UNL     1     -11.333 -18.963 -23.247  1.00  0.00     0.183 HD
BRANCH  42  47
HETATM   47  N1  UNL     1     -11.517 -20.068 -25.606  1.00  0.00    -0.226 N 
HETATM   48  C1  UNL     1     -11.137 -21.064 -24.626  1.00  0.00     0.168 C 
HETATM   49  C2  UNL     1     -11.353 -20.395 -27.004  1.00  0.00     0.168 C 
ENDBRANCH  42  47
ENDBRANCH  36  39
ENDBRANCH  35  36
ENDBRANCH  31  34
ENDBRANCH   1  28
TORSDOF 11
ENDMDL
MODEL 2
REMARK VINA RESULT: -8.467269183      1.382      1.641
REMARK  11 active torsions:
REMARK  status: ('A' for Active; 'I' for Inactive)
REMARK    1  A    between atoms: N1_2  and  C3_4 
REMARK    2  A    between atoms: C5_8  and  S1_9 
REMARK    3  A    between atoms: S1_9  and  C6_12 
REMARK    4  A    between atoms: C7_13  and  C8_14 
REMARK    5  A    between atoms: C10_17  and  N3_18 
REMARK       I    between atoms: N3_18  and  C11_20 
REMARK    6  A    between atoms: C11_20  and  C12_22 
REMARK    7  A    between atoms: C14_24  and  C15_25 
REMARK    8  A    between atoms: C18_30  and  N4_31 
REMARK    9  A    between atoms: N4_31  and  S3_33 
REMARK   10  A    between atoms: S3_33  and  C19_36 
REMARK   11  A    between atoms: C23_40  and  N5_41 
ROOT
HETATM    1  N3  UNL     1     -12.791 -14.869 -18.305  1.00  0.00    -0.303 N 
ATOM      2  H3  UNL     1     -12.981 -15.224 -17.368  1.00  0.00     0.171 HD
HETATM    3  C11 UNL     1     -11.457 -14.752 -18.774  1.00  0.00     0.259 C 
HETATM    4  O3  UNL     1     -11.139 -15.444 -19.761  1.00  0.00    -0.267 OA
ENDROOT
BRANCH   3   5
HETATM    5  C12 UNL     1     -10.477 -13.879 -18.155  1.00  0.00     0.060 A 
HETATM    6  C13 UNL     1      -9.827 -14.294 -16.983  1.00  0.00     0.037 A 
HETATM    7  C14 UNL     1      -8.899 -13.497 -16.358  1.00  0.00     0.042 A 
HETATM    8  C16 UNL     1      -8.621 -12.262 -16.923  1.00  0.00     0.021 A 
HETATM    9  C17 UNL     1      -9.259 -11.851 -18.077  1.00  0.00     0.032 A 
HETATM   10  C18 UNL     1     -10.202 -12.661 -18.711  1.00  0.00     0.058 A 
BRANCH   7  11
HETATM   11  C15 UNL     1      -8.225 -13.943 -15.142  1.00  0.00     0.209 C 
HETATM   12  O4  UNL     1      -7.241 -14.711 -15.257  1.00  0.00    -0.644 OA
HETATM   13  O5  UNL     1      -8.634 -13.549 -13.880  1.00  0.00    -0.644 OA
ENDBRANCH   7  11
BRANCH  10  14
HETATM   14  N4  UNL     1     -10.869 -12.242 -19.882  1.00  0.00    -0.280 N 
ATOM     15  H4  UNL     1     -10.715 -12.732 -20.763  1.00  0.00     0.179 HD
BRANCH  14  16
HETATM   16  S3  UNL     1     -11.942 -10.908 -19.816  1.00  0.00     0.263 S 
HETATM   17  O6  UNL     1     -11.205  -9.600 -19.733  1.00  0.00    -0.200 OA
HETATM   18  O7  UNL     1     -12.820 -11.038 -18.581  1.00  0.00    -0.200 OA
BRANCH  16  19
HETATM   19  C19 UNL     1     -13.012 -10.885 -21.183  1.00  0.00     0.082 A 
HETATM   20  C20 UNL     1     -14.366 -10.591 -21.077  1.00  0.00     0.025 A 
HETATM   21  C21 UNL     1     -15.152 -10.588 -22.199  1.00  0.00     0.004 A 
HETATM   22  C22 UNL     1     -14.657 -10.868 -23.460  1.00  0.00     0.036 A 
HETATM   23  C23 UNL     1     -13.322 -11.158 -23.576  1.00  0.00     0.104 A 
HETATM   24  C24 UNL     1     -12.518 -11.164 -22.446  1.00  0.00     0.061 A 
BRANCH  23  25
HETATM   25  N5  UNL     1     -12.729 -11.456 -24.841  1.00  0.00    -0.116 N 
HETATM   26  O8  UNL     1     -11.769 -10.819 -25.293  1.00  0.00    -0.532 OA
HETATM   27  O9  UNL     1     -13.251 -12.485 -25.567  1.00  0.00    -0.532 OA
ENDBRANCH  23  25
ENDBRANCH  16  19
ENDBRANCH  14  16
ENDBRANCH  10  14
ENDBRANCH   3   5
BRANCH   1  28
HETATM   28  C10 UNL     1     -13.778 -14.512 -19.094  1.00  0.00     0.151 A 
HETATM   29  S2  UNL     1     -15.226 -13.769 -18.636  1.00  0.00    -0.063 SA
HETATM   30  C9  UNL     1     -15.942 -13.636 -20.172  1.00  0.00     0.082 A 
HETATM   31  C8  UNL     1     -14.975 -14.204 -21.018  1.00  0.00     0.041 A 
HETATM   32  N6  UNL     1     -13.897 -14.633 -20.416  1.00  0.00    -0.336 N 
ATOM     33  H6  UNL     1     -13.146 -15.059 -20.958  1.00  0.00     0.168 HD
BRANCH  31  34
HETATM   34  C7  UNL     1     -15.266 -14.281 -22.456  1.00  0.00     0.042 C 
HETATM   35  C6  UNL     1     -15.147 -15.196 -23.337  1.00  0.00     0.116 C 
BRANCH  35  36
HETATM   36  S1  UNL     1     -14.593 -16.811 -23.346  1.00  0.00     0.199 S 
HETATM   37  O1  UNL     1     -15.690 -17.829 -23.366  1.00  0.00    -0.218 OA
HETATM   38  O2  UNL     1     -13.673 -17.125 -22.197  1.00  0.00    -0.218 OA
BRANCH  36  39
HETATM   39  C5  UNL     1     -13.570 -17.110 -24.796  1.00  0.00     0.095 A 
HETATM   40  C4  UNL     1     -13.697 -16.313 -25.904  1.00  0.00     0.131 A 
HETATM   41  N2  UNL     1     -12.921 -16.559 -27.000  1.00  0.00    -0.200 N 
HETATM   42  C3  UNL     1     -12.028 -17.560 -27.037  1.00  0.00     0.679 A 
ATOM     43  H2  UNL     1     -13.022 -15.960 -27.819  1.00  0.00     0.183 HD
HETATM   44  N7  UNL     1     -11.909 -18.337 -25.948  1.00  0.00    -0.200 N 
HETATM   45  C25 UNL     1     -12.660 -18.134 -24.827  1.00  0.00     0.131 A 
ATOM     46  H7  UNL     1     -11.235 -19.103 -25.958  1.00  0.00     0.183 HD
BRANCH  42  47
HETATM   47  N1  UNL     1     -11.242 -17.776 -28.208  1.00  0.00    -0.226 N 
HETATM   48  C1  UNL     1     -10.009 -18.527 -28.102  1.00  0.00     0.168 C 
HETATM   49  C2  UNL     1     -11.621 -17.274 -29.509  1.00  0.00     0.168 C 
ENDBRANCH  42  47
ENDBRANCH  36  39
ENDBRANCH  35  36
ENDBRANCH  31  34
ENDBRANCH   1  28
TORSDOF 11
ENDMDL
MODEL 3
REMARK VINA RESULT: -8.372849963      2.205      2.640
REMARK  11 active torsions:
REMARK  status: ('A' for Active; 'I' for Inactive)
REMARK    1  A    between atoms: N1_2  and  C3_4 
REMARK    2  A    between atoms: C5_8  and  S1_9 
REMARK    3  A    between atoms: S1_9  and  C6_12 
REMARK    4  A    between atoms: C7_13  and  C8_14 
REMARK    5  A    between atoms: C10_17  and  N3_18 
REMARK       I    between atoms: N3_18  and  C11_20 
REMARK    6  A    between atoms: C11_20  and  C12_22 
REMARK    7  A    between atoms: C14_24  and  C15_25 
REMARK    8  A    between atoms: C18_30  and  N4_31 
REMARK    9  A    between atoms: N4_31  and  S3_33 
REMARK   10  A    between atoms: S3_33  and  C19_36 
REMARK   11  A    between atoms: C23_40  and  N5_41 
ROOT
HETATM    1  N3  UNL     1     -12.628 -15.094 -17.938  1.00  0.00    -0.303 N 
ATOM      2  H3  UNL     1     -12.471 -15.741 -17.165  1.00  0.00     0.171 HD
HETATM    3  C11 UNL     1     -11.534 -14.591 -18.690  1.00  0.00     0.259 C 
HETATM    4  O3  UNL     1     -11.494 -14.885 -19.901  1.00  0.00    -0.267 OA
ENDROOT
BRANCH   3   5
HETATM    5  C12 UNL     1     -10.489 -13.772 -18.108  1.00  0.00     0.060 A 
HETATM    6  C13 UNL     1      -9.855 -14.196 -16.929  1.00  0.00     0.037 A 
HETATM    7  C14 UNL     1      -8.866 -13.448 -16.339  1.00  0.00     0.042 A 
HETATM    8  C16 UNL     1      -8.509 -12.254 -16.945  1.00  0.00     0.021 A 
HETATM    9  C17 UNL     1      -9.129 -11.834 -18.104  1.00  0.00     0.032 A 
HETATM   10  C18 UNL     1     -10.134 -12.593 -18.704  1.00  0.00     0.058 A 
BRANCH   7  11
HETATM   11  C15 UNL     1      -8.211 -13.903 -15.116  1.00  0.00     0.209 C 
HETATM   12  O4  UNL     1      -7.245 -14.696 -15.220  1.00  0.00    -0.644 OA
HETATM   13  O5  UNL     1      -8.619 -13.492 -13.859  1.00  0.00    -0.644 OA
ENDBRANCH   7  11
BRANCH  10  14
HETATM   14  N4  UNL     1     -10.784 -12.165 -19.882  1.00  0.00    -0.280 N 
ATOM     15  H4  UNL     1     -10.557 -12.594 -20.778  1.00  0.00     0.179 HD
BRANCH  14  16
HETATM   16  S3  UNL     1     -11.958 -10.919 -19.796  1.00  0.00     0.263 S 
HETATM   17  O6  UNL     1     -11.326  -9.559 -19.698  1.00  0.00    -0.200 OA
HETATM   18  O7  UNL     1     -12.819 -11.133 -18.561  1.00  0.00    -0.200 OA
BRANCH  16  19
HETATM   19  C19 UNL     1     -13.030 -10.963 -21.161  1.00  0.00     0.082 A 
HETATM   20  C20 UNL     1     -14.413 -10.999 -21.034  1.00  0.00     0.025 A 
HETATM   21  C21 UNL     1     -15.200 -11.029 -22.155  1.00  0.00     0.004 A 
HETATM   22  C22 UNL     1     -14.678 -11.026 -23.435  1.00  0.00     0.036 A 
HETATM   23  C23 UNL     1     -13.314 -10.990 -23.573  1.00  0.00     0.104 A 
HETATM   24  C24 UNL     1     -12.510 -10.959 -22.444  1.00  0.00     0.061 A 
BRANCH  23  25
HETATM   25  N5  UNL     1     -12.693 -10.982 -24.859  1.00  0.00    -0.116 N 
HETATM   26  O8  UNL     1     -11.523 -10.615 -25.031  1.00  0.00    -0.532 OA
HETATM   27  O9  UNL     1     -13.427 -11.397 -25.928  1.00  0.00    -0.532 OA
ENDBRANCH  23  25
ENDBRANCH  16  19
ENDBRANCH  14  16
ENDBRANCH  10  14
ENDBRANCH   3   5
BRANCH   1  28
HETATM   28  C10 UNL     1     -13.845 -14.715 -18.251  1.00  0.00     0.151 A 
HETATM   29  S2  UNL     1     -15.064 -14.233 -17.183  1.00  0.00    -0.063 SA
HETATM   30  C9  UNL     1     -16.286 -13.907 -18.319  1.00  0.00     0.082 A 
HETATM   31  C8  UNL     1     -15.662 -14.201 -19.543  1.00  0.00     0.041 A 
HETATM   32  N6  UNL     1     -14.423 -14.608 -19.447  1.00  0.00    -0.336 N 
ATOM     33  H6  UNL     1     -13.897 -14.843 -20.289  1.00  0.00     0.168 HD
BRANCH  31  34
HETATM   34  C7  UNL     1     -16.442 -14.050 -20.778  1.00  0.00     0.042 C 
HETATM   35  C6  UNL     1     -16.459 -14.663 -21.897  1.00  0.00     0.116 C 
BRANCH  35  36
HETATM   36  S1  UNL     1     -15.602 -15.973 -22.579  1.00  0.00     0.199 S 
HETATM   37  O1  UNL     1     -16.382 -17.251 -22.623  1.00  0.00    -0.218 OA
HETATM   38  O2  UNL     1     -14.290 -16.240 -21.893  1.00  0.00    -0.218 OA
BRANCH  36  39
HETATM   39  C5  UNL     1     -15.121 -15.589 -24.270  1.00  0.00     0.095 A 
HETATM   40  C4  UNL     1     -14.205 -14.599 -24.517  1.00  0.00     0.131 A 
HETATM   41  N2  UNL     1     -13.858 -14.313 -25.806  1.00  0.00    -0.200 N 
HETATM   42  C3  UNL     1     -14.383 -14.969 -26.853  1.00  0.00     0.679 A 
ATOM     43  H2  UNL     1     -13.176 -13.576 -25.980  1.00  0.00     0.183 HD
HETATM   44  N7  UNL     1     -15.280 -15.937 -26.604  1.00  0.00    -0.200 N 
HETATM   45  C25 UNL     1     -15.661 -16.263 -25.334  1.00  0.00     0.131 A 
ATOM     46  H7  UNL     1     -15.689 -16.446 -27.387  1.00  0.00     0.183 HD
BRANCH  42  47
HETATM   47  N1  UNL     1     -13.988 -14.630 -28.181  1.00  0.00    -0.226 N 
HETATM   48  C1  UNL     1     -13.393 -15.647 -29.022  1.00  0.00     0.168 C 
HETATM   49  C2  UNL     1     -14.154 -13.305 -28.734  1.00  0.00     0.168 C 
ENDBRANCH  42  47
ENDBRANCH  36  39
ENDBRANCH  35  36
ENDBRANCH  31  34
ENDBRANCH   1  28
TORSDOF 11
ENDMDL
MODEL 4
REMARK VINA RESULT: -8.336301617      2.598      3.303
REMARK  11 active torsions:
REMARK  status: ('A' for Active; 'I' for Inactive)
REMARK    1  A    between atoms: N1_2  and  C3_4 
REMARK    2  A    between atoms: C5_8  and  S1_9 
REMARK    3  A    between atoms: S1_9  and  C6_12 
REMARK    4  A    between atoms: C7_13  and  C8_14 
REMARK    5  A    between atoms: C10_17  and  N3_18 
REMARK       I    between atoms: N3_18  and  C11_20 
REMARK    6  A    between atoms: C11_20  and  C12_22 
REMARK    7  A    between atoms: C14_24  and  C15_25 
REMARK    8  A    between atoms: C18_30  and  N4_31 
REMARK    9  A    between atoms: N4_31  and  S3_33 
REMARK   10  A    between atoms: S3_33  and  C19_36 
REMARK   11  A    between atoms: C23_40  and  N5_41 
ROOT
HETATM    1  N3  UNL     1     -12.734 -15.190 -17.268  1.00  0.00    -0.303 N 
ATOM      2  H3  UNL     1     -12.638 -15.703 -16.392  1.00  0.00     0.171 HD
HETATM    3  C11 UNL     1     -11.593 -14.895 -18.059  1.00  0.00     0.259 C 
HETATM    4  O3  UNL     1     -11.546 -15.394 -19.200  1.00  0.00    -0.267 OA
ENDROOT
BRANCH   3   5
HETATM    5  C12 UNL     1     -10.506 -14.056 -17.590  1.00  0.00     0.060 A 
HETATM    6  C13 UNL     1      -9.835 -14.394 -16.404  1.00  0.00     0.037 A 
HETATM    7  C14 UNL     1      -8.806 -13.624 -15.919  1.00  0.00     0.042 A 
HETATM    8  C16 UNL     1      -8.446 -12.496 -16.640  1.00  0.00     0.021 A 
HETATM    9  C17 UNL     1      -9.103 -12.161 -17.807  1.00  0.00     0.032 A 
HETATM   10  C18 UNL     1     -10.148 -12.943 -18.300  1.00  0.00     0.058 A 
BRANCH   7  11
HETATM   11  C15 UNL     1      -8.114 -13.989 -14.686  1.00  0.00     0.209 C 
HETATM   12  O4  UNL     1      -7.589 -15.125 -14.617  1.00  0.00    -0.644 OA
HETATM   13  O5  UNL     1      -8.020 -13.131 -13.606  1.00  0.00    -0.644 OA
ENDBRANCH   7  11
BRANCH  10  14
HETATM   14  N4  UNL     1     -10.835 -12.600 -19.484  1.00  0.00    -0.280 N 
ATOM     15  H4  UNL     1     -10.630 -13.089 -20.356  1.00  0.00     0.179 HD
BRANCH  14  16
HETATM   16  S3  UNL     1     -12.016 -11.358 -19.451  1.00  0.00     0.263 S 
HETATM   17  O6  UNL     1     -11.393  -9.997 -19.318  1.00  0.00    -0.200 OA
HETATM   18  O7  UNL     1     -12.934 -11.580 -18.259  1.00  0.00    -0.200 OA
BRANCH  16  19
HETATM   19  C19 UNL     1     -13.021 -11.401 -20.865  1.00  0.00     0.082 A 
HETATM   20  C20 UNL     1     -13.987 -10.439 -21.134  1.00  0.00     0.025 A 
HETATM   21  C21 UNL     1     -14.744 -10.532 -22.272  1.00  0.00     0.004 A 
HETATM   22  C22 UNL     1     -14.592 -11.556 -23.189  1.00  0.00     0.036 A 
HETATM   23  C23 UNL     1     -13.641 -12.511 -22.934  1.00  0.00     0.104 A 
HETATM   24  C24 UNL     1     -12.871 -12.424 -21.785  1.00  0.00     0.061 A 
BRANCH  23  25
HETATM   25  N5  UNL     1     -13.418 -13.601 -23.830  1.00  0.00    -0.116 N 
HETATM   26  O8  UNL     1     -12.760 -14.600 -23.511  1.00  0.00    -0.532 OA
HETATM   27  O9  UNL     1     -13.956 -13.524 -25.080  1.00  0.00    -0.532 OA
ENDBRANCH  23  25
ENDBRANCH  16  19
ENDBRANCH  14  16
ENDBRANCH  10  14
ENDBRANCH   3   5
BRANCH   1  28
HETATM   28  C10 UNL     1     -13.915 -14.793 -17.681  1.00  0.00     0.151 A 
HETATM   29  S2  UNL     1     -15.327 -14.678 -16.759  1.00  0.00    -0.063 SA
HETATM   30  C9  UNL     1     -16.377 -14.105 -17.967  1.00  0.00     0.082 A 
HETATM   31  C8  UNL     1     -15.542 -14.023 -19.093  1.00  0.00     0.041 A 
HETATM   32  N6  UNL     1     -14.302 -14.386 -18.890  1.00  0.00    -0.336 N 
ATOM     33  H6  UNL     1     -13.630 -14.356 -19.656  1.00  0.00     0.168 HD
BRANCH  31  34
HETATM   34  C7  UNL     1     -16.126 -13.572 -20.364  1.00  0.00     0.042 C 
HETATM   35  C6  UNL     1     -16.492 -14.166 -21.432  1.00  0.00     0.116 C 
BRANCH  35  36
HETATM   36  S1  UNL     1     -16.508 -15.782 -21.981  1.00  0.00     0.199 S 
HETATM   37  O1  UNL     1     -16.111 -15.940 -23.416  1.00  0.00    -0.218 OA
HETATM   38  O2  UNL     1     -17.836 -16.461 -21.778  1.00  0.00    -0.218 OA
BRANCH  36  39
HETATM   39  C5  UNL     1     -15.372 -16.781 -21.007  1.00  0.00     0.095 A 
HETATM   40  C4  UNL     1     -15.836 -17.509 -19.941  1.00  0.00     0.131 A 
HETATM   41  N2  UNL     1     -14.960 -18.254 -19.205  1.00  0.00    -0.200 N 
HETATM   42  C3  UNL     1     -13.649 -18.304 -19.486  1.00  0.00     0.679 A 
ATOM     43  H2  UNL     1     -15.314 -18.792 -18.415  1.00  0.00     0.183 HD
HETATM   44  N7  UNL     1     -13.201 -17.589 -20.532  1.00  0.00    -0.200 N 
HETATM   45  C25 UNL     1     -14.035 -16.828 -21.299  1.00  0.00     0.131 A 
ATOM     46  H7  UNL     1     -12.208 -17.616 -20.759  1.00  0.00     0.183 HD
BRANCH  42  47
HETATM   47  N1  UNL     1     -12.775 -19.098 -18.685  1.00  0.00    -0.226 N 
HETATM   48  C1  UNL     1     -12.553 -20.483 -19.041  1.00  0.00     0.168 C 
HETATM   49  C2  UNL     1     -12.094 -18.580 -17.521  1.00  0.00     0.168 C 
ENDBRANCH  42  47
ENDBRANCH  36  39
ENDBRANCH  35  36
ENDBRANCH  31  34
ENDBRANCH   1  28
TORSDOF 11
ENDMDL
MODEL 5
REMARK VINA RESULT: -8.332830913      3.234      5.246
REMARK  11 active torsions:
REMARK  status: ('A' for Active; 'I' for Inactive)
REMARK    1  A    between atoms: N1_2  and  C3_4 
REMARK    2  A    between atoms: C5_8  and  S1_9 
REMARK    3  A    between atoms: S1_9  and  C6_12 
REMARK    4  A    between atoms: C7_13  and  C8_14 
REMARK    5  A    between atoms: C10_17  and  N3_18 
REMARK       I    between atoms: N3_18  and  C11_20 
REMARK    6  A    between atoms: C11_20  and  C12_22 
REMARK    7  A    between atoms: C14_24  and  C15_25 
REMARK    8  A    between atoms: C18_30  and  N4_31 
REMARK    9  A    between atoms: N4_31  and  S3_33 
REMARK   10  A    between atoms: S3_33  and  C19_36 
REMARK   11  A    between atoms: C23_40  and  N5_41 
ROOT
HETATM    1  N3  UNL     1     -11.991 -16.147 -19.163  1.00  0.00    -0.303 N 
ATOM      2  H3  UNL     1     -11.641 -17.071 -18.908  1.00  0.00     0.171 HD
HETATM    3  C11 UNL     1     -11.286 -14.978 -18.774  1.00  0.00     0.259 C 
HETATM    4  O3  UNL     1     -10.833 -14.258 -19.685  1.00  0.00    -0.267 OA
ENDROOT
BRANCH   3   5
HETATM    5  C12 UNL     1     -11.078 -14.608 -17.387  1.00  0.00     0.060 A 
HETATM    6  C13 UNL     1      -9.787 -14.675 -16.841  1.00  0.00     0.037 A 
HETATM    7  C14 UNL     1      -9.546 -14.342 -15.530  1.00  0.00     0.042 A 
HETATM    8  C16 UNL     1     -10.622 -13.934 -14.758  1.00  0.00     0.021 A 
HETATM    9  C17 UNL     1     -11.893 -13.866 -15.292  1.00  0.00     0.032 A 
HETATM   10  C18 UNL     1     -12.138 -14.204 -16.623  1.00  0.00     0.058 A 
BRANCH   7  11
HETATM   11  C15 UNL     1      -8.197 -14.412 -14.975  1.00  0.00     0.209 C 
HETATM   12  O4  UNL     1      -7.231 -14.167 -15.735  1.00  0.00    -0.644 OA
HETATM   13  O5  UNL     1      -7.955 -14.735 -13.652  1.00  0.00    -0.644 OA
ENDBRANCH   7  11
BRANCH  10  14
HETATM   14  N4  UNL     1     -13.437 -14.152 -17.174  1.00  0.00    -0.280 N 
ATOM     15  H4  UNL     1     -13.905 -15.010 -17.465  1.00  0.00     0.179 HD
BRANCH  14  16
HETATM   16  S3  UNL     1     -14.223 -12.639 -17.350  1.00  0.00     0.263 S 
HETATM   17  O6  UNL     1     -14.242 -11.865 -16.062  1.00  0.00    -0.200 OA
HETATM   18  O7  UNL     1     -15.661 -12.876 -17.784  1.00  0.00    -0.200 OA
BRANCH  16  19
HETATM   19  C19 UNL     1     -13.482 -11.680 -18.593  1.00  0.00     0.082 A 
HETATM   20  C20 UNL     1     -14.179 -11.208 -19.698  1.00  0.00     0.025 A 
HETATM   21  C21 UNL     1     -13.531 -10.453 -20.640  1.00  0.00     0.004 A 
HETATM   22  C22 UNL     1     -12.190 -10.129 -20.546  1.00  0.00     0.036 A 
HETATM   23  C23 UNL     1     -11.493 -10.589 -19.459  1.00  0.00     0.104 A 
HETATM   24  C24 UNL     1     -12.140 -11.354 -18.500  1.00  0.00     0.061 A 
BRANCH  23  25
HETATM   25  N5  UNL     1     -10.106 -10.298 -19.283  1.00  0.00    -0.116 N 
HETATM   26  O8  UNL     1      -9.661  -9.143 -19.298  1.00  0.00    -0.532 OA
HETATM   27  O9  UNL     1      -9.251 -11.342 -19.093  1.00  0.00    -0.532 OA
ENDBRANCH  23  25
ENDBRANCH  16  19
ENDBRANCH  14  16
ENDBRANCH  10  14
ENDBRANCH   3   5
BRANCH   1  28
HETATM   28  C10 UNL     1     -13.099 -16.023 -19.855  1.00  0.00     0.151 A 
HETATM   29  S2  UNL     1     -14.230 -17.235 -20.187  1.00  0.00    -0.063 SA
HETATM   30  C9  UNL     1     -15.335 -16.314 -21.093  1.00  0.00     0.082 A 
HETATM   31  C8  UNL     1     -14.747 -15.037 -21.098  1.00  0.00     0.041 A 
HETATM   32  N6  UNL     1     -13.613 -14.948 -20.454  1.00  0.00    -0.336 N 
ATOM     33  H6  UNL     1     -13.120 -14.057 -20.410  1.00  0.00     0.168 HD
BRANCH  31  34
HETATM   34  C7  UNL     1     -15.431 -13.958 -21.822  1.00  0.00     0.042 C 
HETATM   35  C6  UNL     1     -15.115 -13.213 -22.809  1.00  0.00     0.116 C 
BRANCH  35  36
HETATM   36  S1  UNL     1     -13.750 -13.050 -23.822  1.00  0.00     0.199 S 
HETATM   37  O1  UNL     1     -13.414 -14.290 -24.592  1.00  0.00    -0.218 OA
HETATM   38  O2  UNL     1     -12.518 -12.601 -23.083  1.00  0.00    -0.218 OA
BRANCH  36  39
HETATM   39  C5  UNL     1     -14.019 -11.739 -25.024  1.00  0.00     0.095 A 
HETATM   40  C4  UNL     1     -13.393 -11.783 -26.243  1.00  0.00     0.131 A 
HETATM   41  N2  UNL     1     -13.600 -10.775 -27.140  1.00  0.00    -0.200 N 
HETATM   42  C3  UNL     1     -14.400  -9.731 -26.875  1.00  0.00     0.679 A 
ATOM     43  H2  UNL     1     -13.131 -10.818 -28.045  1.00  0.00     0.183 HD
HETATM   44  N7  UNL     1     -15.010  -9.694 -25.678  1.00  0.00    -0.200 N 
HETATM   45  C25 UNL     1     -14.838 -10.676 -24.746  1.00  0.00     0.131 A 
ATOM     46  H7  UNL     1     -15.622  -8.908 -25.460  1.00  0.00     0.183 HD
BRANCH  42  47
HETATM   47  N1  UNL     1     -14.582  -8.703 -27.847  1.00  0.00    -0.226 N 
HETATM   48  C1  UNL     1     -13.432  -7.949 -28.301  1.00  0.00     0.168 C 
HETATM   49  C2  UNL     1     -15.873  -8.372 -28.405  1.00  0.00     0.168 C 
ENDBRANCH  42  47
ENDBRANCH  36  39
ENDBRANCH  35  36
ENDBRANCH  31  34
ENDBRANCH   1  28
TORSDOF 11
ENDMDL
