MODEL 1
REMARK VINA RESULT: -9.882890949      0.000      0.000
REMARK  12 active torsions:
REMARK  status: ('A' for Active; 'I' for Inactive)
REMARK    1  A    between atoms: C1_2  and  C2_3 
REMARK       I    between atoms: C1_2  and  N3_20 
REMARK    2  A    between atoms: C2_3  and  C3_4 
REMARK    3  A    between atoms: C7_8  and  C8_9 
REMARK    4  A    between atoms: C8_9  and  C9_10 
REMARK    5  A    between atoms: N3_20  and  C13_22 
REMARK    6  A    between atoms: C16_25  and  C17_26 
REMARK    7  A    between atoms: C17_26  and  C18_27 
REMARK    8  A    between atoms: C18_27  and  C19_28 
REMARK    9  A    between atoms: C19_28  and  C20_29 
REMARK   10  A    between atoms: C20_29  and  C21_30 
REMARK   11  A    between atoms: C23_36  and  C24_37 
REMARK   12  A    between atoms: C28_44  and  C29_45 
ROOT
HETATM    1  C17 UNL     1      -7.952 -12.342 -17.220  1.00  0.00     0.027 C 
ENDROOT
BRANCH   1   2
HETATM    2  C16 UNL     1      -9.021 -11.720 -17.963  1.00  0.00     0.048 A 
HETATM    3  C15 UNL     1      -8.965 -10.376 -18.298  1.00  0.00     0.035 A 
HETATM    4  C14 UNL     1      -9.929  -9.825 -19.076  1.00  0.00     0.052 A 
HETATM    5  C13 UNL     1     -10.972 -10.608 -19.540  1.00  0.00     0.122 A 
HETATM    6  N12 UNL     1     -11.009 -11.894 -19.207  1.00  0.00    -0.285 N 
HETATM    7  N11 UNL     1     -10.074 -12.427 -18.451  1.00  0.00    -0.299 N 
ATOM      8  H12 UNL     1     -11.776 -12.476 -19.543  1.00  0.00     0.188 HD
ATOM      9  H11 UNL     1     -10.143 -13.418 -18.221  1.00  0.00     0.187 HD
BRANCH   5  10
HETATM   10  N3  UNL     1     -11.892 -10.122 -20.278  1.00  0.00    -0.312 N 
HETATM   11  C1  UNL     1     -13.131  -9.696 -19.733  1.00  0.00     0.227 C 
HETATM   12  O1  UNL     1     -13.271  -8.494 -19.435  1.00  0.00    -0.273 OA
ATOM     13  H3  UNL     1     -11.734 -10.038 -21.282  1.00  0.00     0.170 HD
BRANCH  11  14
HETATM   14  C2  UNL     1     -14.250 -10.681 -19.523  1.00  0.00     0.141 C 
BRANCH  14  15
HETATM   15  C3  UNL     1     -14.553 -11.270 -20.848  1.00  0.00    -0.049 A 
HETATM   16  C4  UNL     1     -14.861 -12.632 -20.850  1.00  0.00     0.007 A 
HETATM   17  C5  UNL     1     -15.169 -13.253 -22.038  1.00  0.00     0.001 A 
HETATM   18  C6  UNL     1     -15.172 -12.537 -23.226  1.00  0.00     0.007 A 
HETATM   19  C7  UNL     1     -14.868 -11.180 -23.250  1.00  0.00    -0.055 A 
HETATM   20  C12 UNL     1     -14.564 -10.589 -22.036  1.00  0.00     0.014 A 
BRANCH  19  21
HETATM   21  C8  UNL     1     -14.891 -10.463 -24.547  1.00  0.00     0.073 C 
BRANCH  21  22
HETATM   22  C9  UNL     1     -14.141 -11.151 -25.643  1.00  0.00     0.183 C 
HETATM   23  N1  UNL     1     -12.792 -11.489 -25.356  1.00  0.00    -0.329 N 
HETATM   24  C10 UNL     1     -11.988 -10.530 -26.023  1.00  0.00     0.323 C 
ATOM     25  H1  UNL     1     -12.467 -12.268 -24.784  1.00  0.00     0.165 HD
HETATM   26  O2  UNL     1     -10.772 -10.332 -25.866  1.00  0.00    -0.247 OA
HETATM   27  N2  UNL     1     -12.791  -9.789 -26.941  1.00  0.00    -0.278 N 
HETATM   28  C11 UNL     1     -14.100 -10.279 -26.855  1.00  0.00     0.248 C 
ATOM     29  H2  UNL     1     -12.469  -9.037 -27.550  1.00  0.00     0.173 HD
HETATM   30  O3  UNL     1     -15.076 -10.071 -27.595  1.00  0.00    -0.271 OA
ENDBRANCH  21  22
ENDBRANCH  19  21
ENDBRANCH  14  15
ENDBRANCH  11  14
ENDBRANCH   5  10
ENDBRANCH   1   2
BRANCH   1  31
HETATM   31  C18 UNL     1      -7.976 -12.526 -15.781  1.00  0.00    -0.024 C 
BRANCH  31  32
HETATM   32  C19 UNL     1      -8.171 -13.790 -15.078  1.00  0.00     0.035 C 
BRANCH  32  33
HETATM   33  C20 UNL     1      -9.561 -14.269 -14.921  1.00  0.00     0.084 C 
BRANCH  33  34
HETATM   34  C21 UNL     1     -10.144 -14.839 -16.173  1.00  0.00     0.120 A 
HETATM   35  N4  UNL     1      -9.477 -15.629 -17.028  1.00  0.00    -0.286 N 
HETATM   36  N5  UNL     1     -10.249 -15.940 -18.038  1.00  0.00    -0.281 N 
ATOM     37  H4  UNL     1      -8.514 -15.940 -16.908  1.00  0.00     0.188 HD
HETATM   38  C22 UNL     1     -11.440 -15.358 -17.862  1.00  0.00     0.172 A 
ATOM     39  H5  UNL     1      -9.986 -16.529 -18.828  1.00  0.00     0.188 HD
HETATM   40  C23 UNL     1     -12.580 -15.329 -18.572  1.00  0.00     0.099 A 
HETATM   41  N10 UNL     1     -11.368 -14.664 -16.681  1.00  0.00    -0.221 N 
HETATM   42  N6  UNL     1     -13.660 -14.632 -18.144  1.00  0.00    -0.334 N 
HETATM   43  C28 UNL     1     -13.601 -13.952 -16.992  1.00  0.00     0.166 A 
ATOM     44  H6  UNL     1     -14.516 -14.624 -18.699  1.00  0.00     0.168 HD
HETATM   45  N9  UNL     1     -12.429 -14.007 -16.307  1.00  0.00    -0.273 N 
ATOM     46  H9  UNL     1     -12.376 -13.492 -15.428  1.00  0.00     0.189 HD
BRANCH  40  47
HETATM   47  C24 UNL     1     -12.730 -16.027 -19.857  1.00  0.00     0.035 A 
HETATM   48  C25 UNL     1     -12.406 -15.667 -21.128  1.00  0.00     0.022 A 
HETATM   49  C26 UNL     1     -12.676 -16.522 -22.125  1.00  0.00     0.008 A 
HETATM   50  C27 UNL     1     -13.266 -17.713 -21.791  1.00  0.00     0.050 A 
HETATM   51  S1  UNL     1     -13.422 -17.600 -20.100  1.00  0.00    -0.100 SA
ENDBRANCH  40  47
BRANCH  43  52
HETATM   52  C29 UNL     1     -14.710 -13.168 -16.486  1.00  0.00     0.151 A 
HETATM   53  N7  UNL     1     -14.488 -12.006 -15.869  1.00  0.00    -0.349 N 
HETATM   54  C30 UNL     1     -15.439 -11.203 -15.380  1.00  0.00     0.091 A 
ATOM     55  H7  UNL     1     -13.519 -11.707 -15.762  1.00  0.00     0.167 HD
HETATM   56  C31 UNL     1     -16.758 -11.617 -15.529  1.00  0.00     0.034 A 
HETATM   57  C32 UNL     1     -17.014 -12.817 -16.164  1.00  0.00     0.091 A 
HETATM   58  N8  UNL     1     -15.977 -13.580 -16.636  1.00  0.00    -0.349 N 
ATOM     59  H8  UNL     1     -16.171 -14.467 -17.104  1.00  0.00     0.167 HD
ENDBRANCH  43  52
ENDBRANCH  33  34
ENDBRANCH  32  33
ENDBRANCH  31  32
ENDBRANCH   1  31
TORSDOF 12
ENDMDL
MODEL 2
REMARK VINA RESULT: -9.408623820      1.959      4.378
REMARK  12 active torsions:
REMARK  status: ('A' for Active; 'I' for Inactive)
REMARK    1  A    between atoms: C1_2  and  C2_3 
REMARK       I    between atoms: C1_2  and  N3_20 
REMARK    2  A    between atoms: C2_3  and  C3_4 
REMARK    3  A    between atoms: C7_8  and  C8_9 
REMARK    4  A    between atoms: C8_9  and  C9_10 
REMARK    5  A    between atoms: N3_20  and  C13_22 
REMARK    6  A    between atoms: C16_25  and  C17_26 
REMARK    7  A    between atoms: C17_26  and  C18_27 
REMARK    8  A    between atoms: C18_27  and  C19_28 
REMARK    9  A    between atoms: C19_28  and  C20_29 
REMARK   10  A    between atoms: C20_29  and  C21_30 
REMARK   11  A    between atoms: C23_36  and  C24_37 
REMARK   12  A    between atoms: C28_44  and  C29_45 
ROOT
HETATM    1  C17 UNL     1     -13.085 -17.099 -21.784  1.00  0.00     0.027 C 
ENDROOT
BRANCH   1   2
HETATM    2  C16 UNL     1     -12.637 -15.834 -21.253  1.00  0.00     0.048 A 
HETATM    3  C15 UNL     1     -13.542 -14.915 -20.748  1.00  0.00     0.035 A 
HETATM    4  C14 UNL     1     -13.104 -13.771 -20.168  1.00  0.00     0.052 A 
HETATM    5  C13 UNL     1     -11.746 -13.521 -20.076  1.00  0.00     0.122 A 
HETATM    6  N12 UNL     1     -10.892 -14.414 -20.567  1.00  0.00    -0.285 N 
HETATM    7  N11 UNL     1     -11.320 -15.523 -21.131  1.00  0.00    -0.299 N 
ATOM      8  H12 UNL     1      -9.890 -14.236 -20.505  1.00  0.00     0.188 HD
ATOM      9  H11 UNL     1     -10.629 -16.180 -21.494  1.00  0.00     0.187 HD
BRANCH   5  10
HETATM   10  N3  UNL     1     -11.299 -12.458 -19.531  1.00  0.00    -0.312 N 
HETATM   11  C1  UNL     1     -12.103 -11.294 -19.409  1.00  0.00     0.227 C 
HETATM   12  O1  UNL     1     -12.732 -11.111 -18.348  1.00  0.00    -0.273 OA
ATOM     13  H3  UNL     1     -10.343 -12.443 -19.175  1.00  0.00     0.170 HD
BRANCH  11  14
HETATM   14  C2  UNL     1     -12.188 -10.306 -20.541  1.00  0.00     0.141 C 
BRANCH  14  15
HETATM   15  C3  UNL     1     -13.261 -10.782 -21.443  1.00  0.00    -0.049 A 
HETATM   16  C4  UNL     1     -14.545 -10.814 -20.894  1.00  0.00     0.007 A 
HETATM   17  C5  UNL     1     -15.601 -11.231 -21.671  1.00  0.00     0.001 A 
HETATM   18  C6  UNL     1     -15.397 -11.619 -22.987  1.00  0.00     0.007 A 
HETATM   19  C7  UNL     1     -14.128 -11.596 -23.556  1.00  0.00    -0.055 A 
HETATM   20  C12 UNL     1     -13.090 -11.170 -22.744  1.00  0.00     0.014 A 
BRANCH  19  21
HETATM   21  C8  UNL     1     -13.968 -12.018 -24.968  1.00  0.00     0.073 C 
BRANCH  21  22
HETATM   22  C9  UNL     1     -14.543 -11.063 -25.963  1.00  0.00     0.183 C 
HETATM   23  N1  UNL     1     -15.715 -11.498 -26.636  1.00  0.00    -0.329 N 
HETATM   24  C10 UNL     1     -15.307 -11.899 -27.934  1.00  0.00     0.323 C 
ATOM     25  H1  UNL     1     -16.663 -11.517 -26.261  1.00  0.00     0.165 HD
HETATM   26  O2  UNL     1     -15.974 -12.536 -28.766  1.00  0.00    -0.247 OA
HETATM   27  N2  UNL     1     -13.972 -11.454 -28.173  1.00  0.00    -0.278 N 
HETATM   28  C11 UNL     1     -13.538 -10.773 -27.029  1.00  0.00     0.248 C 
ATOM     29  H2  UNL     1     -13.432 -11.605 -29.024  1.00  0.00     0.173 HD
HETATM   30  O3  UNL     1     -12.534 -10.060 -26.863  1.00  0.00    -0.271 OA
ENDBRANCH  21  22
ENDBRANCH  19  21
ENDBRANCH  14  15
ENDBRANCH  11  14
ENDBRANCH   5  10
ENDBRANCH   1   2
BRANCH   1  31
HETATM   31  C18 UNL     1     -13.665 -18.151 -20.970  1.00  0.00    -0.024 C 
BRANCH  31  32
HETATM   32  C19 UNL     1     -13.081 -18.728 -19.763  1.00  0.00     0.035 C 
BRANCH  32  33
HETATM   33  C20 UNL     1     -13.420 -18.085 -18.475  1.00  0.00     0.084 C 
BRANCH  33  34
HETATM   34  C21 UNL     1     -12.359 -17.163 -17.968  1.00  0.00     0.120 A 
HETATM   35  N4  UNL     1     -11.046 -17.435 -17.988  1.00  0.00    -0.286 N 
HETATM   36  N5  UNL     1     -10.380 -16.445 -17.449  1.00  0.00    -0.281 N 
ATOM     37  H4  UNL     1     -10.629 -18.285 -18.366  1.00  0.00     0.188 HD
HETATM   38  C22 UNL     1     -11.249 -15.503 -17.066  1.00  0.00     0.172 A 
ATOM     39  H5  UNL     1      -9.367 -16.399 -17.341  1.00  0.00     0.188 HD
HETATM   40  C23 UNL     1     -11.126 -14.308 -16.466  1.00  0.00     0.099 A 
HETATM   41  N10 UNL     1     -12.499 -15.962 -17.397  1.00  0.00    -0.221 N 
HETATM   42  N6  UNL     1     -12.210 -13.546 -16.184  1.00  0.00    -0.334 N 
HETATM   43  C28 UNL     1     -13.434 -13.983 -16.504  1.00  0.00     0.166 A 
ATOM     44  H6  UNL     1     -12.094 -12.640 -15.728  1.00  0.00     0.168 HD
HETATM   45  N9  UNL     1     -13.513 -15.198 -17.108  1.00  0.00    -0.273 N 
ATOM     46  H9  UNL     1     -14.442 -15.538 -17.356  1.00  0.00     0.189 HD
BRANCH  40  47
HETATM   47  C24 UNL     1      -9.825 -13.756 -16.060  1.00  0.00     0.035 A 
HETATM   48  C25 UNL     1      -8.938 -12.954 -16.707  1.00  0.00     0.022 A 
HETATM   49  C26 UNL     1      -7.804 -12.614 -16.078  1.00  0.00     0.008 A 
HETATM   50  C27 UNL     1      -7.615 -13.103 -14.812  1.00  0.00     0.050 A 
HETATM   51  S1  UNL     1      -9.024 -14.019 -14.543  1.00  0.00    -0.100 SA
ENDBRANCH  40  47
BRANCH  43  52
HETATM   52  C29 UNL     1     -14.638 -13.230 -16.213  1.00  0.00     0.151 A 
HETATM   53  N7  UNL     1     -15.838 -13.801 -16.343  1.00  0.00    -0.349 N 
HETATM   54  C30 UNL     1     -17.005 -13.199 -16.086  1.00  0.00     0.091 A 
ATOM     55  H7  UNL     1     -15.867 -14.769 -16.662  1.00  0.00     0.167 HD
HETATM   56  C31 UNL     1     -16.957 -11.880 -15.651  1.00  0.00     0.034 A 
HETATM   57  C32 UNL     1     -15.726 -11.266 -15.509  1.00  0.00     0.091 A 
HETATM   58  N8  UNL     1     -14.577 -11.957 -15.795  1.00  0.00    -0.349 N 
ATOM     59  H8  UNL     1     -13.670 -11.501 -15.689  1.00  0.00     0.167 HD
ENDBRANCH  43  52
ENDBRANCH  33  34
ENDBRANCH  32  33
ENDBRANCH  31  32
ENDBRANCH   1  31
TORSDOF 12
ENDMDL
MODEL 3
REMARK VINA RESULT: -9.361480505      2.067      3.130
REMARK  12 active torsions:
REMARK  status: ('A' for Active; 'I' for Inactive)
REMARK    1  A    between atoms: C1_2  and  C2_3 
REMARK       I    between atoms: C1_2  and  N3_20 
REMARK    2  A    between atoms: C2_3  and  C3_4 
REMARK    3  A    between atoms: C7_8  and  C8_9 
REMARK    4  A    between atoms: C8_9  and  C9_10 
REMARK    5  A    between atoms: N3_20  and  C13_22 
REMARK    6  A    between atoms: C16_25  and  C17_26 
REMARK    7  A    between atoms: C17_26  and  C18_27 
REMARK    8  A    between atoms: C18_27  and  C19_28 
REMARK    9  A    between atoms: C19_28  and  C20_29 
REMARK   10  A    between atoms: C20_29  and  C21_30 
REMARK   11  A    between atoms: C23_36  and  C24_37 
REMARK   12  A    between atoms: C28_44  and  C29_45 
ROOT
HETATM    1  C17 UNL     1      -9.003 -11.553 -18.621  1.00  0.00     0.027 C 
ENDROOT
BRANCH   1   2
HETATM    2  C16 UNL     1     -10.216 -11.963 -19.285  1.00  0.00     0.048 A 
HETATM    3  C15 UNL     1     -11.403 -11.277 -19.084  1.00  0.00     0.035 A 
HETATM    4  C14 UNL     1     -12.514 -11.613 -19.784  1.00  0.00     0.052 A 
HETATM    5  C13 UNL     1     -12.463 -12.644 -20.705  1.00  0.00     0.122 A 
HETATM    6  N12 UNL     1     -11.316 -13.292 -20.883  1.00  0.00    -0.285 N 
HETATM    7  N11 UNL     1     -10.239 -12.965 -20.202  1.00  0.00    -0.299 N 
ATOM      8  H12 UNL     1     -11.271 -14.055 -21.558  1.00  0.00     0.188 HD
ATOM      9  H11 UNL     1      -9.380 -13.490 -20.371  1.00  0.00     0.187 HD
BRANCH   5  10
HETATM   10  N3  UNL     1     -13.489 -12.983 -21.384  1.00  0.00    -0.312 N 
HETATM   11  C1  UNL     1     -13.632 -12.606 -22.745  1.00  0.00     0.227 C 
HETATM   12  O1  UNL     1     -13.263 -13.406 -23.628  1.00  0.00    -0.273 OA
ATOM     13  H3  UNL     1     -14.221 -13.536 -20.940  1.00  0.00     0.170 HD
BRANCH  11  14
HETATM   14  C2  UNL     1     -14.220 -11.269 -23.107  1.00  0.00     0.141 C 
BRANCH  14  15
HETATM   15  C3  UNL     1     -13.777 -10.969 -24.488  1.00  0.00    -0.049 A 
HETATM   16  C4  UNL     1     -12.419 -10.681 -24.639  1.00  0.00     0.007 A 
HETATM   17  C5  UNL     1     -11.922 -10.405 -25.893  1.00  0.00     0.001 A 
HETATM   18  C6  UNL     1     -12.760 -10.409 -26.998  1.00  0.00     0.007 A 
HETATM   19  C7  UNL     1     -14.116 -10.692 -26.873  1.00  0.00    -0.055 A 
HETATM   20  C12 UNL     1     -14.579 -10.966 -25.597  1.00  0.00     0.014 A 
BRANCH  19  21
HETATM   21  C8  UNL     1     -14.965 -10.686 -28.087  1.00  0.00     0.073 C 
BRANCH  21  22
HETATM   22  C9  UNL     1     -16.314 -11.302 -27.897  1.00  0.00     0.183 C 
HETATM   23  N1  UNL     1     -16.342 -12.718 -27.792  1.00  0.00    -0.329 N 
HETATM   24  C10 UNL     1     -16.796 -13.204 -29.044  1.00  0.00     0.323 C 
ATOM     25  H1  UNL     1     -16.086 -13.274 -26.976  1.00  0.00     0.165 HD
HETATM   26  O2  UNL     1     -16.765 -14.378 -29.448  1.00  0.00    -0.247 OA
HETATM   27  N2  UNL     1     -17.320 -12.123 -29.814  1.00  0.00    -0.278 N 
HETATM   28  C11 UNL     1     -17.197 -10.956 -29.050  1.00  0.00     0.248 C 
ATOM     29  H2  UNL     1     -17.713 -12.189 -30.753  1.00  0.00     0.173 HD
HETATM   30  O3  UNL     1     -17.691  -9.830 -29.235  1.00  0.00    -0.271 OA
ENDBRANCH  21  22
ENDBRANCH  19  21
ENDBRANCH  14  15
ENDBRANCH  11  14
ENDBRANCH   5  10
ENDBRANCH   1   2
BRANCH   1  31
HETATM   31  C18 UNL     1      -8.795 -11.660 -17.189  1.00  0.00    -0.024 C 
BRANCH  31  32
HETATM   32  C19 UNL     1      -8.314 -12.838 -16.475  1.00  0.00     0.035 C 
BRANCH  32  33
HETATM   33  C20 UNL     1      -9.330 -13.707 -15.844  1.00  0.00     0.084 C 
BRANCH  33  34
HETATM   34  C21 UNL     1     -10.077 -14.560 -16.817  1.00  0.00     0.120 A 
HETATM   35  N4  UNL     1      -9.511 -15.488 -17.601  1.00  0.00    -0.286 N 
HETATM   36  N5  UNL     1     -10.423 -16.043 -18.360  1.00  0.00    -0.281 N 
ATOM     37  H4  UNL     1      -8.519 -15.726 -17.606  1.00  0.00     0.188 HD
HETATM   38  C22 UNL     1     -11.606 -15.486 -18.084  1.00  0.00     0.172 A 
ATOM     39  H5  UNL     1     -10.257 -16.779 -19.047  1.00  0.00     0.188 HD
HETATM   40  C23 UNL     1     -12.853 -15.660 -18.553  1.00  0.00     0.099 A 
HETATM   41  N10 UNL     1     -11.383 -14.550 -17.106  1.00  0.00    -0.221 N 
HETATM   42  N6  UNL     1     -13.892 -14.931 -18.081  1.00  0.00    -0.334 N 
HETATM   43  C28 UNL     1     -13.685 -14.016 -17.126  1.00  0.00     0.166 A 
ATOM     44  H6  UNL     1     -14.831 -15.080 -18.451  1.00  0.00     0.168 HD
HETATM   45  N9  UNL     1     -12.410 -13.872 -16.680  1.00  0.00    -0.273 N 
ATOM     46  H9  UNL     1     -12.244 -13.177 -15.953  1.00  0.00     0.189 HD
BRANCH  40  47
HETATM   47  C24 UNL     1     -13.171 -16.627 -19.615  1.00  0.00     0.035 A 
HETATM   48  C25 UNL     1     -13.237 -16.500 -20.967  1.00  0.00     0.022 A 
HETATM   49  C26 UNL     1     -13.570 -17.574 -21.696  1.00  0.00     0.008 A 
HETATM   50  C27 UNL     1     -13.825 -18.739 -21.021  1.00  0.00     0.050 A 
HETATM   51  S1  UNL     1     -13.589 -18.297 -19.394  1.00  0.00    -0.100 SA
ENDBRANCH  40  47
BRANCH  43  52
HETATM   52  C29 UNL     1     -14.747 -13.187 -16.590  1.00  0.00     0.151 A 
HETATM   53  N7  UNL     1     -14.476 -11.972 -16.109  1.00  0.00    -0.349 N 
HETATM   54  C30 UNL     1     -15.382 -11.126 -15.607  1.00  0.00     0.091 A 
ATOM     55  H7  UNL     1     -13.503 -11.665 -16.125  1.00  0.00     0.167 HD
HETATM   56  C31 UNL     1     -16.705 -11.551 -15.588  1.00  0.00     0.034 A 
HETATM   57  C32 UNL     1     -17.012 -12.806 -16.080  1.00  0.00     0.091 A 
HETATM   58  N8  UNL     1     -16.019 -13.611 -16.577  1.00  0.00    -0.349 N 
ATOM     59  H8  UNL     1     -16.250 -14.537 -16.939  1.00  0.00     0.167 HD
ENDBRANCH  43  52
ENDBRANCH  33  34
ENDBRANCH  32  33
ENDBRANCH  31  32
ENDBRANCH   1  31
TORSDOF 12
ENDMDL
MODEL 4
REMARK VINA RESULT: -9.212695968      2.771      7.314
REMARK  12 active torsions:
REMARK  status: ('A' for Active; 'I' for Inactive)
REMARK    1  A    between atoms: C1_2  and  C2_3 
REMARK       I    between atoms: C1_2  and  N3_20 
REMARK    2  A    between atoms: C2_3  and  C3_4 
REMARK    3  A    between atoms: C7_8  and  C8_9 
REMARK    4  A    between atoms: C8_9  and  C9_10 
REMARK    5  A    between atoms: N3_20  and  C13_22 
REMARK    6  A    between atoms: C16_25  and  C17_26 
REMARK    7  A    between atoms: C17_26  and  C18_27 
REMARK    8  A    between atoms: C18_27  and  C19_28 
REMARK    9  A    between atoms: C19_28  and  C20_29 
REMARK   10  A    between atoms: C20_29  and  C21_30 
REMARK   11  A    between atoms: C23_36  and  C24_37 
REMARK   12  A    between atoms: C28_44  and  C29_45 
ROOT
HETATM    1  C17 UNL     1     -16.625 -13.993 -17.569  1.00  0.00     0.027 C 
ENDROOT
BRANCH   1   2
HETATM    2  C16 UNL     1     -15.297 -14.233 -17.058  1.00  0.00     0.048 A 
HETATM    3  C15 UNL     1     -14.791 -15.520 -16.970  1.00  0.00     0.035 A 
HETATM    4  C14 UNL     1     -13.510 -15.726 -16.577  1.00  0.00     0.052 A 
HETATM    5  C13 UNL     1     -12.703 -14.646 -16.265  1.00  0.00     0.122 A 
HETATM    6  N12 UNL     1     -13.205 -13.419 -16.355  1.00  0.00    -0.285 N 
HETATM    7  N11 UNL     1     -14.449 -13.221 -16.735  1.00  0.00    -0.299 N 
ATOM      8  H12 UNL     1     -12.617 -12.619 -16.125  1.00  0.00     0.188 HD
ATOM      9  H11 UNL     1     -14.793 -12.262 -16.789  1.00  0.00     0.187 HD
BRANCH   5  10
HETATM   10  N3  UNL     1     -11.491 -14.804 -15.898  1.00  0.00    -0.312 N 
HETATM   11  C1  UNL     1     -10.491 -13.848 -16.214  1.00  0.00     0.227 C 
HETATM   12  O1  UNL     1     -10.224 -12.964 -15.376  1.00  0.00    -0.273 OA
ATOM     13  H3  UNL     1     -11.235 -15.636 -15.366  1.00  0.00     0.170 HD
BRANCH  11  14
HETATM   14  C2  UNL     1      -9.771 -13.906 -17.534  1.00  0.00     0.141 C 
BRANCH  14  15
HETATM   15  C3  UNL     1      -9.885 -12.560 -18.141  1.00  0.00    -0.049 A 
HETATM   16  C4  UNL     1      -8.810 -11.699 -17.914  1.00  0.00     0.007 A 
HETATM   17  C5  UNL     1      -8.831 -10.434 -18.455  1.00  0.00     0.001 A 
HETATM   18  C6  UNL     1      -9.910 -10.013 -19.219  1.00  0.00     0.007 A 
HETATM   19  C7  UNL     1     -10.992 -10.852 -19.459  1.00  0.00    -0.055 A 
HETATM   20  C12 UNL     1     -10.936 -12.117 -18.899  1.00  0.00     0.014 A 
BRANCH  19  21
HETATM   21  C8  UNL     1     -12.117 -10.352 -20.285  1.00  0.00     0.073 C 
BRANCH  21  22
HETATM   22  C9  UNL     1     -13.132 -11.393 -20.635  1.00  0.00     0.183 C 
HETATM   23  N1  UNL     1     -13.329 -11.628 -22.021  1.00  0.00    -0.329 N 
HETATM   24  C10 UNL     1     -14.540 -10.977 -22.370  1.00  0.00     0.323 C 
ATOM     25  H1  UNL     1     -12.721 -12.161 -22.642  1.00  0.00     0.165 HD
HETATM   26  O2  UNL     1     -14.969 -10.755 -23.514  1.00  0.00    -0.247 OA
HETATM   27  N2  UNL     1     -15.235 -10.595 -21.184  1.00  0.00    -0.278 N 
HETATM   28  C11 UNL     1     -14.466 -11.004 -20.087  1.00  0.00     0.248 C 
ATOM     29  H2  UNL     1     -16.132 -10.111 -21.142  1.00  0.00     0.173 HD
HETATM   30  O3  UNL     1     -14.766 -11.057 -18.882  1.00  0.00    -0.271 OA
ENDBRANCH  21  22
ENDBRANCH  19  21
ENDBRANCH  14  15
ENDBRANCH  11  14
ENDBRANCH   5  10
ENDBRANCH   1   2
BRANCH   1  31
HETATM   31  C18 UNL     1     -17.049 -14.361 -18.907  1.00  0.00    -0.024 C 
BRANCH  31  32
HETATM   32  C19 UNL     1     -16.378 -14.004 -20.152  1.00  0.00     0.035 C 
BRANCH  32  33
HETATM   33  C20 UNL     1     -16.948 -14.543 -21.405  1.00  0.00     0.084 C 
BRANCH  33  34
HETATM   34  C21 UNL     1     -16.003 -15.414 -22.168  1.00  0.00     0.120 A 
HETATM   35  N4  UNL     1     -15.737 -16.693 -21.863  1.00  0.00    -0.286 N 
HETATM   36  N5  UNL     1     -14.852 -17.173 -22.699  1.00  0.00    -0.281 N 
ATOM     37  H4  UNL     1     -16.162 -17.213 -21.095  1.00  0.00     0.188 HD
HETATM   38  C22 UNL     1     -14.521 -16.213 -23.569  1.00  0.00     0.172 A 
ATOM     39  H5  UNL     1     -14.476 -18.121 -22.688  1.00  0.00     0.188 HD
HETATM   40  C23 UNL     1     -13.676 -16.149 -24.611  1.00  0.00     0.099 A 
HETATM   41  N10 UNL     1     -15.253 -15.104 -23.230  1.00  0.00    -0.221 N 
HETATM   42  N6  UNL     1     -13.533 -15.012 -25.334  1.00  0.00    -0.334 N 
HETATM   43  C28 UNL     1     -14.244 -13.924 -25.013  1.00  0.00     0.166 A 
ATOM     44  H6  UNL     1     -12.886 -14.984 -26.122  1.00  0.00     0.168 HD
HETATM   45  N9  UNL     1     -15.086 -14.033 -23.952  1.00  0.00    -0.273 N 
ATOM     46  H9  UNL     1     -15.631 -13.208 -23.700  1.00  0.00     0.189 HD
BRANCH  40  47
HETATM   47  C24 UNL     1     -12.840 -17.286 -25.025  1.00  0.00     0.035 A 
HETATM   48  C25 UNL     1     -12.698 -17.920 -26.220  1.00  0.00     0.022 A 
HETATM   49  C26 UNL     1     -11.853 -18.957 -26.298  1.00  0.00     0.008 A 
HETATM   50  C27 UNL     1     -11.181 -19.310 -25.157  1.00  0.00     0.050 A 
HETATM   51  S1  UNL     1     -11.752 -18.184 -24.015  1.00  0.00    -0.100 SA
ENDBRANCH  40  47
BRANCH  43  52
HETATM   52  C29 UNL     1     -14.126 -12.669 -25.729  1.00  0.00     0.151 A 
HETATM   53  N7  UNL     1     -12.980 -11.986 -25.708  1.00  0.00    -0.349 N 
HETATM   54  C30 UNL     1     -12.764 -10.830 -26.346  1.00  0.00     0.091 A 
ATOM     55  H7  UNL     1     -12.210 -12.375 -25.165  1.00  0.00     0.167 HD
HETATM   56  C31 UNL     1     -13.818 -10.306 -27.084  1.00  0.00     0.034 A 
HETATM   57  C32 UNL     1     -15.017 -10.994 -27.121  1.00  0.00     0.091 A 
HETATM   58  N8  UNL     1     -15.152 -12.175 -26.437  1.00  0.00    -0.349 N 
ATOM     59  H8  UNL     1     -16.039 -12.679 -26.467  1.00  0.00     0.167 HD
ENDBRANCH  43  52
ENDBRANCH  33  34
ENDBRANCH  32  33
ENDBRANCH  31  32
ENDBRANCH   1  31
TORSDOF 12
ENDMDL
MODEL 5
REMARK VINA RESULT: -9.211139130      3.405      8.007
REMARK  12 active torsions:
REMARK  status: ('A' for Active; 'I' for Inactive)
REMARK    1  A    between atoms: C1_2  and  C2_3 
REMARK       I    between atoms: C1_2  and  N3_20 
REMARK    2  A    between atoms: C2_3  and  C3_4 
REMARK    3  A    between atoms: C7_8  and  C8_9 
REMARK    4  A    between atoms: C8_9  and  C9_10 
REMARK    5  A    between atoms: N3_20  and  C13_22 
REMARK    6  A    between atoms: C16_25  and  C17_26 
REMARK    7  A    between atoms: C17_26  and  C18_27 
REMARK    8  A    between atoms: C18_27  and  C19_28 
REMARK    9  A    between atoms: C19_28  and  C20_29 
REMARK   10  A    between atoms: C20_29  and  C21_30 
REMARK   11  A    between atoms: C23_36  and  C24_37 
REMARK   12  A    between atoms: C28_44  and  C29_45 
ROOT
HETATM    1  C17 UNL     1     -16.631 -13.348 -15.867  1.00  0.00     0.027 C 
ENDROOT
BRANCH   1   2
HETATM    2  C16 UNL     1     -16.147 -14.473 -16.630  1.00  0.00     0.048 A 
HETATM    3  C15 UNL     1     -16.933 -15.056 -17.612  1.00  0.00     0.035 A 
HETATM    4  C14 UNL     1     -16.433 -16.050 -18.385  1.00  0.00     0.052 A 
HETATM    5  C13 UNL     1     -15.133 -16.484 -18.196  1.00  0.00     0.122 A 
HETATM    6  N12 UNL     1     -14.395 -15.914 -17.249  1.00  0.00    -0.285 N 
HETATM    7  N11 UNL     1     -14.882 -14.950 -16.499  1.00  0.00    -0.299 N 
ATOM      8  H12 UNL     1     -13.437 -16.229 -17.103  1.00  0.00     0.188 HD
ATOM      9  H11 UNL     1     -14.280 -14.541 -15.784  1.00  0.00     0.187 HD
BRANCH   5  10
HETATM   10  N3  UNL     1     -14.630 -17.414 -18.911  1.00  0.00    -0.312 N 
HETATM   11  C1  UNL     1     -13.268 -17.386 -19.310  1.00  0.00     0.227 C 
HETATM   12  O1  UNL     1     -12.430 -17.995 -18.616  1.00  0.00    -0.273 OA
ATOM     13  H3  UNL     1     -15.219 -18.194 -19.201  1.00  0.00     0.170 HD
BRANCH  11  14
HETATM   14  C2  UNL     1     -12.853 -16.637 -20.547  1.00  0.00     0.141 C 
BRANCH  14  15
HETATM   15  C3  UNL     1     -12.156 -15.413 -20.090  1.00  0.00    -0.049 A 
HETATM   16  C4  UNL     1     -11.955 -14.431 -21.062  1.00  0.00     0.007 A 
HETATM   17  C5  UNL     1     -11.328 -13.256 -20.717  1.00  0.00     0.001 A 
HETATM   18  C6  UNL     1     -10.895 -13.046 -19.415  1.00  0.00     0.007 A 
HETATM   19  C7  UNL     1     -11.083 -14.009 -18.430  1.00  0.00    -0.055 A 
HETATM   20  C12 UNL     1     -11.719 -15.178 -18.815  1.00  0.00     0.014 A 
BRANCH  19  21
HETATM   21  C8  UNL     1     -10.605 -13.731 -17.055  1.00  0.00     0.073 C 
BRANCH  21  22
HETATM   22  C9  UNL     1      -9.116 -13.696 -16.917  1.00  0.00     0.183 C 
HETATM   23  N1  UNL     1      -8.543 -14.709 -16.105  1.00  0.00    -0.329 N 
HETATM   24  C10 UNL     1      -8.219 -14.096 -14.868  1.00  0.00     0.323 C 
ATOM     25  H1  UNL     1      -8.394 -15.685 -16.360  1.00  0.00     0.165 HD
HETATM   26  O2  UNL     1      -7.898 -14.664 -13.811  1.00  0.00    -0.247 OA
HETATM   27  N2  UNL     1      -8.311 -12.678 -15.000  1.00  0.00    -0.278 N 
HETATM   28  C11 UNL     1      -8.692 -12.396 -16.317  1.00  0.00     0.248 C 
ATOM     29  H2  UNL     1      -8.132 -11.993 -14.266  1.00  0.00     0.173 HD
HETATM   30  O3  UNL     1      -8.703 -11.312 -16.926  1.00  0.00    -0.271 OA
ENDBRANCH  21  22
ENDBRANCH  19  21
ENDBRANCH  14  15
ENDBRANCH  11  14
ENDBRANCH   5  10
ENDBRANCH   1   2
BRANCH   1  31
HETATM   31  C18 UNL     1     -16.193 -11.982 -16.084  1.00  0.00    -0.024 C 
BRANCH  31  32
HETATM   32  C19 UNL     1     -15.851 -11.381 -17.369  1.00  0.00     0.035 C 
BRANCH  32  33
HETATM   33  C20 UNL     1     -14.484 -11.617 -17.883  1.00  0.00     0.084 C 
BRANCH  33  34
HETATM   34  C21 UNL     1     -14.331 -11.316 -19.338  1.00  0.00     0.120 A 
HETATM   35  N4  UNL     1     -13.717 -10.229 -19.827  1.00  0.00    -0.286 N 
HETATM   36  N5  UNL     1     -13.772 -10.240 -21.135  1.00  0.00    -0.281 N 
ATOM     37  H4  UNL     1     -13.273  -9.504 -19.264  1.00  0.00     0.188 HD
HETATM   38  C22 UNL     1     -14.426 -11.338 -21.527  1.00  0.00     0.172 A 
ATOM     39  H5  UNL     1     -13.381  -9.528 -21.752  1.00  0.00     0.188 HD
HETATM   40  C23 UNL     1     -14.772 -11.842 -22.723  1.00  0.00     0.099 A 
HETATM   41  N10 UNL     1     -14.776 -12.016 -20.387  1.00  0.00    -0.221 N 
HETATM   42  N6  UNL     1     -15.458 -13.006 -22.826  1.00  0.00    -0.334 N 
HETATM   43  C28 UNL     1     -15.804 -13.676 -21.720  1.00  0.00     0.166 A 
ATOM     44  H6  UNL     1     -15.711 -13.371 -23.745  1.00  0.00     0.168 HD
HETATM   45  N9  UNL     1     -15.434 -13.131 -20.532  1.00  0.00    -0.273 N 
ATOM     46  H9  UNL     1     -15.694 -13.635 -19.684  1.00  0.00     0.189 HD
BRANCH  40  47
HETATM   47  C24 UNL     1     -14.454 -11.166 -23.989  1.00  0.00     0.035 A 
HETATM   48  C25 UNL     1     -15.236 -10.509 -24.888  1.00  0.00     0.022 A 
HETATM   49  C26 UNL     1     -14.659  -9.992 -25.981  1.00  0.00     0.008 A 
HETATM   50  C27 UNL     1     -13.305 -10.161 -26.120  1.00  0.00     0.050 A 
HETATM   51  S1  UNL     1     -12.886 -11.035 -24.721  1.00  0.00    -0.100 SA
ENDBRANCH  40  47
BRANCH  43  52
HETATM   52  C29 UNL     1     -16.555 -14.915 -21.755  1.00  0.00     0.151 A 
HETATM   53  N7  UNL     1     -17.843 -14.933 -21.404  1.00  0.00    -0.349 N 
HETATM   54  C30 UNL     1     -18.626 -16.017 -21.416  1.00  0.00     0.091 A 
ATOM     55  H7  UNL     1     -18.261 -14.053 -21.104  1.00  0.00     0.167 HD
HETATM   56  C31 UNL     1     -18.049 -17.213 -21.827  1.00  0.00     0.034 A 
HETATM   57  C32 UNL     1     -16.717 -17.221 -22.196  1.00  0.00     0.091 A 
HETATM   58  N8  UNL     1     -15.985 -16.062 -22.153  1.00  0.00    -0.349 N 
ATOM     59  H8  UNL     1     -15.001 -16.072 -22.426  1.00  0.00     0.167 HD
ENDBRANCH  43  52
ENDBRANCH  33  34
ENDBRANCH  32  33
ENDBRANCH  31  32
ENDBRANCH   1  31
TORSDOF 12
ENDMDL
