MODEL 1
REMARK VINA RESULT: -8.311625847      0.000      0.000
REMARK  6 active torsions:
REMARK  status: ('A' for Active; 'I' for Inactive)
REMARK    1  A    between atoms: C2_2  and  C3_3 
REMARK    2  A    between atoms: C3_3  and  C4_4 
REMARK    3  A    between atoms: C4_4  and  C5_5 
REMARK    4  A    between atoms: C6_6  and  C7_7 
REMARK    5  A    between atoms: C7_7  and  O1_8 
REMARK    6  A    between atoms: N1_23  and  O2_25 
ROOT
HETATM    1  C1  UNL     1     -27.962 -35.061  25.382  1.00  0.00     0.025 C 
HETATM    2  C2  UNL     1     -28.489 -33.643  25.344  1.00  0.00     0.004 C 
HETATM    3  C8  UNL     1     -27.472 -32.821  24.616  1.00  0.00     0.024 C 
HETATM    4  C9  UNL     1     -27.971 -31.451  24.208  1.00  0.00     0.007 C 
HETATM    5  C10 UNL     1     -26.816 -30.579  23.821  1.00  0.00    -0.043 C 
HETATM    6  C11 UNL     1     -26.697 -29.451  24.857  1.00  0.00     0.015 C 
HETATM    7  C12 UNL     1     -25.500 -31.331  23.904  1.00  0.00     0.015 C 
HETATM    8  C13 UNL     1     -26.887 -29.916  22.497  1.00  0.00     0.009 C 
HETATM    9  C14 UNL     1     -27.559 -30.662  21.412  1.00  0.00     0.002 C 
HETATM   10  C15 UNL     1     -28.302 -31.878  21.829  1.00  0.00     0.014 C 
HETATM   11  C16 UNL     1     -28.990 -31.647  23.154  1.00  0.00    -0.012 C 
HETATM   12  C17 UNL     1     -29.916 -30.440  23.018  1.00  0.00     0.021 C 
HETATM   13  C18 UNL     1     -29.871 -32.791  23.471  1.00  0.00    -0.040 A 
HETATM   14  C19 UNL     1     -29.681 -33.670  24.410  1.00  0.00    -0.006 A 
HETATM   15  C20 UNL     1     -30.661 -34.732  24.602  1.00  0.00     0.112 A 
HETATM   16  N1  UNL     1     -30.591 -35.631  25.504  1.00  0.00    -0.265 N 
ATOM     17  H1  UNL     1     -29.801 -35.626  26.150  1.00  0.00     0.194 HD
HETATM   18  C21 UNL     1     -31.853 -34.806  23.730  1.00  0.00     0.201 A 
HETATM   19  O3  UNL     1     -32.712 -35.718  23.878  1.00  0.00    -0.286 OA
HETATM   20  C22 UNL     1     -31.992 -33.797  22.709  1.00  0.00     0.058 A 
HETATM   21  C23 UNL     1     -31.072 -32.863  22.590  1.00  0.00     0.012 A 
ENDROOT
BRANCH   2  22
HETATM   22  C3  UNL     1     -28.857 -33.095  26.643  1.00  0.00    -0.012 C 
BRANCH  22  23
HETATM   23  C4  UNL     1     -28.203 -33.395  27.904  1.00  0.00    -0.003 C 
BRANCH  23  24
HETATM   24  C5  UNL     1     -26.765 -33.357  28.067  1.00  0.00    -0.002 C 
HETATM   25  C6  UNL     1     -26.038 -34.357  28.536  1.00  0.00    -0.001 C 
BRANCH  25  26
HETATM   26  C7  UNL     1     -26.490 -35.684  28.981  1.00  0.00     0.191 C 
BRANCH  26  27
HETATM   27  O1  UNL     1     -26.663 -35.712  30.392  1.00  0.00    -0.397 OA
ATOM     28  H1  UNL     1     -27.586 -35.712  30.619  1.00  0.00     0.209 HD
ENDBRANCH  26  27
ENDBRANCH  25  26
ENDBRANCH  23  24
ENDBRANCH  22  23
ENDBRANCH   2  22
BRANCH  16  29
HETATM   29  O2  UNL     1     -31.539 -36.594  25.627  1.00  0.00    -0.289 OA
ATOM     30  H2  UNL     1     -32.328 -36.455  26.138  1.00  0.00     0.244 HD
ENDBRANCH  16  29
TORSDOF 6
ENDMDL
MODEL 2
REMARK VINA RESULT: -8.297219665      2.476      6.163
REMARK  6 active torsions:
REMARK  status: ('A' for Active; 'I' for Inactive)
REMARK    1  A    between atoms: C2_2  and  C3_3 
REMARK    2  A    between atoms: C3_3  and  C4_4 
REMARK    3  A    between atoms: C4_4  and  C5_5 
REMARK    4  A    between atoms: C6_6  and  C7_7 
REMARK    5  A    between atoms: C7_7  and  O1_8 
REMARK    6  A    between atoms: N1_23  and  O2_25 
ROOT
HETATM    1  C1  UNL     1     -28.451 -32.970  27.166  1.00  0.00     0.025 C 
HETATM    2  C2  UNL     1     -27.276 -33.686  26.534  1.00  0.00     0.004 C 
HETATM    3  C8  UNL     1     -26.039 -32.986  27.001  1.00  0.00     0.024 C 
HETATM    4  C9  UNL     1     -24.763 -33.752  26.726  1.00  0.00     0.007 C 
HETATM    5  C10 UNL     1     -23.578 -32.850  26.887  1.00  0.00    -0.043 C 
HETATM    6  C11 UNL     1     -22.928 -32.660  25.508  1.00  0.00     0.015 C 
HETATM    7  C12 UNL     1     -23.996 -31.457  27.321  1.00  0.00     0.015 C 
HETATM    8  C13 UNL     1     -22.497 -33.311  27.791  1.00  0.00     0.009 C 
HETATM    9  C14 UNL     1     -22.908 -34.099  28.973  1.00  0.00     0.002 C 
HETATM   10  C15 UNL     1     -24.322 -34.550  28.989  1.00  0.00     0.014 C 
HETATM   11  C16 UNL     1     -24.765 -34.945  27.600  1.00  0.00    -0.012 C 
HETATM   12  C17 UNL     1     -23.832 -36.039  27.084  1.00  0.00     0.021 C 
HETATM   13  C18 UNL     1     -26.108 -35.561  27.656  1.00  0.00    -0.040 A 
HETATM   14  C19 UNL     1     -27.211 -35.043  27.204  1.00  0.00    -0.006 A 
HETATM   15  C20 UNL     1     -28.454 -35.794  27.324  1.00  0.00     0.112 A 
HETATM   16  N1  UNL     1     -29.588 -35.395  26.896  1.00  0.00    -0.265 N 
ATOM     17  H1  UNL     1     -29.653 -34.489  26.432  1.00  0.00     0.194 HD
HETATM   18  C21 UNL     1     -28.454 -37.130  27.958  1.00  0.00     0.201 A 
HETATM   19  O3  UNL     1     -29.519 -37.796  28.073  1.00  0.00    -0.286 OA
HETATM   20  C22 UNL     1     -27.192 -37.636  28.437  1.00  0.00     0.058 A 
HETATM   21  C23 UNL     1     -26.104 -36.909  28.296  1.00  0.00     0.012 A 
ENDROOT
BRANCH   2  22
HETATM   22  C3  UNL     1     -27.355 -33.824  25.085  1.00  0.00    -0.012 C 
BRANCH  22  23
HETATM   23  C4  UNL     1     -28.069 -32.934  24.188  1.00  0.00    -0.003 C 
BRANCH  23  24
HETATM   24  C5  UNL     1     -27.560 -31.633  23.807  1.00  0.00    -0.002 C 
HETATM   25  C6  UNL     1     -27.706 -31.094  22.609  1.00  0.00    -0.001 C 
BRANCH  25  26
HETATM   26  C7  UNL     1     -28.387 -31.656  21.432  1.00  0.00     0.191 C 
BRANCH  26  27
HETATM   27  O1  UNL     1     -29.715 -31.158  21.331  1.00  0.00    -0.397 OA
ATOM     28  H1  UNL     1     -29.897 -30.539  22.028  1.00  0.00     0.209 HD
ENDBRANCH  26  27
ENDBRANCH  25  26
ENDBRANCH  23  24
ENDBRANCH  22  23
ENDBRANCH   2  22
BRANCH  16  29
HETATM   29  O2  UNL     1     -30.709 -36.147  27.041  1.00  0.00    -0.289 OA
ATOM     30  H2  UNL     1     -31.549 -35.754  27.249  1.00  0.00     0.244 HD
ENDBRANCH  16  29
TORSDOF 6
ENDMDL
MODEL 3
REMARK VINA RESULT: -8.144039745      5.203      9.516
REMARK  6 active torsions:
REMARK  status: ('A' for Active; 'I' for Inactive)
REMARK    1  A    between atoms: C2_2  and  C3_3 
REMARK    2  A    between atoms: C3_3  and  C4_4 
REMARK    3  A    between atoms: C4_4  and  C5_5 
REMARK    4  A    between atoms: C6_6  and  C7_7 
REMARK    5  A    between atoms: C7_7  and  O1_8 
REMARK    6  A    between atoms: N1_23  and  O2_25 
ROOT
HETATM    1  C1  UNL     1     -21.524 -34.767  25.517  1.00  0.00     0.025 C 
HETATM    2  C2  UNL     1     -22.092 -34.507  26.896  1.00  0.00     0.004 C 
HETATM    3  C8  UNL     1     -23.448 -35.141  26.932  1.00  0.00     0.024 C 
HETATM    4  C9  UNL     1     -24.032 -35.255  28.324  1.00  0.00     0.007 C 
HETATM    5  C10 UNL     1     -25.497 -35.554  28.242  1.00  0.00    -0.043 C 
HETATM    6  C11 UNL     1     -26.267 -34.340  28.783  1.00  0.00     0.015 C 
HETATM    7  C12 UNL     1     -25.955 -35.702  26.803  1.00  0.00     0.015 C 
HETATM    8  C13 UNL     1     -25.989 -36.726  29.007  1.00  0.00     0.009 C 
HETATM    9  C14 UNL     1     -25.072 -37.880  29.121  1.00  0.00     0.002 C 
HETATM   10  C15 UNL     1     -23.677 -37.643  28.674  1.00  0.00     0.014 C 
HETATM   11  C16 UNL     1     -23.228 -36.253  29.062  1.00  0.00    -0.012 C 
HETATM   12  C17 UNL     1     -23.368 -36.101  30.575  1.00  0.00     0.021 C 
HETATM   13  C18 UNL     1     -21.786 -36.091  28.776  1.00  0.00    -0.040 A 
HETATM   14  C19 UNL     1     -21.265 -35.345  27.849  1.00  0.00    -0.006 A 
HETATM   15  C20 UNL     1     -19.815 -35.284  27.712  1.00  0.00     0.112 A 
HETATM   16  N1  UNL     1     -19.196 -34.569  26.856  1.00  0.00    -0.265 N 
ATOM     17  H1  UNL     1     -19.733 -33.990  26.210  1.00  0.00     0.194 HD
HETATM   18  C21 UNL     1     -18.953 -36.070  28.620  1.00  0.00     0.201 A 
HETATM   19  O3  UNL     1     -17.696 -36.033  28.517  1.00  0.00    -0.286 OA
HETATM   20  C22 UNL     1     -19.604 -36.876  29.621  1.00  0.00     0.058 A 
HETATM   21  C23 UNL     1     -20.919 -36.886  29.694  1.00  0.00     0.012 A 
ENDROOT
BRANCH   2  22
HETATM   22  C3  UNL     1     -22.094 -33.107  27.300  1.00  0.00    -0.012 C 
BRANCH  22  23
HETATM   23  C4  UNL     1     -23.192 -32.175  27.117  1.00  0.00    -0.003 C 
BRANCH  23  24
HETATM   24  C5  UNL     1     -23.495 -31.564  25.840  1.00  0.00    -0.002 C 
HETATM   25  C6  UNL     1     -24.684 -31.587  25.262  1.00  0.00    -0.001 C 
BRANCH  25  26
HETATM   26  C7  UNL     1     -25.926 -32.206  25.753  1.00  0.00     0.191 C 
BRANCH  26  27
HETATM   27  O1  UNL     1     -26.869 -32.351  24.699  1.00  0.00    -0.397 OA
ATOM     28  H1  UNL     1     -27.375 -33.148  24.806  1.00  0.00     0.209 HD
ENDBRANCH  26  27
ENDBRANCH  25  26
ENDBRANCH  23  24
ENDBRANCH  22  23
ENDBRANCH   2  22
BRANCH  16  29
HETATM   29  O2  UNL     1     -17.841 -34.560  26.782  1.00  0.00    -0.289 OA
ATOM     30  H2  UNL     1     -17.299 -34.442  27.554  1.00  0.00     0.244 HD
ENDBRANCH  16  29
TORSDOF 6
ENDMDL
MODEL 4
REMARK VINA RESULT: -8.103803781      3.859      6.650
REMARK  6 active torsions:
REMARK  status: ('A' for Active; 'I' for Inactive)
REMARK    1  A    between atoms: C2_2  and  C3_3 
REMARK    2  A    between atoms: C3_3  and  C4_4 
REMARK    3  A    between atoms: C4_4  and  C5_5 
REMARK    4  A    between atoms: C6_6  and  C7_7 
REMARK    5  A    between atoms: C7_7  and  O1_8 
REMARK    6  A    between atoms: N1_23  and  O2_25 
ROOT
HETATM    1  C1  UNL     1     -26.597 -35.307  26.185  1.00  0.00     0.025 C 
HETATM    2  C2  UNL     1     -25.616 -34.688  27.158  1.00  0.00     0.004 C 
HETATM    3  C8  UNL     1     -24.417 -35.582  27.192  1.00  0.00     0.024 C 
HETATM    4  C9  UNL     1     -23.212 -34.963  27.866  1.00  0.00     0.007 C 
HETATM    5  C10 UNL     1     -22.197 -36.020  28.177  1.00  0.00    -0.043 C 
HETATM    6  C11 UNL     1     -22.098 -36.158  29.704  1.00  0.00     0.015 C 
HETATM    7  C12 UNL     1     -22.649 -37.384  27.687  1.00  0.00     0.015 C 
HETATM    8  C13 UNL     1     -20.814 -35.790  27.694  1.00  0.00     0.009 C 
HETATM    9  C14 UNL     1     -20.667 -35.074  26.408  1.00  0.00     0.002 C 
HETATM   10  C15 UNL     1     -21.903 -34.450  25.872  1.00  0.00     0.014 C 
HETATM   11  C16 UNL     1     -22.730 -33.869  26.994  1.00  0.00    -0.012 C 
HETATM   12  C17 UNL     1     -21.875 -32.859  27.757  1.00  0.00     0.021 C 
HETATM   13  C18 UNL     1     -23.861 -33.095  26.438  1.00  0.00    -0.040 A 
HETATM   14  C19 UNL     1     -25.117 -33.422  26.493  1.00  0.00    -0.006 A 
HETATM   15  C20 UNL     1     -26.113 -32.534  25.907  1.00  0.00     0.112 A 
HETATM   16  N1  UNL     1     -27.371 -32.741  25.924  1.00  0.00    -0.265 N 
ATOM     17  H1  UNL     1     -27.730 -33.583  26.375  1.00  0.00     0.194 HD
HETATM   18  C21 UNL     1     -25.689 -31.276  25.254  1.00  0.00     0.201 A 
HETATM   19  O3  UNL     1     -26.534 -30.494  24.739  1.00  0.00    -0.286 OA
HETATM   20  C22 UNL     1     -24.278 -30.984  25.230  1.00  0.00     0.058 A 
HETATM   21  C23 UNL     1     -23.430 -31.827  25.780  1.00  0.00     0.012 A 
ENDROOT
BRANCH   2  22
HETATM   22  C3  UNL     1     -26.166 -34.402  28.478  1.00  0.00    -0.012 C 
BRANCH  22  23
HETATM   23  C4  UNL     1     -26.698 -35.385  29.403  1.00  0.00    -0.003 C 
BRANCH  23  24
HETATM   24  C5  UNL     1     -25.887 -36.436  29.981  1.00  0.00    -0.002 C 
HETATM   25  C6  UNL     1     -26.075 -37.728  29.772  1.00  0.00    -0.001 C 
BRANCH  25  26
HETATM   26  C7  UNL     1     -27.101 -38.379  28.942  1.00  0.00     0.191 C 
BRANCH  26  27
HETATM   27  O1  UNL     1     -26.716 -38.383  27.574  1.00  0.00    -0.397 OA
ATOM     28  H1  UNL     1     -26.180 -39.142  27.376  1.00  0.00     0.209 HD
ENDBRANCH  26  27
ENDBRANCH  25  26
ENDBRANCH  23  24
ENDBRANCH  22  23
ENDBRANCH   2  22
BRANCH  16  29
HETATM   29  O2  UNL     1     -28.245 -31.870  25.357  1.00  0.00    -0.289 OA
ATOM     30  H2  UNL     1     -29.158 -31.838  25.618  1.00  0.00     0.244 HD
ENDBRANCH  16  29
TORSDOF 6
ENDMDL
MODEL 5
REMARK VINA RESULT: -8.097515659      2.719      4.801
REMARK  6 active torsions:
REMARK  status: ('A' for Active; 'I' for Inactive)
REMARK    1  A    between atoms: C2_2  and  C3_3 
REMARK    2  A    between atoms: C3_3  and  C4_4 
REMARK    3  A    between atoms: C4_4  and  C5_5 
REMARK    4  A    between atoms: C6_6  and  C7_7 
REMARK    5  A    between atoms: C7_7  and  O1_8 
REMARK    6  A    between atoms: N1_23  and  O2_25 
ROOT
HETATM    1  C1  UNL     1     -28.224 -33.285  27.528  1.00  0.00     0.025 C 
HETATM    2  C2  UNL     1     -28.113 -33.668  26.068  1.00  0.00     0.004 C 
HETATM    3  C8  UNL     1     -29.422 -33.324  25.429  1.00  0.00     0.024 C 
HETATM    4  C9  UNL     1     -29.388 -33.344  23.916  1.00  0.00     0.007 C 
HETATM    5  C10 UNL     1     -30.783 -33.348  23.371  1.00  0.00    -0.043 C 
HETATM    6  C11 UNL     1     -31.025 -34.699  22.681  1.00  0.00     0.015 C 
HETATM    7  C12 UNL     1     -31.814 -33.283  24.483  1.00  0.00     0.015 C 
HETATM    8  C13 UNL     1     -31.118 -32.309  22.369  1.00  0.00     0.009 C 
HETATM    9  C14 UNL     1     -30.463 -30.993  22.528  1.00  0.00     0.002 C 
HETATM   10  C15 UNL     1     -29.360 -30.937  23.520  1.00  0.00     0.014 C 
HETATM   11  C16 UNL     1     -28.547 -32.210  23.477  1.00  0.00    -0.012 C 
HETATM   12  C17 UNL     1     -28.017 -32.401  22.057  1.00  0.00     0.021 C 
HETATM   13  C18 UNL     1     -27.349 -32.072  24.333  1.00  0.00    -0.040 A 
HETATM   14  C19 UNL     1     -27.133 -32.688  25.457  1.00  0.00    -0.006 A 
HETATM   15  C20 UNL     1     -25.885 -32.451  26.172  1.00  0.00     0.112 A 
HETATM   16  N1  UNL     1     -25.557 -33.017  27.268  1.00  0.00    -0.265 N 
ATOM     17  H1  UNL     1     -26.198 -33.687  27.692  1.00  0.00     0.194 HD
HETATM   18  C21 UNL     1     -24.882 -31.514  25.621  1.00  0.00     0.201 A 
HETATM   19  O3  UNL     1     -23.797 -31.294  26.225  1.00  0.00    -0.286 OA
HETATM   20  C22 UNL     1     -25.195 -30.867  24.371  1.00  0.00     0.058 A 
HETATM   21  C23 UNL     1     -26.339 -31.127  23.774  1.00  0.00     0.012 A 
ENDROOT
BRANCH   2  22
HETATM   22  C3  UNL     1     -27.693 -35.042  25.829  1.00  0.00    -0.012 C 
BRANCH  22  23
HETATM   23  C4  UNL     1     -27.487 -36.053  26.850  1.00  0.00    -0.003 C 
BRANCH  23  24
HETATM   24  C5  UNL     1     -26.171 -36.506  27.249  1.00  0.00    -0.002 C 
HETATM   25  C6  UNL     1     -25.684 -36.406  28.474  1.00  0.00    -0.001 C 
BRANCH  25  26
HETATM   26  C7  UNL     1     -26.329 -35.841  29.670  1.00  0.00     0.191 C 
BRANCH  26  27
HETATM   27  O1  UNL     1     -26.154 -34.431  29.719  1.00  0.00    -0.397 OA
ATOM     28  H1  UNL     1     -26.990 -33.984  29.655  1.00  0.00     0.209 HD
ENDBRANCH  26  27
ENDBRANCH  25  26
ENDBRANCH  23  24
ENDBRANCH  22  23
ENDBRANCH   2  22
BRANCH  16  29
HETATM   29  O2  UNL     1     -24.377 -32.749  27.883  1.00  0.00    -0.289 OA
ATOM     30  H2  UNL     1     -23.937 -33.396  28.421  1.00  0.00     0.244 HD
ENDBRANCH  16  29
TORSDOF 6
ENDMDL
