MODEL 1
REMARK VINA RESULT: -9.312060484      0.000      0.000
REMARK  7 active torsions:
REMARK  status: ('A' for Active; 'I' for Inactive)
REMARK    1  A    between atoms: C9_10  and  O2_11 
REMARK    2  A    between atoms: C14_17  and  C15_18 
REMARK    3  A    between atoms: C15_18  and  C16_19 
REMARK    4  A    between atoms: C16_19  and  C17_20 
REMARK    5  A    between atoms: C18_21  and  O3_22 
REMARK    6  A    between atoms: C19_25  and  O5_26 
REMARK    7  A    between atoms: C20_28  and  C21_29 
ROOT
HETATM    1  C1  UNL     1     -25.978 -30.163  25.138  1.00  0.00     0.028 C 
HETATM    2  C2  UNL     1     -25.556 -31.441  25.295  1.00  0.00     0.012 C 
HETATM    3  C3  UNL     1     -24.105 -31.651  25.412  1.00  0.00     0.182 C 
HETATM    4  O1  UNL     1     -23.283 -30.892  24.841  1.00  0.00    -0.288 OA
HETATM    5  C4  UNL     1     -23.728 -32.804  26.245  1.00  0.00     0.060 C 
HETATM    6  C5  UNL     1     -24.597 -33.597  26.821  1.00  0.00    -0.053 C 
HETATM    7  C6  UNL     1     -24.086 -34.720  27.678  1.00  0.00     0.003 C 
HETATM    8  C7  UNL     1     -22.732 -34.241  28.307  1.00  0.00     0.022 C 
HETATM    9  C8  UNL     1     -23.758 -35.986  27.038  1.00  0.00     0.022 C 
HETATM   10  C9  UNL     1     -25.010 -34.787  28.907  1.00  0.00     0.130 C 
HETATM   11  C10 UNL     1     -25.648 -33.450  29.059  1.00  0.00     0.034 C 
HETATM   12  C11 UNL     1     -26.648 -33.185  27.947  1.00  0.00     0.021 C 
HETATM   13  C12 UNL     1     -26.086 -33.528  26.615  1.00  0.00     0.009 C 
HETATM   14  C13 UNL     1     -26.702 -34.836  26.160  1.00  0.00     0.025 C 
HETATM   15  C14 UNL     1     -26.403 -32.594  25.462  1.00  0.00    -0.032 C 
ENDROOT
BRANCH  15  16
HETATM   16  C15 UNL     1     -27.805 -32.584  25.026  1.00  0.00     0.010 C 
BRANCH  16  17
HETATM   17  C16 UNL     1     -28.237 -32.739  23.642  1.00  0.00     0.017 C 
BRANCH  17  18
HETATM   18  C17 UNL     1     -29.590 -32.805  23.167  1.00  0.00     0.033 A 
HETATM   19  C18 UNL     1     -30.250 -31.909  22.339  1.00  0.00     0.196 A 
HETATM   20  O4  UNL     1     -31.459 -32.355  22.178  1.00  0.00    -0.264 OA
HETATM   21  C19 UNL     1     -31.676 -33.456  22.812  1.00  0.00     0.193 A 
HETATM   22  C20 UNL     1     -30.520 -33.793  23.461  1.00  0.00     0.015 A 
BRANCH  19  23
HETATM   23  O3  UNL     1     -29.708 -30.730  21.774  1.00  0.00    -0.340 OA
ATOM     24  H3  UNL     1     -29.892 -30.383  20.909  1.00  0.00     0.220 HD
ENDBRANCH  19  23
BRANCH  21  25
HETATM   25  O5  UNL     1     -32.894 -34.152  22.809  1.00  0.00    -0.340 OA
ATOM     26  H5  UNL     1     -33.315 -34.508  23.583  1.00  0.00     0.220 HD
ENDBRANCH  21  25
BRANCH  22  27
HETATM   27  C21 UNL     1     -30.374 -35.017  24.296  1.00  0.00     0.040 C 
HETATM   28  C22 UNL     1     -30.751 -34.710  25.727  1.00  0.00     0.010 C 
ENDBRANCH  22  27
ENDBRANCH  17  18
ENDBRANCH  16  17
ENDBRANCH  15  16
BRANCH  10  29
HETATM   29  O2  UNL     1     -25.833 -35.871  28.946  1.00  0.00    -0.395 OA
ATOM     30  H2  UNL     1     -26.155 -36.097  29.810  1.00  0.00     0.210 HD
ENDBRANCH  10  29
TORSDOF 7
ENDMDL
MODEL 2
REMARK VINA RESULT: -8.924204860      1.476      2.315
REMARK  7 active torsions:
REMARK  status: ('A' for Active; 'I' for Inactive)
REMARK    1  A    between atoms: C9_10  and  O2_11 
REMARK    2  A    between atoms: C14_17  and  C15_18 
REMARK    3  A    between atoms: C15_18  and  C16_19 
REMARK    4  A    between atoms: C16_19  and  C17_20 
REMARK    5  A    between atoms: C18_21  and  O3_22 
REMARK    6  A    between atoms: C19_25  and  O5_26 
REMARK    7  A    between atoms: C20_28  and  C21_29 
ROOT
HETATM    1  C1  UNL     1     -25.660 -30.428  25.229  1.00  0.00     0.028 C 
HETATM    2  C2  UNL     1     -25.043 -31.612  25.461  1.00  0.00     0.012 C 
HETATM    3  C3  UNL     1     -23.595 -31.668  25.208  1.00  0.00     0.182 C 
HETATM    4  O1  UNL     1     -23.056 -30.959  24.323  1.00  0.00    -0.288 OA
HETATM    5  C4  UNL     1     -22.867 -32.609  26.073  1.00  0.00     0.060 C 
HETATM    6  C5  UNL     1     -23.446 -33.356  26.981  1.00  0.00    -0.053 C 
HETATM    7  C6  UNL     1     -22.588 -34.251  27.829  1.00  0.00     0.003 C 
HETATM    8  C7  UNL     1     -21.196 -33.545  27.981  1.00  0.00     0.022 C 
HETATM    9  C8  UNL     1     -22.266 -35.579  27.327  1.00  0.00     0.022 C 
HETATM   10  C9  UNL     1     -23.151 -34.170  29.258  1.00  0.00     0.130 C 
HETATM   11  C10 UNL     1     -23.904 -32.890  29.370  1.00  0.00     0.034 C 
HETATM   12  C11 UNL     1     -25.179 -32.926  28.547  1.00  0.00     0.021 C 
HETATM   13  C12 UNL     1     -24.934 -33.457  27.182  1.00  0.00     0.009 C 
HETATM   14  C13 UNL     1     -25.463 -34.877  27.121  1.00  0.00     0.025 C 
HETATM   15  C14 UNL     1     -25.656 -32.785  26.030  1.00  0.00    -0.032 C 
ENDROOT
BRANCH  15  16
HETATM   16  C15 UNL     1     -27.111 -32.980  25.998  1.00  0.00     0.010 C 
BRANCH  16  17
HETATM   17  C16 UNL     1     -27.812 -33.782  25.002  1.00  0.00     0.017 C 
BRANCH  17  18
HETATM   18  C17 UNL     1     -29.143 -33.567  24.509  1.00  0.00     0.033 A 
HETATM   19  C18 UNL     1     -30.343 -33.936  25.098  1.00  0.00     0.196 A 
HETATM   20  O4  UNL     1     -31.295 -33.554  24.302  1.00  0.00    -0.264 OA
HETATM   21  C19 UNL     1     -30.856 -32.967  23.241  1.00  0.00     0.193 A 
HETATM   22  C20 UNL     1     -29.491 -32.945  23.317  1.00  0.00     0.015 A 
BRANCH  19  23
HETATM   23  O3  UNL     1     -30.501 -34.603  26.336  1.00  0.00    -0.340 OA
ATOM     24  H3  UNL     1     -30.925 -35.441  26.475  1.00  0.00     0.220 HD
ENDBRANCH  19  23
BRANCH  21  25
HETATM   25  O5  UNL     1     -31.668 -32.457  22.218  1.00  0.00    -0.340 OA
ATOM     26  H5  UNL     1     -32.567 -32.721  22.057  1.00  0.00     0.220 HD
ENDBRANCH  21  25
BRANCH  22  27
HETATM   27  C21 UNL     1     -28.620 -32.335  22.274  1.00  0.00     0.040 C 
HETATM   28  C22 UNL     1     -28.276 -30.915  22.659  1.00  0.00     0.010 C 
ENDBRANCH  22  27
ENDBRANCH  17  18
ENDBRANCH  16  17
ENDBRANCH  15  16
BRANCH  10  29
HETATM   29  O2  UNL     1     -23.784 -35.297  29.688  1.00  0.00    -0.395 OA
ATOM     30  H2  UNL     1     -24.511 -35.146  30.280  1.00  0.00     0.210 HD
ENDBRANCH  10  29
TORSDOF 7
ENDMDL
MODEL 3
REMARK VINA RESULT: -8.757547219      1.609      2.750
REMARK  7 active torsions:
REMARK  status: ('A' for Active; 'I' for Inactive)
REMARK    1  A    between atoms: C9_10  and  O2_11 
REMARK    2  A    between atoms: C14_17  and  C15_18 
REMARK    3  A    between atoms: C15_18  and  C16_19 
REMARK    4  A    between atoms: C16_19  and  C17_20 
REMARK    5  A    between atoms: C18_21  and  O3_22 
REMARK    6  A    between atoms: C19_25  and  O5_26 
REMARK    7  A    between atoms: C20_28  and  C21_29 
ROOT
HETATM    1  C1  UNL     1     -28.680 -31.870  25.248  1.00  0.00     0.028 C 
HETATM    2  C2  UNL     1     -27.535 -32.584  25.380  1.00  0.00     0.012 C 
HETATM    3  C3  UNL     1     -26.282 -31.898  25.031  1.00  0.00     0.182 C 
HETATM    4  O1  UNL     1     -26.246 -31.004  24.149  1.00  0.00    -0.288 OA
HETATM    5  C4  UNL     1     -25.112 -32.351  25.798  1.00  0.00     0.060 C 
HETATM    6  C5  UNL     1     -25.161 -33.297  26.704  1.00  0.00    -0.053 C 
HETATM    7  C6  UNL     1     -23.903 -33.644  27.448  1.00  0.00     0.003 C 
HETATM    8  C7  UNL     1     -23.047 -32.334  27.544  1.00  0.00     0.022 C 
HETATM    9  C8  UNL     1     -22.999 -34.623  26.861  1.00  0.00     0.022 C 
HETATM   10  C9  UNL     1     -24.312 -33.874  28.913  1.00  0.00     0.130 C 
HETATM   11  C10 UNL     1     -25.594 -33.151  29.138  1.00  0.00     0.034 C 
HETATM   12  C11 UNL     1     -26.741 -33.817  28.399  1.00  0.00     0.021 C 
HETATM   13  C12 UNL     1     -26.373 -34.138  26.996  1.00  0.00     0.009 C 
HETATM   14  C13 UNL     1     -26.120 -35.630  26.898  1.00  0.00     0.025 C 
HETATM   15  C14 UNL     1     -27.427 -33.911  25.928  1.00  0.00    -0.032 C 
ENDROOT
BRANCH  15  16
HETATM   16  C15 UNL     1     -28.583 -34.814  25.981  1.00  0.00     0.010 C 
BRANCH  16  17
HETATM   17  C16 UNL     1     -29.343 -35.248  24.814  1.00  0.00     0.017 C 
BRANCH  17  18
HETATM   18  C17 UNL     1     -30.761 -35.137  24.623  1.00  0.00     0.033 A 
HETATM   19  C18 UNL     1     -31.774 -35.626  25.433  1.00  0.00     0.196 A 
HETATM   20  O4  UNL     1     -32.902 -35.306  24.873  1.00  0.00    -0.264 OA
HETATM   21  C19 UNL     1     -32.747 -34.653  23.772  1.00  0.00     0.193 A 
HETATM   22  C20 UNL     1     -31.403 -34.513  23.561  1.00  0.00     0.015 A 
BRANCH  19  23
HETATM   23  O3  UNL     1     -31.611 -36.340  26.644  1.00  0.00    -0.340 OA
ATOM     24  H3  UNL     1     -32.301 -36.598  27.244  1.00  0.00     0.220 HD
ENDBRANCH  19  23
BRANCH  21  25
HETATM   25  O5  UNL     1     -33.796 -34.186  22.968  1.00  0.00    -0.340 OA
ATOM     26  H5  UNL     1     -34.689 -34.511  22.999  1.00  0.00     0.220 HD
ENDBRANCH  21  25
BRANCH  22  27
HETATM   27  C21 UNL     1     -30.826 -33.800  22.389  1.00  0.00     0.040 C 
HETATM   28  C22 UNL     1     -30.920 -32.306  22.599  1.00  0.00     0.010 C 
ENDBRANCH  22  27
ENDBRANCH  17  18
ENDBRANCH  16  17
ENDBRANCH  15  16
BRANCH  10  29
HETATM   29  O2  UNL     1     -24.255 -35.170  29.327  1.00  0.00    -0.395 OA
ATOM     30  H2  UNL     1     -24.369 -35.297  30.261  1.00  0.00     0.210 HD
ENDBRANCH  10  29
TORSDOF 7
ENDMDL
MODEL 4
REMARK VINA RESULT: -8.724999071      1.095      1.362
REMARK  7 active torsions:
REMARK  status: ('A' for Active; 'I' for Inactive)
REMARK    1  A    between atoms: C9_10  and  O2_11 
REMARK    2  A    between atoms: C14_17  and  C15_18 
REMARK    3  A    between atoms: C15_18  and  C16_19 
REMARK    4  A    between atoms: C16_19  and  C17_20 
REMARK    5  A    between atoms: C18_21  and  O3_22 
REMARK    6  A    between atoms: C19_25  and  O5_26 
REMARK    7  A    between atoms: C20_28  and  C21_29 
ROOT
HETATM    1  C1  UNL     1     -25.328 -30.225  25.349  1.00  0.00     0.028 C 
HETATM    2  C2  UNL     1     -24.795 -31.457  25.538  1.00  0.00     0.012 C 
HETATM    3  C3  UNL     1     -23.334 -31.575  25.413  1.00  0.00     0.182 C 
HETATM    4  O1  UNL     1     -22.679 -30.831  24.642  1.00  0.00    -0.288 OA
HETATM    5  C4  UNL     1     -22.739 -32.619  26.261  1.00  0.00     0.060 C 
HETATM    6  C5  UNL     1     -23.438 -33.399  27.048  1.00  0.00    -0.053 C 
HETATM    7  C6  UNL     1     -22.709 -34.404  27.894  1.00  0.00     0.003 C 
HETATM    8  C7  UNL     1     -21.305 -33.793  28.230  1.00  0.00     0.022 C 
HETATM    9  C8  UNL     1     -22.407 -35.706  27.317  1.00  0.00     0.022 C 
HETATM   10  C9  UNL     1     -23.402 -34.403  29.268  1.00  0.00     0.130 C 
HETATM   11  C10 UNL     1     -24.097 -33.095  29.416  1.00  0.00     0.034 C 
HETATM   12  C11 UNL     1     -25.289 -32.994  28.481  1.00  0.00     0.021 C 
HETATM   13  C12 UNL     1     -24.941 -33.432  27.105  1.00  0.00     0.009 C 
HETATM   14  C13 UNL     1     -25.532 -34.810  26.879  1.00  0.00     0.025 C 
HETATM   15  C14 UNL     1     -25.517 -32.633  25.950  1.00  0.00    -0.032 C 
ENDROOT
BRANCH  15  16
HETATM   16  C15 UNL     1     -26.970 -32.742  25.770  1.00  0.00     0.010 C 
BRANCH  16  17
HETATM   17  C16 UNL     1     -27.613 -33.321  24.597  1.00  0.00     0.017 C 
BRANCH  17  18
HETATM   18  C17 UNL     1     -28.685 -32.748  23.835  1.00  0.00     0.033 A 
HETATM   19  C18 UNL     1     -28.686 -31.561  23.118  1.00  0.00     0.196 A 
HETATM   20  O4  UNL     1     -29.867 -31.429  22.594  1.00  0.00    -0.264 OA
HETATM   21  C19 UNL     1     -30.656 -32.406  22.885  1.00  0.00     0.193 A 
HETATM   22  C20 UNL     1     -29.959 -33.280  23.673  1.00  0.00     0.015 A 
BRANCH  19  23
HETATM   23  O3  UNL     1     -27.602 -30.661  22.982  1.00  0.00    -0.340 OA
ATOM     24  H3  UNL     1     -27.647 -29.713  23.025  1.00  0.00     0.220 HD
ENDBRANCH  19  23
BRANCH  21  25
HETATM   25  O5  UNL     1     -31.985 -32.515  22.450  1.00  0.00    -0.340 OA
ATOM     26  H5  UNL     1     -32.313 -32.180  21.624  1.00  0.00     0.220 HD
ENDBRANCH  21  25
BRANCH  22  27
HETATM   27  C21 UNL     1     -30.534 -34.545  24.205  1.00  0.00     0.040 C 
HETATM   28  C22 UNL     1     -31.001 -34.339  25.628  1.00  0.00     0.010 C 
ENDBRANCH  22  27
ENDBRANCH  17  18
ENDBRANCH  16  17
ENDBRANCH  15  16
BRANCH  10  29
HETATM   29  O2  UNL     1     -24.127 -35.521  29.545  1.00  0.00    -0.395 OA
ATOM     30  H2  UNL     1     -23.619 -36.257  29.867  1.00  0.00     0.210 HD
ENDBRANCH  10  29
TORSDOF 7
ENDMDL
MODEL 5
REMARK VINA RESULT: -8.639724399      1.776      6.698
REMARK  7 active torsions:
REMARK  status: ('A' for Active; 'I' for Inactive)
REMARK    1  A    between atoms: C9_10  and  O2_11 
REMARK    2  A    between atoms: C14_17  and  C15_18 
REMARK    3  A    between atoms: C15_18  and  C16_19 
REMARK    4  A    between atoms: C16_19  and  C17_20 
REMARK    5  A    between atoms: C18_21  and  O3_22 
REMARK    6  A    between atoms: C19_25  and  O5_26 
REMARK    7  A    between atoms: C20_28  and  C21_29 
ROOT
HETATM    1  C1  UNL     1     -27.579 -31.220  22.488  1.00  0.00     0.028 C 
HETATM    2  C2  UNL     1     -28.575 -31.614  23.317  1.00  0.00     0.012 C 
HETATM    3  C3  UNL     1     -29.922 -31.716  22.735  1.00  0.00     0.182 C 
HETATM    4  O1  UNL     1     -30.287 -30.974  21.790  1.00  0.00    -0.288 OA
HETATM    5  C4  UNL     1     -30.770 -32.748  23.354  1.00  0.00     0.060 C 
HETATM    6  C5  UNL     1     -30.381 -33.503  24.351  1.00  0.00    -0.053 C 
HETATM    7  C6  UNL     1     -31.327 -34.548  24.872  1.00  0.00     0.003 C 
HETATM    8  C7  UNL     1     -32.207 -35.017  23.662  1.00  0.00     0.022 C 
HETATM    9  C8  UNL     1     -32.292 -34.161  25.891  1.00  0.00     0.022 C 
HETATM   10  C9  UNL     1     -30.479 -35.798  25.162  1.00  0.00     0.130 C 
HETATM   11  C10 UNL     1     -29.246 -35.704  24.334  1.00  0.00     0.034 C 
HETATM   12  C11 UNL     1     -28.329 -34.600  24.831  1.00  0.00     0.021 C 
HETATM   13  C12 UNL     1     -29.079 -33.343  25.088  1.00  0.00     0.009 C 
HETATM   14  C13 UNL     1     -29.240 -33.182  26.587  1.00  0.00     0.025 C 
HETATM   15  C14 UNL     1     -28.416 -32.040  24.684  1.00  0.00    -0.032 C 
ENDROOT
BRANCH  15  16
HETATM   16  C15 UNL     1     -27.235 -31.663  25.470  1.00  0.00     0.010 C 
BRANCH  16  17
HETATM   17  C16 UNL     1     -25.870 -32.064  25.149  1.00  0.00     0.017 C 
BRANCH  17  18
HETATM   18  C17 UNL     1     -24.781 -32.219  26.070  1.00  0.00     0.033 A 
HETATM   19  C18 UNL     1     -23.538 -31.603  26.035  1.00  0.00     0.196 A 
HETATM   20  O4  UNL     1     -22.864 -32.041  27.055  1.00  0.00    -0.264 OA
HETATM   21  C19 UNL     1     -23.527 -32.887  27.768  1.00  0.00     0.193 A 
HETATM   22  C20 UNL     1     -24.757 -33.039  27.190  1.00  0.00     0.015 A 
BRANCH  19  23
HETATM   23  O3  UNL     1     -23.089 -30.670  25.071  1.00  0.00    -0.340 OA
ATOM     24  H3  UNL     1     -23.048 -30.805  24.132  1.00  0.00     0.220 HD
ENDBRANCH  19  23
BRANCH  21  25
HETATM   25  O5  UNL     1     -23.038 -33.513  28.924  1.00  0.00    -0.340 OA
ATOM     26  H5  UNL     1     -22.400 -33.133  29.516  1.00  0.00     0.220 HD
ENDBRANCH  21  25
BRANCH  22  27
HETATM   27  C21 UNL     1     -25.816 -33.932  27.735  1.00  0.00     0.040 C 
HETATM   28  C22 UNL     1     -25.626 -35.336  27.208  1.00  0.00     0.010 C 
ENDBRANCH  22  27
ENDBRANCH  17  18
ENDBRANCH  16  17
ENDBRANCH  15  16
BRANCH  10  29
HETATM   29  O2  UNL     1     -30.314 -36.084  26.483  1.00  0.00    -0.395 OA
ATOM     30  H2  UNL     1     -30.766 -35.497  27.078  1.00  0.00     0.210 HD
ENDBRANCH  10  29
TORSDOF 7
ENDMDL
