MODEL 1
REMARK VINA RESULT: -7.944717196      0.000      0.000
REMARK  5 active torsions:
REMARK  status: ('A' for Active; 'I' for Inactive)
REMARK    1  A    between atoms: S1_2  and  C2_3 
REMARK    2  A    between atoms: C2_3  and  C3_4 
REMARK    3  A    between atoms: C11_12  and  C12_13 
REMARK    4  A    between atoms: C12_13  and  O1_14 
REMARK    5  A    between atoms: C12_13  and  N1_16 
ROOT
HETATM    1  C12 UNL     1     -25.540 -33.447  27.523  1.00  0.00     0.245 C 
ENDROOT
BRANCH   1   2
HETATM    2  C11 UNL     1     -24.120 -33.843  27.124  1.00  0.00     0.041 C 
HETATM    3  C10 UNL     1     -23.281 -32.606  27.277  1.00  0.00     0.014 C 
HETATM    4  C8  UNL     1     -21.920 -32.853  26.674  1.00  0.00    -0.013 C 
HETATM    5  C7  UNL     1     -21.909 -33.770  25.498  1.00  0.00     0.009 C 
HETATM    6  C9  UNL     1     -21.063 -33.298  27.819  1.00  0.00     0.010 C 
HETATM    7  C6  UNL     1     -21.855 -35.226  25.788  1.00  0.00    -0.013 C 
HETATM    8  C5  UNL     1     -20.702 -35.474  26.773  1.00  0.00     0.010 C 
HETATM    9  C20 UNL     1     -23.118 -35.864  26.257  1.00  0.00     0.010 C 
HETATM   10  C4  UNL     1     -21.167 -34.739  28.033  1.00  0.00    -0.009 C 
HETATM   11  C3  UNL     1     -22.476 -35.311  28.475  1.00  0.00     0.003 C 
HETATM   12  C19 UNL     1     -23.606 -35.116  27.538  1.00  0.00    -0.001 C 
BRANCH  11  13
HETATM   13  C2  UNL     1     -22.695 -35.122  29.930  1.00  0.00     0.078 C 
BRANCH  13  14
HETATM   14  S1  UNL     1     -22.984 -36.673  30.795  1.00  0.00    -0.173 SA
HETATM   15  C1  UNL     1     -22.876 -38.102  29.713  1.00  0.00     0.089 C 
ENDBRANCH  13  14
ENDBRANCH  11  13
ENDBRANCH   1   2
BRANCH   1  16
HETATM   16  O1  UNL     1     -25.983 -34.062  28.683  1.00  0.00    -0.375 OA
ATOM     17  H1  UNL     1     -26.137 -33.458  29.400  1.00  0.00     0.212 HD
ENDBRANCH   1  16
BRANCH   1  18
HETATM   18  N1  UNL     1     -26.474 -33.478  26.431  1.00  0.00    -0.262 N 
HETATM   19  N2  UNL     1     -27.319 -34.460  26.190  1.00  0.00    -0.306 N 
HETATM   20  C13 UNL     1     -28.070 -34.195  25.087  1.00  0.00     0.126 A 
ATOM     21  H2  UNL     1     -27.399 -35.306  26.754  1.00  0.00     0.186 HD
HETATM   22  C14 UNL     1     -27.665 -32.966  24.612  1.00  0.00     0.077 A 
HETATM   23  C15 UNL     1     -28.035 -32.168  23.550  1.00  0.00     0.259 A 
HETATM   24  C18 UNL     1     -26.672 -32.554  25.474  1.00  0.00     0.072 A 
HETATM   25  O2  UNL     1     -28.951 -32.571  22.772  1.00  0.00    -0.267 OA
HETATM   26  N3  UNL     1     -27.447 -30.970  23.317  1.00  0.00    -0.333 N 
HETATM   27  C16 UNL     1     -26.478 -30.575  24.163  1.00  0.00     0.093 A 
ATOM     28  H3  UNL     1     -27.730 -30.389  22.528  1.00  0.00     0.168 HD
HETATM   29  C17 UNL     1     -26.081 -31.346  25.236  1.00  0.00     0.049 A 
ENDBRANCH   1  18
TORSDOF 5
ENDMDL
MODEL 2
REMARK VINA RESULT: -7.759927272      1.741      2.901
REMARK  5 active torsions:
REMARK  status: ('A' for Active; 'I' for Inactive)
REMARK    1  A    between atoms: S1_2  and  C2_3 
REMARK    2  A    between atoms: C2_3  and  C3_4 
REMARK    3  A    between atoms: C11_12  and  C12_13 
REMARK    4  A    between atoms: C12_13  and  O1_14 
REMARK    5  A    between atoms: C12_13  and  N1_16 
ROOT
HETATM    1  C12 UNL     1     -26.340 -34.689  26.798  1.00  0.00     0.245 C 
ENDROOT
BRANCH   1   2
HETATM    2  C11 UNL     1     -25.029 -34.064  27.268  1.00  0.00     0.041 C 
HETATM    3  C10 UNL     1     -25.176 -33.841  28.747  1.00  0.00     0.014 C 
HETATM    4  C8  UNL     1     -24.018 -33.008  29.241  1.00  0.00    -0.013 C 
HETATM    5  C7  UNL     1     -23.495 -32.014  28.261  1.00  0.00     0.009 C 
HETATM    6  C9  UNL     1     -23.005 -34.000  29.723  1.00  0.00     0.010 C 
HETATM    7  C6  UNL     1     -22.497 -32.508  27.276  1.00  0.00    -0.013 C 
HETATM    8  C5  UNL     1     -21.396 -33.252  28.048  1.00  0.00     0.010 C 
HETATM    9  C20 UNL     1     -23.019 -33.327  26.147  1.00  0.00     0.010 C 
HETATM   10  C4  UNL     1     -22.142 -34.452  28.634  1.00  0.00    -0.009 C 
HETATM   11  C3  UNL     1     -22.743 -35.245  27.518  1.00  0.00     0.003 C 
HETATM   12  C19 UNL     1     -23.790 -34.551  26.735  1.00  0.00    -0.001 C 
BRANCH  11  13
HETATM   13  C2  UNL     1     -22.937 -36.666  27.897  1.00  0.00     0.078 C 
BRANCH  13  14
HETATM   14  S1  UNL     1     -21.497 -37.683  27.538  1.00  0.00    -0.173 SA
HETATM   15  C1  UNL     1     -20.161 -36.752  26.779  1.00  0.00     0.089 C 
ENDBRANCH  13  14
ENDBRANCH  11  13
ENDBRANCH   1   2
BRANCH   1  16
HETATM   16  O1  UNL     1     -26.216 -36.014  26.412  1.00  0.00    -0.375 OA
ATOM     17  H1  UNL     1     -26.254 -36.627  27.137  1.00  0.00     0.212 HD
ENDBRANCH   1  16
BRANCH   1  18
HETATM   18  N1  UNL     1     -27.075 -33.862  25.882  1.00  0.00    -0.262 N 
HETATM   19  N2  UNL     1     -26.695 -32.668  25.473  1.00  0.00    -0.306 N 
HETATM   20  C13 UNL     1     -27.603 -32.138  24.608  1.00  0.00     0.126 A 
ATOM     21  H2  UNL     1     -25.836 -32.203  25.765  1.00  0.00     0.186 HD
HETATM   22  C14 UNL     1     -28.614 -33.065  24.471  1.00  0.00     0.077 A 
HETATM   23  C15 UNL     1     -29.789 -33.118  23.752  1.00  0.00     0.259 A 
HETATM   24  C18 UNL     1     -28.250 -34.122  25.278  1.00  0.00     0.072 A 
HETATM   25  O2  UNL     1     -30.101 -32.133  23.017  1.00  0.00    -0.267 OA
HETATM   26  N3  UNL     1     -30.616 -34.189  23.810  1.00  0.00    -0.333 N 
HETATM   27  C16 UNL     1     -30.253 -35.216  24.601  1.00  0.00     0.093 A 
ATOM     28  H3  UNL     1     -31.483 -34.216  23.273  1.00  0.00     0.168 HD
HETATM   29  C17 UNL     1     -29.085 -35.200  25.335  1.00  0.00     0.049 A 
ENDBRANCH   1  18
TORSDOF 5
ENDMDL
MODEL 3
REMARK VINA RESULT: -7.710127212      1.109      1.204
REMARK  5 active torsions:
REMARK  status: ('A' for Active; 'I' for Inactive)
REMARK    1  A    between atoms: S1_2  and  C2_3 
REMARK    2  A    between atoms: C2_3  and  C3_4 
REMARK    3  A    between atoms: C11_12  and  C12_13 
REMARK    4  A    between atoms: C12_13  and  O1_14 
REMARK    5  A    between atoms: C12_13  and  N1_16 
ROOT
HETATM    1  C12 UNL     1     -24.953 -33.522  28.075  1.00  0.00     0.245 C 
ENDROOT
BRANCH   1   2
HETATM    2  C11 UNL     1     -23.576 -33.976  27.595  1.00  0.00     0.041 C 
HETATM    3  C10 UNL     1     -22.574 -33.230  28.431  1.00  0.00     0.014 C 
HETATM    4  C8  UNL     1     -21.195 -33.442  27.857  1.00  0.00    -0.013 C 
HETATM    5  C7  UNL     1     -21.146 -33.597  26.374  1.00  0.00     0.009 C 
HETATM    6  C9  UNL     1     -20.629 -34.599  28.622  1.00  0.00     0.010 C 
HETATM    7  C6  UNL     1     -21.393 -34.959  25.836  1.00  0.00    -0.013 C 
HETATM    8  C5  UNL     1     -20.479 -35.940  26.589  1.00  0.00     0.010 C 
HETATM    9  C20 UNL     1     -22.806 -35.431  25.826  1.00  0.00     0.010 C 
HETATM   10  C4  UNL     1     -21.014 -35.874  28.021  1.00  0.00    -0.009 C 
HETATM   11  C3  UNL     1     -22.457 -36.266  28.021  1.00  0.00     0.003 C 
HETATM   12  C19 UNL     1     -23.364 -35.359  27.283  1.00  0.00    -0.001 C 
BRANCH  11  13
HETATM   13  C2  UNL     1     -22.879 -36.808  29.336  1.00  0.00     0.078 C 
BRANCH  13  14
HETATM   14  S1  UNL     1     -24.466 -37.651  29.262  1.00  0.00    -0.173 SA
HETATM   15  C1  UNL     1     -25.477 -37.359  30.718  1.00  0.00     0.089 C 
ENDBRANCH  13  14
ENDBRANCH  11  13
ENDBRANCH   1   2
BRANCH   1  16
HETATM   16  O1  UNL     1     -25.337 -34.091  29.278  1.00  0.00    -0.375 OA
ATOM     17  H1  UNL     1     -25.797 -33.491  29.854  1.00  0.00     0.212 HD
ENDBRANCH   1  16
BRANCH   1  18
HETATM   18  N1  UNL     1     -25.958 -33.550  27.048  1.00  0.00    -0.262 N 
HETATM   19  N2  UNL     1     -26.915 -34.452  26.955  1.00  0.00    -0.306 N 
HETATM   20  C13 UNL     1     -27.709 -34.208  25.877  1.00  0.00     0.126 A 
ATOM     21  H2  UNL     1     -27.044 -35.227  27.604  1.00  0.00     0.186 HD
HETATM   22  C14 UNL     1     -27.212 -33.080  25.259  1.00  0.00     0.077 A 
HETATM   23  C15 UNL     1     -27.568 -32.348  24.147  1.00  0.00     0.259 A 
HETATM   24  C18 UNL     1     -26.124 -32.702  26.016  1.00  0.00     0.072 A 
HETATM   25  O2  UNL     1     -28.572 -32.717  23.467  1.00  0.00    -0.267 OA
HETATM   26  N3  UNL     1     -26.876 -31.249  23.762  1.00  0.00    -0.333 N 
HETATM   27  C16 UNL     1     -25.816 -30.886  24.508  1.00  0.00     0.093 A 
ATOM     28  H3  UNL     1     -27.150 -30.715  22.937  1.00  0.00     0.168 HD
HETATM   29  C17 UNL     1     -25.428 -31.594  25.626  1.00  0.00     0.049 A 
ENDBRANCH   1  18
TORSDOF 5
ENDMDL
MODEL 4
REMARK VINA RESULT: -7.636209657      1.629      2.157
REMARK  5 active torsions:
REMARK  status: ('A' for Active; 'I' for Inactive)
REMARK    1  A    between atoms: S1_2  and  C2_3 
REMARK    2  A    between atoms: C2_3  and  C3_4 
REMARK    3  A    between atoms: C11_12  and  C12_13 
REMARK    4  A    between atoms: C12_13  and  O1_14 
REMARK    5  A    between atoms: C12_13  and  N1_16 
ROOT
HETATM    1  C12 UNL     1     -24.976 -33.323  27.090  1.00  0.00     0.245 C 
ENDROOT
BRANCH   1   2
HETATM    2  C11 UNL     1     -23.531 -33.808  27.180  1.00  0.00     0.041 C 
HETATM    3  C10 UNL     1     -22.873 -32.972  28.241  1.00  0.00     0.014 C 
HETATM    4  C8  UNL     1     -21.385 -33.226  28.221  1.00  0.00    -0.013 C 
HETATM    5  C7  UNL     1     -20.816 -33.528  26.876  1.00  0.00     0.009 C 
HETATM    6  C9  UNL     1     -21.160 -34.294  29.247  1.00  0.00     0.010 C 
HETATM    7  C6  UNL     1     -20.891 -34.941  26.421  1.00  0.00    -0.013 C 
HETATM    8  C5  UNL     1     -20.331 -35.832  27.542  1.00  0.00     0.010 C 
HETATM    9  C20 UNL     1     -22.220 -35.426  25.953  1.00  0.00     0.010 C 
HETATM   10  C4  UNL     1     -21.339 -35.627  28.675  1.00  0.00    -0.009 C 
HETATM   11  C3  UNL     1     -22.697 -36.032  28.198  1.00  0.00     0.003 C 
HETATM   12  C19 UNL     1     -23.258 -35.214  27.100  1.00  0.00    -0.001 C 
BRANCH  11  13
HETATM   13  C2  UNL     1     -23.574 -36.444  29.322  1.00  0.00     0.078 C 
BRANCH  13  14
HETATM   14  S1  UNL     1     -24.975 -37.434  28.783  1.00  0.00    -0.173 SA
HETATM   15  C1  UNL     1     -26.514 -36.947  29.572  1.00  0.00     0.089 C 
ENDBRANCH  13  14
ENDBRANCH  11  13
ENDBRANCH   1   2
BRANCH   1  16
HETATM   16  O1  UNL     1     -25.910 -34.341  27.180  1.00  0.00    -0.375 OA
ATOM     17  H1  UNL     1     -26.756 -34.055  27.505  1.00  0.00     0.212 HD
ENDBRANCH   1  16
BRANCH   1  18
HETATM   18  N1  UNL     1     -25.203 -32.391  26.020  1.00  0.00    -0.262 N 
HETATM   19  N2  UNL     1     -24.269 -31.657  25.447  1.00  0.00    -0.306 N 
HETATM   20  C13 UNL     1     -24.798 -30.876  24.466  1.00  0.00     0.126 A 
ATOM     21  H2  UNL     1     -23.283 -31.674  25.705  1.00  0.00     0.186 HD
HETATM   22  C14 UNL     1     -26.150 -31.142  24.427  1.00  0.00     0.077 A 
HETATM   23  C15 UNL     1     -27.206 -30.684  23.668  1.00  0.00     0.259 A 
HETATM   24  C18 UNL     1     -26.363 -32.088  25.407  1.00  0.00     0.072 A 
HETATM   25  O2  UNL     1     -26.984 -29.814  22.773  1.00  0.00    -0.267 OA
HETATM   26  N3  UNL     1     -28.469 -31.136  23.853  1.00  0.00    -0.333 N 
HETATM   27  C16 UNL     1     -28.668 -32.059  24.812  1.00  0.00     0.093 A 
ATOM     28  H3  UNL     1     -29.243 -30.788  23.285  1.00  0.00     0.168 HD
HETATM   29  C17 UNL     1     -27.637 -32.541  25.592  1.00  0.00     0.049 A 
ENDBRANCH   1  18
TORSDOF 5
ENDMDL
MODEL 5
REMARK VINA RESULT: -7.569733509      1.815      2.687
REMARK  5 active torsions:
REMARK  status: ('A' for Active; 'I' for Inactive)
REMARK    1  A    between atoms: S1_2  and  C2_3 
REMARK    2  A    between atoms: C2_3  and  C3_4 
REMARK    3  A    between atoms: C11_12  and  C12_13 
REMARK    4  A    between atoms: C12_13  and  O1_14 
REMARK    5  A    between atoms: C12_13  and  N1_16 
ROOT
HETATM    1  C12 UNL     1     -23.797 -33.016  28.260  1.00  0.00     0.245 C 
ENDROOT
BRANCH   1   2
HETATM    2  C11 UNL     1     -22.715 -34.042  27.931  1.00  0.00     0.041 C 
HETATM    3  C10 UNL     1     -21.739 -34.002  29.073  1.00  0.00     0.014 C 
HETATM    4  C8  UNL     1     -20.518 -34.812  28.709  1.00  0.00    -0.013 C 
HETATM    5  C7  UNL     1     -20.161 -34.799  27.261  1.00  0.00     0.009 C 
HETATM    6  C9  UNL     1     -20.773 -36.175  29.276  1.00  0.00     0.010 C 
HETATM    7  C6  UNL     1     -20.860 -35.781  26.393  1.00  0.00    -0.013 C 
HETATM    8  C5  UNL     1     -20.736 -37.167  27.046  1.00  0.00     0.010 C 
HETATM    9  C20 UNL     1     -22.273 -35.474  26.035  1.00  0.00     0.010 C 
HETATM   10  C4  UNL     1     -21.532 -37.006  28.343  1.00  0.00    -0.009 C 
HETATM   11  C3  UNL     1     -22.936 -36.616  28.007  1.00  0.00     0.003 C 
HETATM   12  C19 UNL     1     -23.093 -35.298  27.352  1.00  0.00    -0.001 C 
BRANCH  11  13
HETATM   13  C2  UNL     1     -23.887 -37.019  29.072  1.00  0.00     0.078 C 
BRANCH  13  14
HETATM   14  S1  UNL     1     -25.597 -37.020  28.512  1.00  0.00    -0.173 SA
HETATM   15  C1  UNL     1     -26.720 -36.287  29.706  1.00  0.00     0.089 C 
ENDBRANCH  13  14
ENDBRANCH  11  13
ENDBRANCH   1   2
BRANCH   1  16
HETATM   16  O1  UNL     1     -24.692 -33.444  29.227  1.00  0.00    -0.375 OA
ATOM     17  H1  UNL     1     -25.476 -33.844  28.870  1.00  0.00     0.212 HD
ENDBRANCH   1  16
BRANCH   1  18
HETATM   18  N1  UNL     1     -24.403 -32.428  27.097  1.00  0.00    -0.262 N 
HETATM   19  N2  UNL     1     -23.912 -31.403  26.428  1.00  0.00    -0.306 N 
HETATM   20  C13 UNL     1     -24.713 -31.080  25.377  1.00  0.00     0.126 A 
ATOM     21  H2  UNL     1     -23.048 -30.918  26.667  1.00  0.00     0.186 HD
HETATM   22  C14 UNL     1     -25.772 -31.963  25.393  1.00  0.00     0.077 A 
HETATM   23  C15 UNL     1     -26.890 -32.150  24.609  1.00  0.00     0.259 A 
HETATM   24  C18 UNL     1     -25.543 -32.784  26.477  1.00  0.00     0.072 A 
HETATM   25  O2  UNL     1     -27.078 -31.382  23.619  1.00  0.00    -0.267 OA
HETATM   26  N3  UNL     1     -27.790 -33.129  24.868  1.00  0.00    -0.333 N 
HETATM   27  C16 UNL     1     -27.559 -33.926  25.927  1.00  0.00     0.093 A 
ATOM     28  H3  UNL     1     -28.614 -33.257  24.280  1.00  0.00     0.168 HD
HETATM   29  C17 UNL     1     -26.452 -33.769  26.736  1.00  0.00     0.049 A 
ENDBRANCH   1  18
TORSDOF 5
ENDMDL
