MODEL 1
REMARK VINA RESULT: -8.898958081      0.000      0.000
REMARK  6 active torsions:
REMARK  status: ('A' for Active; 'I' for Inactive)
REMARK    1  A    between atoms: C2_2  and  O1_3 
REMARK    2  A    between atoms: C2_2  and  C3_5 
REMARK    3  A    between atoms: C3_5  and  N1_6 
REMARK    4  A    between atoms: C3_5  and  C16_26 
REMARK    5  A    between atoms: N1_6  and  C4_8 
REMARK    6  A    between atoms: N5_19  and  C10_20 
ROOT
HETATM    1  C4  UNL     1     -27.292 -33.977  26.920  1.00  0.00     0.679 A 
HETATM    2  N2  UNL     1     -26.023 -33.573  26.818  1.00  0.00    -0.176 N 
ATOM      3  H2  UNL     1     -25.771 -32.849  26.145  1.00  0.00     0.186 HD
HETATM    4  C5  UNL     1     -25.079 -34.118  27.599  1.00  0.00     0.136 A 
HETATM    5  C6  UNL     1     -25.396 -35.102  28.519  1.00  0.00     0.028 A 
HETATM    6  C7  UNL     1     -26.713 -35.516  28.620  1.00  0.00     0.121 A 
HETATM    7  N3  UNL     1     -27.605 -34.929  27.809  1.00  0.00    -0.201 N 
ATOM      8  H3  UNL     1     -28.579 -35.225  27.873  1.00  0.00     0.183 HD
HETATM    9  C8  UNL     1     -24.216 -35.432  29.138  1.00  0.00     0.062 A 
HETATM   10  C9  UNL     1     -23.229 -34.645  28.581  1.00  0.00     0.121 A 
HETATM   11  N4  UNL     1     -21.847 -34.678  28.949  1.00  0.00    -0.082 NA
HETATM   12  N5  UNL     1     -23.748 -33.842  27.641  1.00  0.00    -0.316 N 
ENDROOT
BRANCH   1  13
HETATM   13  N1  UNL     1     -28.242 -33.481  26.187  1.00  0.00    -0.218 N 
ATOM     14  H1  UNL     1     -28.834 -32.733  26.549  1.00  0.00     0.178 HD
BRANCH  13  15
HETATM   15  C3  UNL     1     -28.461 -34.013  24.815  1.00  0.00     0.131 C 
BRANCH  15  16
HETATM   16  C2  UNL     1     -29.811 -34.585  24.694  1.00  0.00     0.137 C 
HETATM   17  C1  UNL     1     -30.701 -34.354  25.854  1.00  0.00     0.041 C 
BRANCH  16  18
HETATM   18  O1  UNL     1     -29.738 -35.974  24.430  1.00  0.00    -0.394 OA
ATOM     19  H1  UNL     1     -28.836 -36.211  24.248  1.00  0.00     0.210 HD
ENDBRANCH  16  18
ENDBRANCH  15  16
BRANCH  15  20
HETATM   20  C16 UNL     1     -28.176 -32.932  23.839  1.00  0.00     0.011 C 
HETATM   21  C17 UNL     1     -27.417 -31.734  24.292  1.00  0.00     0.007 C 
HETATM   22  C18 UNL     1     -27.571 -30.603  23.255  1.00  0.00     0.000 C 
HETATM   23  C19 UNL     1     -27.725 -31.162  21.867  1.00  0.00     0.000 C 
HETATM   24  C20 UNL     1     -29.071 -31.856  21.811  1.00  0.00     0.000 C 
HETATM   25  C21 UNL     1     -29.452 -32.431  23.160  1.00  0.00     0.007 C 
ENDBRANCH  15  20
ENDBRANCH  13  15
ENDBRANCH   1  13
BRANCH  12  26
HETATM   26  C10 UNL     1     -22.986 -32.888  26.859  1.00  0.00     0.092 C 
HETATM   27  C11 UNL     1     -22.397 -33.520  25.623  1.00  0.00     0.026 C 
HETATM   28  C12 UNL     1     -21.442 -32.448  25.077  1.00  0.00     0.002 C 
HETATM   29  C13 UNL     1     -22.303 -31.385  24.462  1.00  0.00     0.000 C 
HETATM   30  C14 UNL     1     -23.582 -31.123  25.158  1.00  0.00     0.002 C 
HETATM   31  C15 UNL     1     -23.746 -31.658  26.523  1.00  0.00     0.026 C 
ENDBRANCH  12  26
TORSDOF 6
ENDMDL
MODEL 2
REMARK VINA RESULT: -8.748510607      2.427      7.371
REMARK  6 active torsions:
REMARK  status: ('A' for Active; 'I' for Inactive)
REMARK    1  A    between atoms: C2_2  and  O1_3 
REMARK    2  A    between atoms: C2_2  and  C3_5 
REMARK    3  A    between atoms: C3_5  and  N1_6 
REMARK    4  A    between atoms: C3_5  and  C16_26 
REMARK    5  A    between atoms: N1_6  and  C4_8 
REMARK    6  A    between atoms: N5_19  and  C10_20 
ROOT
HETATM    1  C4  UNL     1     -25.755 -32.459  26.157  1.00  0.00     0.679 A 
HETATM    2  N2  UNL     1     -27.001 -32.831  25.852  1.00  0.00    -0.176 N 
ATOM      3  H2  UNL     1     -27.471 -33.542  26.412  1.00  0.00     0.186 HD
HETATM    4  C5  UNL     1     -27.635 -32.270  24.812  1.00  0.00     0.136 A 
HETATM    5  C6  UNL     1     -27.017 -31.302  24.039  1.00  0.00     0.028 A 
HETATM    6  C7  UNL     1     -25.726 -30.921  24.360  1.00  0.00     0.121 A 
HETATM    7  N3  UNL     1     -25.152 -31.522  25.412  1.00  0.00    -0.201 N 
ATOM      8  H3  UNL     1     -24.201 -31.250  25.659  1.00  0.00     0.183 HD
HETATM    9  C8  UNL     1     -27.931 -30.951  23.077  1.00  0.00     0.062 A 
HETATM   10  C9  UNL     1     -29.064 -31.708  23.295  1.00  0.00     0.121 A 
HETATM   11  N4  UNL     1     -30.258 -31.644  22.508  1.00  0.00    -0.082 NA
HETATM   12  N5  UNL     1     -28.891 -32.515  24.351  1.00  0.00    -0.316 N 
ENDROOT
BRANCH   1  13
HETATM   13  N1  UNL     1     -25.098 -32.971  27.153  1.00  0.00    -0.218 N 
ATOM     14  H1  UNL     1     -25.534 -33.674  27.749  1.00  0.00     0.178 HD
BRANCH  13  15
HETATM   15  C3  UNL     1     -23.704 -32.521  27.418  1.00  0.00     0.131 C 
BRANCH  15  16
HETATM   16  C2  UNL     1     -23.556 -32.102  28.820  1.00  0.00     0.137 C 
HETATM   17  C1  UNL     1     -22.218 -32.329  29.409  1.00  0.00     0.041 C 
BRANCH  16  18
HETATM   18  O1  UNL     1     -24.536 -32.727  29.629  1.00  0.00    -0.394 OA
ATOM     19  H1  UNL     1     -25.243 -32.114  29.794  1.00  0.00     0.210 HD
ENDBRANCH  16  18
ENDBRANCH  15  16
BRANCH  15  20
HETATM   20  C16 UNL     1     -22.775 -33.605  27.013  1.00  0.00     0.011 C 
HETATM   21  C17 UNL     1     -22.047 -33.485  25.720  1.00  0.00     0.007 C 
HETATM   22  C18 UNL     1     -21.458 -34.856  25.330  1.00  0.00     0.000 C 
HETATM   23  C19 UNL     1     -21.100 -35.656  26.551  1.00  0.00     0.000 C 
HETATM   24  C20 UNL     1     -22.398 -36.030  27.238  1.00  0.00     0.000 C 
HETATM   25  C21 UNL     1     -23.462 -34.973  27.021  1.00  0.00     0.007 C 
ENDBRANCH  15  20
ENDBRANCH  13  15
ENDBRANCH   1  13
BRANCH  12  26
HETATM   26  C10 UNL     1     -29.885 -33.442  24.853  1.00  0.00     0.092 C 
HETATM   27  C11 UNL     1     -29.953 -34.696  24.017  1.00  0.00     0.026 C 
HETATM   28  C12 UNL     1     -31.203 -35.421  24.537  1.00  0.00     0.002 C 
HETATM   29  C13 UNL     1     -30.836 -35.997  25.872  1.00  0.00     0.000 C 
HETATM   30  C14 UNL     1     -29.919 -35.172  26.688  1.00  0.00     0.002 C 
HETATM   31  C15 UNL     1     -29.720 -33.765  26.292  1.00  0.00     0.026 C 
ENDBRANCH  12  26
TORSDOF 6
ENDMDL
MODEL 3
REMARK VINA RESULT: -8.713713301      2.713      7.402
REMARK  6 active torsions:
REMARK  status: ('A' for Active; 'I' for Inactive)
REMARK    1  A    between atoms: C2_2  and  O1_3 
REMARK    2  A    between atoms: C2_2  and  C3_5 
REMARK    3  A    between atoms: C3_5  and  N1_6 
REMARK    4  A    between atoms: C3_5  and  C16_26 
REMARK    5  A    between atoms: N1_6  and  C4_8 
REMARK    6  A    between atoms: N5_19  and  C10_20 
ROOT
HETATM    1  C4  UNL     1     -25.954 -31.081  24.465  1.00  0.00     0.679 A 
HETATM    2  N2  UNL     1     -27.020 -31.848  24.712  1.00  0.00    -0.176 N 
ATOM      3  H2  UNL     1     -27.037 -32.446  25.538  1.00  0.00     0.186 HD
HETATM    4  C5  UNL     1     -28.067 -31.834  23.875  1.00  0.00     0.136 A 
HETATM    5  C6  UNL     1     -28.067 -31.031  22.747  1.00  0.00     0.028 A 
HETATM    6  C7  UNL     1     -26.960 -30.238  22.498  1.00  0.00     0.121 A 
HETATM    7  N3  UNL     1     -25.949 -30.302  23.375  1.00  0.00    -0.201 N 
ATOM      8  H3  UNL     1     -25.127 -29.723  23.203  1.00  0.00     0.183 HD
HETATM    9  C8  UNL     1     -29.269 -31.258  22.125  1.00  0.00     0.062 A 
HETATM   10  C9  UNL     1     -29.955 -32.181  22.886  1.00  0.00     0.121 A 
HETATM   11  N4  UNL     1     -31.258 -32.689  22.584  1.00  0.00    -0.082 NA
HETATM   12  N5  UNL     1     -29.229 -32.537  23.955  1.00  0.00    -0.316 N 
ENDROOT
BRANCH   1  13
HETATM   13  N1  UNL     1     -24.916 -31.059  25.245  1.00  0.00    -0.218 N 
ATOM     14  H1  UNL     1     -24.753 -30.263  25.862  1.00  0.00     0.178 HD
BRANCH  13  15
HETATM   15  C3  UNL     1     -23.967 -32.204  25.230  1.00  0.00     0.131 C 
BRANCH  15  16
HETATM   16  C2  UNL     1     -22.677 -31.796  24.652  1.00  0.00     0.137 C 
HETATM   17  C1  UNL     1     -21.500 -32.548  25.141  1.00  0.00     0.041 C 
BRANCH  16  18
HETATM   18  O1  UNL     1     -22.463 -30.410  24.851  1.00  0.00    -0.394 OA
ATOM     19  H1  UNL     1     -21.974 -30.060  24.115  1.00  0.00     0.210 HD
ENDBRANCH  16  18
ENDBRANCH  15  16
BRANCH  15  20
HETATM   20  C16 UNL     1     -23.863 -32.748  26.607  1.00  0.00     0.011 C 
HETATM   21  C17 UNL     1     -24.829 -33.795  27.042  1.00  0.00     0.007 C 
HETATM   22  C18 UNL     1     -24.788 -33.928  28.578  1.00  0.00     0.000 C 
HETATM   23  C19 UNL     1     -23.415 -33.621  29.109  1.00  0.00     0.000 C 
HETATM   24  C20 UNL     1     -23.171 -32.141  28.893  1.00  0.00     0.000 C 
HETATM   25  C21 UNL     1     -23.894 -31.638  27.659  1.00  0.00     0.007 C 
ENDBRANCH  15  20
ENDBRANCH  13  15
ENDBRANCH   1  13
BRANCH  12  26
HETATM   26  C10 UNL     1     -29.654 -33.490  24.962  1.00  0.00     0.092 C 
HETATM   27  C11 UNL     1     -29.270 -34.901  24.595  1.00  0.00     0.026 C 
HETATM   28  C12 UNL     1     -30.009 -35.767  25.626  1.00  0.00     0.002 C 
HETATM   29  C13 UNL     1     -29.271 -35.607  26.922  1.00  0.00     0.000 C 
HETATM   30  C14 UNL     1     -28.713 -34.260  27.172  1.00  0.00     0.002 C 
HETATM   31  C15 UNL     1     -29.194 -33.148  26.331  1.00  0.00     0.026 C 
ENDBRANCH  12  26
TORSDOF 6
ENDMDL
MODEL 4
REMARK VINA RESULT: -8.694879326      2.705      7.421
REMARK  6 active torsions:
REMARK  status: ('A' for Active; 'I' for Inactive)
REMARK    1  A    between atoms: C2_2  and  O1_3 
REMARK    2  A    between atoms: C2_2  and  C3_5 
REMARK    3  A    between atoms: C3_5  and  N1_6 
REMARK    4  A    between atoms: C3_5  and  C16_26 
REMARK    5  A    between atoms: N1_6  and  C4_8 
REMARK    6  A    between atoms: N5_19  and  C10_20 
ROOT
HETATM    1  C4  UNL     1     -24.534 -32.775  26.755  1.00  0.00     0.679 A 
HETATM    2  N2  UNL     1     -25.792 -33.023  26.379  1.00  0.00    -0.176 N 
ATOM      3  H2  UNL     1     -26.296 -33.815  26.777  1.00  0.00     0.186 HD
HETATM    4  C5  UNL     1     -26.393 -32.232  25.478  1.00  0.00     0.136 A 
HETATM    5  C6  UNL     1     -25.729 -31.151  24.923  1.00  0.00     0.028 A 
HETATM    6  C7  UNL     1     -24.426 -30.900  25.318  1.00  0.00     0.121 A 
HETATM    7  N3  UNL     1     -23.887 -31.730  26.221  1.00  0.00    -0.201 N 
ATOM      8  H3  UNL     1     -22.928 -31.556  26.520  1.00  0.00     0.183 HD
HETATM    9  C8  UNL     1     -26.619 -30.570  24.055  1.00  0.00     0.062 A 
HETATM   10  C9  UNL     1     -27.784 -31.307  24.109  1.00  0.00     0.121 A 
HETATM   11  N4  UNL     1     -28.966 -31.031  23.352  1.00  0.00    -0.082 NA
HETATM   12  N5  UNL     1     -27.653 -32.323  24.974  1.00  0.00    -0.316 N 
ENDROOT
BRANCH   1  13
HETATM   13  N1  UNL     1     -23.909 -33.510  27.623  1.00  0.00    -0.218 N 
ATOM     14  H1  UNL     1     -24.412 -34.222  28.152  1.00  0.00     0.178 HD
BRANCH  13  15
HETATM   15  C3  UNL     1     -22.451 -33.305  27.839  1.00  0.00     0.131 C 
BRANCH  15  16
HETATM   16  C2  UNL     1     -22.208 -32.676  29.146  1.00  0.00     0.137 C 
HETATM   17  C1  UNL     1     -22.181 -33.604  30.299  1.00  0.00     0.041 C 
BRANCH  16  18
HETATM   18  O1  UNL     1     -23.160 -31.656  29.389  1.00  0.00    -0.394 OA
ATOM     19  H1  UNL     1     -22.714 -30.820  29.452  1.00  0.00     0.210 HD
ENDBRANCH  16  18
ENDBRANCH  15  16
BRANCH  15  20
HETATM   20  C16 UNL     1     -21.760 -34.606  27.660  1.00  0.00     0.011 C 
HETATM   21  C17 UNL     1     -20.351 -34.613  27.178  1.00  0.00     0.007 C 
HETATM   22  C18 UNL     1     -19.975 -36.033  26.706  1.00  0.00     0.000 C 
HETATM   23  C19 UNL     1     -20.715 -37.077  27.496  1.00  0.00     0.000 C 
HETATM   24  C20 UNL     1     -22.178 -36.972  27.116  1.00  0.00     0.000 C 
HETATM   25  C21 UNL     1     -22.554 -35.550  26.755  1.00  0.00     0.007 C 
ENDBRANCH  15  20
ENDBRANCH  13  15
ENDBRANCH   1  13
BRANCH  12  26
HETATM   26  C10 UNL     1     -28.689 -33.292  25.272  1.00  0.00     0.092 C 
HETATM   27  C11 UNL     1     -28.411 -34.626  24.625  1.00  0.00     0.026 C 
HETATM   28  C12 UNL     1     -29.708 -35.419  24.836  1.00  0.00     0.002 C 
HETATM   29  C13 UNL     1     -29.735 -35.813  26.283  1.00  0.00     0.000 C 
HETATM   30  C14 UNL     1     -29.174 -34.817  27.222  1.00  0.00     0.002 C 
HETATM   31  C15 UNL     1     -28.958 -33.446  26.723  1.00  0.00     0.026 C 
ENDBRANCH  12  26
TORSDOF 6
ENDMDL
MODEL 5
REMARK VINA RESULT: -8.682924375      1.258      1.515
REMARK  6 active torsions:
REMARK  status: ('A' for Active; 'I' for Inactive)
REMARK    1  A    between atoms: C2_2  and  O1_3 
REMARK    2  A    between atoms: C2_2  and  C3_5 
REMARK    3  A    between atoms: C3_5  and  N1_6 
REMARK    4  A    between atoms: C3_5  and  C16_26 
REMARK    5  A    between atoms: N1_6  and  C4_8 
REMARK    6  A    between atoms: N5_19  and  C10_20 
ROOT
HETATM    1  C4  UNL     1     -27.463 -34.871  26.842  1.00  0.00     0.679 A 
HETATM    2  N2  UNL     1     -26.131 -34.787  26.898  1.00  0.00    -0.176 N 
ATOM      3  H2  UNL     1     -25.652 -34.000  26.462  1.00  0.00     0.186 HD
HETATM    4  C5  UNL     1     -25.423 -35.736  27.528  1.00  0.00     0.136 A 
HETATM    5  C6  UNL     1     -26.052 -36.814  28.128  1.00  0.00     0.028 A 
HETATM    6  C7  UNL     1     -27.432 -36.894  28.067  1.00  0.00     0.121 A 
HETATM    7  N3  UNL     1     -28.077 -35.912  27.422  1.00  0.00    -0.201 N 
ATOM      8  H3  UNL     1     -29.094 -35.960  27.369  1.00  0.00     0.183 HD
HETATM    9  C8  UNL     1     -25.049 -37.579  28.670  1.00  0.00     0.062 A 
HETATM   10  C9  UNL     1     -23.855 -36.948  28.385  1.00  0.00     0.121 A 
HETATM   11  N4  UNL     1     -22.563 -37.423  28.775  1.00  0.00    -0.082 NA
HETATM   12  N5  UNL     1     -24.076 -35.824  27.689  1.00  0.00    -0.316 N 
ENDROOT
BRANCH   1  13
HETATM   13  N1  UNL     1     -28.194 -33.979  26.245  1.00  0.00    -0.218 N 
ATOM     14  H1  UNL     1     -28.534 -33.166  26.758  1.00  0.00     0.178 HD
BRANCH  13  15
HETATM   15  C3  UNL     1     -28.530 -34.154  24.807  1.00  0.00     0.131 C 
BRANCH  15  16
HETATM   16  C2  UNL     1     -29.960 -34.456  24.645  1.00  0.00     0.137 C 
HETATM   17  C1  UNL     1     -30.796 -34.212  25.842  1.00  0.00     0.041 C 
BRANCH  16  18
HETATM   18  O1  UNL     1     -30.137 -35.793  24.215  1.00  0.00    -0.394 OA
ATOM     19  H1  UNL     1     -30.127 -35.821  23.266  1.00  0.00     0.210 HD
ENDBRANCH  16  18
ENDBRANCH  15  16
BRANCH  15  20
HETATM   20  C16 UNL     1     -28.084 -32.946  24.069  1.00  0.00     0.011 C 
HETATM   21  C17 UNL     1     -27.354 -31.878  24.808  1.00  0.00     0.007 C 
HETATM   22  C18 UNL     1     -27.333 -30.588  23.963  1.00  0.00     0.000 C 
HETATM   23  C19 UNL     1     -27.319 -30.906  22.493  1.00  0.00     0.000 C 
HETATM   24  C20 UNL     1     -28.667 -31.510  22.153  1.00  0.00     0.000 C 
HETATM   25  C21 UNL     1     -29.242 -32.273  23.329  1.00  0.00     0.007 C 
ENDBRANCH  15  20
ENDBRANCH  13  15
ENDBRANCH   1  13
BRANCH  12  26
HETATM   26  C10 UNL     1     -23.038 -34.922  27.228  1.00  0.00     0.092 C 
HETATM   27  C11 UNL     1     -22.507 -35.325  25.875  1.00  0.00     0.026 C 
HETATM   28  C12 UNL     1     -21.277 -34.428  25.677  1.00  0.00     0.002 C 
HETATM   29  C13 UNL     1     -21.797 -33.054  25.373  1.00  0.00     0.000 C 
HETATM   30  C14 UNL     1     -23.034 -32.672  26.089  1.00  0.00     0.002 C 
HETATM   31  C15 UNL     1     -23.446 -33.495  27.241  1.00  0.00     0.026 C 
ENDBRANCH  12  26
TORSDOF 6
ENDMDL
