MODEL 1
REMARK VINA RESULT: -8.505015374      0.000      0.000
REMARK  14 active torsions:
REMARK  status: ('A' for Active; 'I' for Inactive)
REMARK    1  A    between atoms: C2_2  and  C3_3 
REMARK    2  A    between atoms: C3_3  and  N1_4 
REMARK    3  A    between atoms: C3_3  and  C19_44 
REMARK    4  A    between atoms: C4_6  and  O1_7 
REMARK    5  A    between atoms: C4_6  and  C5_9 
REMARK    6  A    between atoms: C8_16  and  C9_17 
REMARK    7  A    between atoms: C9_17  and  O2_18 
REMARK    8  A    between atoms: C9_17  and  N5_20 
REMARK    9  A    between atoms: N5_20  and  C10_22 
REMARK   10  A    between atoms: C10_22  and  C11_23 
REMARK   11  A    between atoms: C15_31  and  C16_32 
REMARK   12  A    between atoms: C17_41  and  N12_42 
REMARK   13  A    between atoms: C19_44  and  N13_45 
REMARK   14  A    between atoms: C19_44  and  O3_49 
ROOT
HETATM    1  C5  UNL     1      29.957  36.444  38.323  1.00  0.00     0.098 A 
HETATM    2  C6  UNL     1      30.342  37.789  38.131  1.00  0.00     0.135 A 
HETATM    3  N2  UNL     1      30.326  38.398  36.835  1.00  0.00    -0.082 NA
HETATM    4  N3  UNL     1      30.733  38.493  39.187  1.00  0.00    -0.332 N 
ATOM      5  H3  UNL     1      31.011  39.464  39.049  1.00  0.00     0.168 HD
HETATM    6  C7  UNL     1      30.777  37.990  40.413  1.00  0.00     0.135 A 
HETATM    7  N4  UNL     1      31.212  38.869  41.440  1.00  0.00    -0.082 NA
HETATM    8  C8  UNL     1      30.417  36.676  40.712  1.00  0.00     0.097 A 
HETATM    9  C17 UNL     1      29.995  35.887  39.623  1.00  0.00     0.141 A 
ENDROOT
BRANCH   8  10
HETATM   10  C9  UNL     1      30.526  36.283  42.079  1.00  0.00     0.153 C 
BRANCH  10  11
HETATM   11  O2  UNL     1      29.404  36.348  42.776  1.00  0.00    -0.346 OA
ATOM     12  H2  UNL     1      29.499  36.657  43.669  1.00  0.00     0.219 HD
ENDBRANCH  10  11
BRANCH  10  13
HETATM   13  N5  UNL     1      31.577  35.834  42.870  1.00  0.00    -0.364 N 
ATOM     14  H5  UNL     1      31.490  35.819  43.886  1.00  0.00     0.162 HD
BRANCH  13  15
HETATM   15  C10 UNL     1      32.821  35.378  42.218  1.00  0.00     0.181 C 
BRANCH  15  16
HETATM   16  C11 UNL     1      33.979  35.624  43.118  1.00  0.00     0.060 A 
HETATM   17  N6  UNL     1      34.489  34.810  44.062  1.00  0.00    -0.336 N 
HETATM   18  C12 UNL     1      35.542  35.470  44.640  1.00  0.00     0.155 A 
ATOM     19  H6  UNL     1      34.154  33.877  44.302  1.00  0.00     0.168 HD
HETATM   20  S1  UNL     1      36.770  35.384  45.816  1.00  0.00    -0.064 SA
HETATM   21  N7  UNL     1      35.719  36.671  44.098  1.00  0.00    -0.297 N 
HETATM   22  C13 UNL     1      37.474  36.915  45.565  1.00  0.00     0.071 A 
HETATM   23  C14 UNL     1      36.697  37.421  44.556  1.00  0.00     0.107 A 
HETATM   24  C15 UNL     1      34.735  36.774  43.137  1.00  0.00     0.112 A 
BRANCH  24  25
HETATM   25  C16 UNL     1      34.476  37.894  42.240  1.00  0.00     0.167 A 
HETATM   26  N8  UNL     1      34.412  37.926  40.905  1.00  0.00    -0.267 N 
HETATM   27  N9  UNL     1      34.148  39.170  40.514  1.00  0.00    -0.227 N 
ATOM     28  H8  UNL     1      34.544  37.126  40.286  1.00  0.00     0.190 HD
HETATM   29  N10 UNL     1      34.045  39.924  41.588  1.00  0.00    -0.227 N 
ATOM     30  H9  UNL     1      34.044  39.484  39.549  1.00  0.00     0.210 HD
HETATM   31  N11 UNL     1      34.244  39.150  42.644  1.00  0.00    -0.267 N 
ATOM     32  H10 UNL     1      33.847  40.924  41.604  1.00  0.00     0.210 HD
ATOM     33  H11 UNL     1      34.224  39.462  43.615  1.00  0.00     0.190 HD
ENDBRANCH  24  25
ENDBRANCH  15  16
ENDBRANCH  13  15
ENDBRANCH  10  13
ENDBRANCH   8  10
BRANCH   9  34
HETATM   34  N12 UNL     1      29.647  34.754  39.833  1.00  0.00    -0.427 NA
HETATM   35  C18 UNL     1      28.971  33.614  40.062  1.00  0.00     0.229 C 
ENDBRANCH   9  34
BRANCH   1  36
HETATM   36  C4  UNL     1      29.531  35.789  37.126  1.00  0.00     0.157 C 
HETATM   37  N1  UNL     1      28.483  36.020  36.284  1.00  0.00    -0.339 N 
ATOM     38  H1  UNL     1      28.458  36.980  35.940  1.00  0.00     0.167 HD
BRANCH  37  39
HETATM   39  C3  UNL     1      27.538  35.317  35.832  1.00  0.00     0.044 C 
BRANCH  39  40
HETATM   40  C2  UNL     1      26.809  34.424  36.826  1.00  0.00     0.052 C 
HETATM   41  C1  UNL     1      27.191  32.987  36.618  1.00  0.00     0.011 C 
ENDBRANCH  39  40
BRANCH  39  42
HETATM   42  C19 UNL     1      27.010  35.217  34.457  1.00  0.00     0.363 C 
BRANCH  42  43
HETATM   43  N13 UNL     1      27.473  36.198  33.534  1.00  0.00    -0.048 N 
ATOM     44 3H13 UNL     1      26.683  36.735  33.175  1.00  0.00     0.277 HD
ATOM     45 2H13 UNL     1      27.981  36.928  34.033  1.00  0.00     0.277 HD
ATOM     46 1H13 UNL     1      28.038  35.853  32.758  1.00  0.00     0.277 HD
ENDBRANCH  42  43
BRANCH  42  47
HETATM   47  O3  UNL     1      25.610  35.285  34.478  1.00  0.00    -0.366 OA
ATOM     48  H3  UNL     1      25.260  34.977  33.651  1.00  0.00     0.212 HD
ENDBRANCH  42  47
ENDBRANCH  39  42
ENDBRANCH  37  39
BRANCH  36  49
HETATM   49  O1  UNL     1      30.259  34.768  36.735  1.00  0.00    -0.345 OA
ATOM     50  H1  UNL     1      30.809  34.989  35.992  1.00  0.00     0.219 HD
ENDBRANCH  36  49
ENDBRANCH   1  36
TORSDOF 14
ENDMDL
MODEL 2
REMARK VINA RESULT: -8.459449235      2.289      3.687
REMARK  14 active torsions:
REMARK  status: ('A' for Active; 'I' for Inactive)
REMARK    1  A    between atoms: C2_2  and  C3_3 
REMARK    2  A    between atoms: C3_3  and  N1_4 
REMARK    3  A    between atoms: C3_3  and  C19_44 
REMARK    4  A    between atoms: C4_6  and  O1_7 
REMARK    5  A    between atoms: C4_6  and  C5_9 
REMARK    6  A    between atoms: C8_16  and  C9_17 
REMARK    7  A    between atoms: C9_17  and  O2_18 
REMARK    8  A    between atoms: C9_17  and  N5_20 
REMARK    9  A    between atoms: N5_20  and  C10_22 
REMARK   10  A    between atoms: C10_22  and  C11_23 
REMARK   11  A    between atoms: C15_31  and  C16_32 
REMARK   12  A    between atoms: C17_41  and  N12_42 
REMARK   13  A    between atoms: C19_44  and  N13_45 
REMARK   14  A    between atoms: C19_44  and  O3_49 
ROOT
HETATM    1  C5  UNL     1      30.687  38.098  39.325  1.00  0.00     0.098 A 
HETATM    2  C6  UNL     1      30.714  39.036  38.270  1.00  0.00     0.135 A 
HETATM    3  N2  UNL     1      30.488  38.646  36.910  1.00  0.00    -0.082 NA
HETATM    4  N3  UNL     1      30.962  40.308  38.560  1.00  0.00    -0.332 N 
ATOM      5  H3  UNL     1      30.981  40.987  37.798  1.00  0.00     0.168 HD
HETATM    6  C7  UNL     1      31.185  40.736  39.794  1.00  0.00     0.135 A 
HETATM    7  N4  UNL     1      31.430  42.127  39.944  1.00  0.00    -0.082 NA
HETATM    8  C8  UNL     1      31.180  39.894  40.907  1.00  0.00     0.097 A 
HETATM    9  C17 UNL     1      30.921  38.533  40.651  1.00  0.00     0.141 A 
ENDROOT
BRANCH   8  10
HETATM   10  C9  UNL     1      31.444  40.507  42.168  1.00  0.00     0.153 C 
BRANCH  10  11
HETATM   11  O2  UNL     1      30.559  41.410  42.553  1.00  0.00    -0.346 OA
ATOM     12  H2  UNL     1      30.865  42.310  42.537  1.00  0.00     0.219 HD
ENDBRANCH  10  11
BRANCH  10  13
HETATM   13  N5  UNL     1      32.453  40.364  43.113  1.00  0.00    -0.364 N 
ATOM     14  H5  UNL     1      32.236  40.045  44.057  1.00  0.00     0.162 HD
BRANCH  13  15
HETATM   15  C10 UNL     1      33.844  40.682  42.732  1.00  0.00     0.181 C 
BRANCH  15  16
HETATM   16  C11 UNL     1      34.787  39.912  43.586  1.00  0.00     0.060 A 
HETATM   17  N6  UNL     1      35.490  40.344  44.651  1.00  0.00    -0.336 N 
HETATM   18  C12 UNL     1      36.229  39.284  45.105  1.00  0.00     0.155 A 
ATOM     19  H6  UNL     1      35.474  41.284  45.045  1.00  0.00     0.168 HD
HETATM   20  S1  UNL     1      37.353  38.761  46.273  1.00  0.00    -0.064 SA
HETATM   21  N7  UNL     1      36.022  38.196  44.369  1.00  0.00    -0.297 N 
HETATM   22  C13 UNL     1      37.518  37.143  45.764  1.00  0.00     0.071 A 
HETATM   23  C14 UNL     1      36.669  37.097  44.689  1.00  0.00     0.107 A 
HETATM   24  C15 UNL     1      35.113  38.586  43.408  1.00  0.00     0.112 A 
BRANCH  24  25
HETATM   25  C16 UNL     1      34.539  37.777  42.341  1.00  0.00     0.167 A 
HETATM   26  N8  UNL     1      34.432  38.034  41.033  1.00  0.00    -0.267 N 
HETATM   27  N9  UNL     1      33.838  37.005  40.436  1.00  0.00    -0.227 N 
ATOM     28  H8  UNL     1      34.755  38.883  40.568  1.00  0.00     0.190 HD
HETATM   29  N10 UNL     1      33.567  36.100  41.352  1.00  0.00    -0.227 N 
ATOM     30  H9  UNL     1      33.627  36.931  39.440  1.00  0.00     0.210 HD
HETATM   31  N11 UNL     1      33.993  36.567  42.517  1.00  0.00    -0.267 N 
ATOM     32  H10 UNL     1      33.112  35.202  41.195  1.00  0.00     0.210 HD
ATOM     33  H11 UNL     1      33.917  36.079  43.410  1.00  0.00     0.190 HD
ENDBRANCH  24  25
ENDBRANCH  15  16
ENDBRANCH  13  15
ENDBRANCH  10  13
ENDBRANCH   8  10
BRANCH   9  34
HETATM   34  N12 UNL     1      30.878  37.770  41.581  1.00  0.00    -0.427 NA
HETATM   35  C18 UNL     1      30.548  37.047  42.666  1.00  0.00     0.229 C 
ENDBRANCH   9  34
BRANCH   1  36
HETATM   36  C4  UNL     1      30.387  36.765  38.905  1.00  0.00     0.157 C 
HETATM   37  N1  UNL     1      29.207  36.091  38.785  1.00  0.00    -0.339 N 
ATOM     38  H1  UNL     1      28.529  36.583  38.203  1.00  0.00     0.167 HD
BRANCH  37  39
HETATM   39  C3  UNL     1      28.762  34.998  39.231  1.00  0.00     0.044 C 
BRANCH  39  40
HETATM   40  C2  UNL     1      28.054  34.086  38.240  1.00  0.00     0.052 C 
HETATM   41  C1  UNL     1      27.296  34.898  37.230  1.00  0.00     0.011 C 
ENDBRANCH  39  40
BRANCH  39  42
HETATM   42  C19 UNL     1      28.819  34.445  40.599  1.00  0.00     0.363 C 
BRANCH  42  43
HETATM   43  N13 UNL     1      28.634  33.037  40.715  1.00  0.00    -0.048 N 
ATOM     44 3H13 UNL     1      27.729  32.774  40.324  1.00  0.00     0.277 HD
ATOM     45 2H13 UNL     1      29.260  32.553  40.072  1.00  0.00     0.277 HD
ATOM     46 1H13 UNL     1      28.732  32.647  41.652  1.00  0.00     0.277 HD
ENDBRANCH  42  43
BRANCH  42  47
HETATM   47  O3  UNL     1      27.854  35.065  41.404  1.00  0.00    -0.366 OA
ATOM     48  H3  UNL     1      27.572  35.877  41.001  1.00  0.00     0.212 HD
ENDBRANCH  42  47
ENDBRANCH  39  42
ENDBRANCH  37  39
BRANCH  36  49
HETATM   49  O1  UNL     1      31.413  36.020  38.565  1.00  0.00    -0.345 OA
ATOM     50  H1  UNL     1      32.158  36.545  38.295  1.00  0.00     0.219 HD
ENDBRANCH  36  49
ENDBRANCH   1  36
TORSDOF 14
ENDMDL
MODEL 3
REMARK VINA RESULT: -8.431918607      3.578      9.776
REMARK  14 active torsions:
REMARK  status: ('A' for Active; 'I' for Inactive)
REMARK    1  A    between atoms: C2_2  and  C3_3 
REMARK    2  A    between atoms: C3_3  and  N1_4 
REMARK    3  A    between atoms: C3_3  and  C19_44 
REMARK    4  A    between atoms: C4_6  and  O1_7 
REMARK    5  A    between atoms: C4_6  and  C5_9 
REMARK    6  A    between atoms: C8_16  and  C9_17 
REMARK    7  A    between atoms: C9_17  and  O2_18 
REMARK    8  A    between atoms: C9_17  and  N5_20 
REMARK    9  A    between atoms: N5_20  and  C10_22 
REMARK   10  A    between atoms: C10_22  and  C11_23 
REMARK   11  A    between atoms: C15_31  and  C16_32 
REMARK   12  A    between atoms: C17_41  and  N12_42 
REMARK   13  A    between atoms: C19_44  and  N13_45 
REMARK   14  A    between atoms: C19_44  and  O3_49 
ROOT
HETATM    1  C5  UNL     1      34.892  37.098  43.218  1.00  0.00     0.098 A 
HETATM    2  C6  UNL     1      34.769  35.692  43.182  1.00  0.00     0.135 A 
HETATM    3  N2  UNL     1      35.845  34.833  43.579  1.00  0.00    -0.082 NA
HETATM    4  N3  UNL     1      33.624  35.166  42.764  1.00  0.00    -0.332 N 
ATOM      5  H3  UNL     1      33.535  34.150  42.738  1.00  0.00     0.168 HD
HETATM    6  C7  UNL     1      32.591  35.902  42.378  1.00  0.00     0.135 A 
HETATM    7  N4  UNL     1      31.433  35.193  41.961  1.00  0.00    -0.082 NA
HETATM    8  C8  UNL     1      32.606  37.297  42.375  1.00  0.00     0.097 A 
HETATM    9  C17 UNL     1      33.802  37.903  42.811  1.00  0.00     0.141 A 
ENDROOT
BRANCH   8  10
HETATM   10  C9  UNL     1      31.417  37.944  41.925  1.00  0.00     0.153 C 
BRANCH  10  11
HETATM   11  O2  UNL     1      30.782  38.656  42.839  1.00  0.00    -0.346 OA
ATOM     12  H2  UNL     1      30.285  39.395  42.505  1.00  0.00     0.219 HD
ENDBRANCH  10  11
BRANCH  10  13
HETATM   13  N5  UNL     1      30.755  37.996  40.704  1.00  0.00    -0.364 N 
ATOM     14  H5  UNL     1      29.764  38.237  40.663  1.00  0.00     0.162 HD
BRANCH  13  15
HETATM   15  C10 UNL     1      31.504  37.700  39.467  1.00  0.00     0.181 C 
BRANCH  15  16
HETATM   16  C11 UNL     1      30.586  37.748  38.299  1.00  0.00     0.060 A 
HETATM   17  N6  UNL     1      30.093  38.833  37.670  1.00  0.00    -0.336 N 
HETATM   18  C12 UNL     1      29.283  38.384  36.661  1.00  0.00     0.155 A 
ATOM     19  H6  UNL     1      30.288  39.808  37.902  1.00  0.00     0.168 HD
HETATM   20  S1  UNL     1      28.261  38.843  35.378  1.00  0.00    -0.064 SA
HETATM   21  N7  UNL     1      29.243  37.056  36.625  1.00  0.00    -0.297 N 
HETATM   22  C13 UNL     1      27.814  37.290  34.838  1.00  0.00     0.071 A 
HETATM   23  C14 UNL     1      28.501  36.481  35.705  1.00  0.00     0.107 A 
HETATM   24  C15 UNL     1      30.063  36.648  37.657  1.00  0.00     0.112 A 
BRANCH  24  25
HETATM   25  C16 UNL     1      30.378  35.285  38.063  1.00  0.00     0.167 A 
HETATM   26  N8  UNL     1      30.146  34.661  39.223  1.00  0.00    -0.267 N 
HETATM   27  N9  UNL     1      30.605  33.415  39.144  1.00  0.00    -0.227 N 
ATOM     28  H8  UNL     1      29.691  35.074  40.037  1.00  0.00     0.190 HD
HETATM   29  N10 UNL     1      31.124  33.245  37.947  1.00  0.00    -0.227 N 
ATOM     30  H9  UNL     1      30.562  32.713  39.883  1.00  0.00     0.210 HD
HETATM   31  N11 UNL     1      30.988  34.383  37.283  1.00  0.00    -0.267 N 
ATOM     32  H10 UNL     1      31.554  32.390  37.593  1.00  0.00     0.210 HD
ATOM     33  H11 UNL     1      31.300  34.548  36.325  1.00  0.00     0.190 HD
ENDBRANCH  24  25
ENDBRANCH  15  16
ENDBRANCH  13  15
ENDBRANCH  10  13
ENDBRANCH   8  10
BRANCH   9  34
HETATM   34  N12 UNL     1      33.855  39.105  42.855  1.00  0.00    -0.427 NA
HETATM   35  C18 UNL     1      33.934  40.422  42.591  1.00  0.00     0.229 C 
ENDBRANCH   9  34
BRANCH   1  36
HETATM   36  C4  UNL     1      36.154  37.556  43.708  1.00  0.00     0.157 C 
HETATM   37  N1  UNL     1      36.861  37.248  44.833  1.00  0.00    -0.339 N 
ATOM     38  H1  UNL     1      37.020  36.246  44.937  1.00  0.00     0.167 HD
BRANCH  37  39
HETATM   39  C3  UNL     1      37.363  37.920  45.775  1.00  0.00     0.044 C 
BRANCH  39  40
HETATM   40  C2  UNL     1      38.442  37.242  46.607  1.00  0.00     0.052 C 
HETATM   41  C1  UNL     1      38.444  35.761  46.357  1.00  0.00     0.011 C 
ENDBRANCH  39  40
BRANCH  39  42
HETATM   42  C19 UNL     1      37.064  39.297  46.215  1.00  0.00     0.363 C 
BRANCH  42  43
HETATM   43  N13 UNL     1      36.746  40.230  45.186  1.00  0.00    -0.048 N 
ATOM     44 3H13 UNL     1      36.515  41.133  45.598  1.00  0.00     0.277 HD
ATOM     45 2H13 UNL     1      37.591  40.473  44.669  1.00  0.00     0.277 HD
ATOM     46 1H13 UNL     1      36.012  39.948  44.536  1.00  0.00     0.277 HD
ENDBRANCH  42  43
BRANCH  42  47
HETATM   47  O3  UNL     1      38.150  39.815  46.933  1.00  0.00    -0.366 OA
ATOM     48  H3  UNL     1      38.106  40.763  46.946  1.00  0.00     0.212 HD
ENDBRANCH  42  47
ENDBRANCH  39  42
ENDBRANCH  37  39
BRANCH  36  49
HETATM   49  O1  UNL     1      36.778  38.439  42.964  1.00  0.00    -0.345 OA
ATOM     50  H1  UNL     1      36.368  39.296  43.012  1.00  0.00     0.219 HD
ENDBRANCH  36  49
ENDBRANCH   1  36
TORSDOF 14
ENDMDL
MODEL 4
REMARK VINA RESULT: -8.401015351      2.565      3.698
REMARK  14 active torsions:
REMARK  status: ('A' for Active; 'I' for Inactive)
REMARK    1  A    between atoms: C2_2  and  C3_3 
REMARK    2  A    between atoms: C3_3  and  N1_4 
REMARK    3  A    between atoms: C3_3  and  C19_44 
REMARK    4  A    between atoms: C4_6  and  O1_7 
REMARK    5  A    between atoms: C4_6  and  C5_9 
REMARK    6  A    between atoms: C8_16  and  C9_17 
REMARK    7  A    between atoms: C9_17  and  O2_18 
REMARK    8  A    between atoms: C9_17  and  N5_20 
REMARK    9  A    between atoms: N5_20  and  C10_22 
REMARK   10  A    between atoms: C10_22  and  C11_23 
REMARK   11  A    between atoms: C15_31  and  C16_32 
REMARK   12  A    between atoms: C17_41  and  N12_42 
REMARK   13  A    between atoms: C19_44  and  N13_45 
REMARK   14  A    between atoms: C19_44  and  O3_49 
ROOT
HETATM    1  C5  UNL     1      30.049  36.391  40.024  1.00  0.00     0.098 A 
HETATM    2  C6  UNL     1      30.358  36.923  38.753  1.00  0.00     0.135 A 
HETATM    3  N2  UNL     1      30.035  36.221  37.546  1.00  0.00    -0.082 NA
HETATM    4  N3  UNL     1      30.967  38.101  38.689  1.00  0.00    -0.332 N 
ATOM      5  H3  UNL     1      31.191  38.485  37.771  1.00  0.00     0.168 HD
HETATM    6  C7  UNL     1      31.300  38.799  39.765  1.00  0.00     0.135 A 
HETATM    7  N4  UNL     1      31.943  40.045  39.534  1.00  0.00    -0.082 NA
HETATM    8  C8  UNL     1      31.040  38.368  41.066  1.00  0.00     0.097 A 
HETATM    9  C17 UNL     1      30.393  37.121  41.186  1.00  0.00     0.141 A 
ENDROOT
BRANCH   8  10
HETATM   10  C9  UNL     1      31.465  39.232  42.119  1.00  0.00     0.153 C 
BRANCH  10  11
HETATM   11  O2  UNL     1      30.743  40.327  42.276  1.00  0.00    -0.346 OA
ATOM     12  H2  UNL     1      31.154  41.015  42.787  1.00  0.00     0.219 HD
ENDBRANCH  10  11
BRANCH  10  13
HETATM   13  N5  UNL     1      32.500  39.181  43.045  1.00  0.00    -0.364 N 
ATOM     14  H5  UNL     1      32.378  38.690  43.930  1.00  0.00     0.162 HD
BRANCH  13  15
HETATM   15  C10 UNL     1      33.780  39.847  42.730  1.00  0.00     0.181 C 
BRANCH  15  16
HETATM   16  C11 UNL     1      34.830  39.394  43.679  1.00  0.00     0.060 A 
HETATM   17  N6  UNL     1      35.486  40.120  44.605  1.00  0.00    -0.336 N 
HETATM   18  C12 UNL     1      36.367  39.277  45.231  1.00  0.00     0.155 A 
ATOM     19  H6  UNL     1      35.352  41.111  44.803  1.00  0.00     0.168 HD
HETATM   20  S1  UNL     1      37.569  39.151  46.430  1.00  0.00    -0.064 SA
HETATM   21  N7  UNL     1      36.294  38.045  44.737  1.00  0.00    -0.297 N 
HETATM   22  C13 UNL     1      37.938  37.497  46.250  1.00  0.00     0.071 A 
HETATM   23  C14 UNL     1      37.086  37.125  45.243  1.00  0.00     0.107 A 
HETATM   24  C15 UNL     1      35.326  38.112  43.757  1.00  0.00     0.112 A 
BRANCH  24  25
HETATM   25  C16 UNL     1      34.847  37.036  42.899  1.00  0.00     0.167 A 
HETATM   26  N8  UNL     1      33.900  36.119  43.121  1.00  0.00    -0.267 N 
HETATM   27  N9  UNL     1      33.797  35.334  42.053  1.00  0.00    -0.227 N 
ATOM     28  H8  UNL     1      33.345  36.035  43.974  1.00  0.00     0.190 HD
HETATM   29  N10 UNL     1      34.670  35.745  41.157  1.00  0.00    -0.227 N 
ATOM     30  H9  UNL     1      33.155  34.549  41.946  1.00  0.00     0.210 HD
HETATM   31  N11 UNL     1      35.313  36.784  41.669  1.00  0.00    -0.267 N 
ATOM     32  H10 UNL     1      34.823  35.337  40.235  1.00  0.00     0.210 HD
ATOM     33  H11 UNL     1      36.050  37.310  41.198  1.00  0.00     0.190 HD
ENDBRANCH  24  25
ENDBRANCH  15  16
ENDBRANCH  13  15
ENDBRANCH  10  13
ENDBRANCH   8  10
BRANCH   9  34
HETATM   34  N12 UNL     1      30.121  36.717  42.287  1.00  0.00    -0.427 NA
HETATM   35  C18 UNL     1      29.804  35.988  43.372  1.00  0.00     0.229 C 
ENDBRANCH   9  34
BRANCH   1  36
HETATM   36  C4  UNL     1      29.371  35.134  39.976  1.00  0.00     0.157 C 
HETATM   37  N1  UNL     1      29.828  33.850  40.036  1.00  0.00    -0.339 N 
ATOM     38  H1  UNL     1      30.402  33.674  40.861  1.00  0.00     0.167 HD
BRANCH  37  39
HETATM   39  C3  UNL     1      29.703  32.830  39.304  1.00  0.00     0.044 C 
BRANCH  39  40
HETATM   40  C2  UNL     1      28.785  31.727  39.810  1.00  0.00     0.052 C 
HETATM   41  C1  UNL     1      28.486  31.921  41.269  1.00  0.00     0.011 C 
ENDBRANCH  39  40
BRANCH  39  42
HETATM   42  C19 UNL     1      30.321  32.525  37.998  1.00  0.00     0.363 C 
BRANCH  42  43
HETATM   43  N13 UNL     1      30.738  31.177  37.801  1.00  0.00    -0.048 N 
ATOM     44 3H13 UNL     1      30.078  30.542  38.251  1.00  0.00     0.277 HD
ATOM     45 2H13 UNL     1      30.607  30.915  36.823  1.00  0.00     0.277 HD
ATOM     46 1H13 UNL     1      31.689  30.953  38.094  1.00  0.00     0.277 HD
ENDBRANCH  42  43
BRANCH  42  47
HETATM   47  O3  UNL     1      31.439  33.346  37.797  1.00  0.00    -0.366 OA
ATOM     48  H3  UNL     1      32.231  32.875  38.025  1.00  0.00     0.212 HD
ENDBRANCH  42  47
ENDBRANCH  39  42
ENDBRANCH  37  39
BRANCH  36  49
HETATM   49  O1  UNL     1      28.066  35.184  39.848  1.00  0.00    -0.345 OA
ATOM     50  H1  UNL     1      27.633  35.324  40.682  1.00  0.00     0.219 HD
ENDBRANCH  36  49
ENDBRANCH   1  36
TORSDOF 14
ENDMDL
MODEL 5
REMARK VINA RESULT: -8.394564713      1.909      2.136
REMARK  14 active torsions:
REMARK  status: ('A' for Active; 'I' for Inactive)
REMARK    1  A    between atoms: C2_2  and  C3_3 
REMARK    2  A    between atoms: C3_3  and  N1_4 
REMARK    3  A    between atoms: C3_3  and  C19_44 
REMARK    4  A    between atoms: C4_6  and  O1_7 
REMARK    5  A    between atoms: C4_6  and  C5_9 
REMARK    6  A    between atoms: C8_16  and  C9_17 
REMARK    7  A    between atoms: C9_17  and  O2_18 
REMARK    8  A    between atoms: C9_17  and  N5_20 
REMARK    9  A    between atoms: N5_20  and  C10_22 
REMARK   10  A    between atoms: C10_22  and  C11_23 
REMARK   11  A    between atoms: C15_31  and  C16_32 
REMARK   12  A    between atoms: C17_41  and  N12_42 
REMARK   13  A    between atoms: C19_44  and  N13_45 
REMARK   14  A    between atoms: C19_44  and  O3_49 
ROOT
HETATM    1  C5  UNL     1      30.182  38.195  38.368  1.00  0.00     0.098 A 
HETATM    2  C6  UNL     1      29.919  39.339  39.152  1.00  0.00     0.135 A 
HETATM    3  N2  UNL     1      29.318  40.513  38.592  1.00  0.00    -0.082 NA
HETATM    4  N3  UNL     1      30.247  39.315  40.439  1.00  0.00    -0.332 N 
ATOM      5  H3  UNL     1      30.057  40.142  41.006  1.00  0.00     0.168 HD
HETATM    6  C7  UNL     1      30.811  38.266  41.019  1.00  0.00     0.135 A 
HETATM    7  N4  UNL     1      31.099  38.390  42.405  1.00  0.00    -0.082 NA
HETATM    8  C8  UNL     1      31.112  37.086  40.337  1.00  0.00     0.097 A 
HETATM    9  C17 UNL     1      30.782  37.062  38.967  1.00  0.00     0.141 A 
ENDROOT
BRANCH   8  10
HETATM   10  C9  UNL     1      31.724  36.048  41.102  1.00  0.00     0.153 C 
BRANCH  10  11
HETATM   11  O2  UNL     1      31.279  34.829  40.856  1.00  0.00    -0.346 OA
ATOM     12  H2  UNL     1      31.671  34.140  41.380  1.00  0.00     0.219 HD
ENDBRANCH  10  11
BRANCH  10  13
HETATM   13  N5  UNL     1      32.712  36.030  42.079  1.00  0.00    -0.364 N 
ATOM     14  H5  UNL     1      32.487  35.764  43.037  1.00  0.00     0.162 HD
BRANCH  13  15
HETATM   15  C10 UNL     1      34.093  36.401  41.710  1.00  0.00     0.181 C 
BRANCH  15  16
HETATM   16  C11 UNL     1      34.955  36.397  42.922  1.00  0.00     0.060 A 
HETATM   17  N6  UNL     1      35.620  35.362  43.469  1.00  0.00    -0.336 N 
HETATM   18  C12 UNL     1      36.267  35.836  44.580  1.00  0.00     0.155 A 
ATOM     19  H6  UNL     1      35.638  34.403  43.121  1.00  0.00     0.168 HD
HETATM   20  S1  UNL     1      37.286  35.434  45.883  1.00  0.00    -0.064 SA
HETATM   21  N7  UNL     1      36.037  37.134  44.757  1.00  0.00    -0.297 N 
HETATM   22  C13 UNL     1      37.380  36.969  46.618  1.00  0.00     0.071 A 
HETATM   23  C14 UNL     1      36.595  37.727  45.789  1.00  0.00     0.107 A 
HETATM   24  C15 UNL     1      35.210  37.494  43.714  1.00  0.00     0.112 A 
BRANCH  24  25
HETATM   25  C16 UNL     1      34.653  38.810  43.429  1.00  0.00     0.167 A 
HETATM   26  N8  UNL     1      35.063  39.745  42.566  1.00  0.00    -0.267 N 
HETATM   27  N9  UNL     1      34.247  40.792  42.641  1.00  0.00    -0.227 N 
ATOM     28  H8  UNL     1      35.872  39.668  41.948  1.00  0.00     0.190 HD
HETATM   29  N10 UNL     1      33.325  40.529  43.543  1.00  0.00    -0.227 N 
ATOM     30  H9  UNL     1      34.323  41.651  42.095  1.00  0.00     0.210 HD
HETATM   31  N11 UNL     1      33.569  39.320  44.027  1.00  0.00    -0.267 N 
ATOM     32  H10 UNL     1      32.561  41.145  43.820  1.00  0.00     0.210 HD
ATOM     33  H11 UNL     1      33.016  38.851  44.744  1.00  0.00     0.190 HD
ENDBRANCH  24  25
ENDBRANCH  15  16
ENDBRANCH  13  15
ENDBRANCH  10  13
ENDBRANCH   8  10
BRANCH   9  34
HETATM   34  N12 UNL     1      30.996  36.057  38.340  1.00  0.00    -0.427 NA
HETATM   35  C18 UNL     1      30.948  34.988  37.525  1.00  0.00     0.229 C 
ENDBRANCH   9  34
BRANCH   1  36
HETATM   36  C4  UNL     1      29.766  38.320  37.006  1.00  0.00     0.157 C 
HETATM   37  N1  UNL     1      28.571  38.082  36.393  1.00  0.00    -0.339 N 
ATOM     38  H1  UNL     1      27.798  38.586  36.827  1.00  0.00     0.167 HD
BRANCH  37  39
HETATM   39  C3  UNL     1      28.204  37.381  35.410  1.00  0.00     0.044 C 
BRANCH  39  40
HETATM   40  C2  UNL     1      28.134  35.876  35.626  1.00  0.00     0.052 C 
HETATM   41  C1  UNL     1      27.346  35.559  36.864  1.00  0.00     0.011 C 
ENDBRANCH  39  40
BRANCH  39  42
HETATM   42  C19 UNL     1      27.820  37.796  34.046  1.00  0.00     0.363 C 
BRANCH  42  43
HETATM   43  N13 UNL     1      27.830  36.775  33.053  1.00  0.00    -0.048 N 
ATOM     44 3H13 UNL     1      28.082  37.175  32.149  1.00  0.00     0.277 HD
ATOM     45 2H13 UNL     1      28.623  36.153  33.206  1.00  0.00     0.277 HD
ATOM     46 1H13 UNL     1      26.974  36.228  32.962  1.00  0.00     0.277 HD
ENDBRANCH  42  43
BRANCH  42  47
HETATM   47  O3  UNL     1      28.665  38.823  33.606  1.00  0.00    -0.366 OA
ATOM     48  H3  UNL     1      29.425  38.453  33.173  1.00  0.00     0.212 HD
ENDBRANCH  42  47
ENDBRANCH  39  42
ENDBRANCH  37  39
BRANCH  36  49
HETATM   49  O1  UNL     1      30.678  38.736  36.159  1.00  0.00    -0.345 OA
ATOM     50  H1  UNL     1      31.423  38.147  36.122  1.00  0.00     0.219 HD
ENDBRANCH  36  49
ENDBRANCH   1  36
TORSDOF 14
ENDMDL
