MODEL 1
REMARK VINA RESULT: -8.294714969      0.000      0.000
REMARK  16 active torsions:
REMARK  status: ('A' for Active; 'I' for Inactive)
REMARK    1  A    between atoms: C4_4  and  N1_5 
REMARK    2  A    between atoms: C6_12  and  C7_13 
REMARK    3  A    between atoms: C7_13  and  C8_14 
REMARK    4  A    between atoms: C8_14  and  S1_15 
REMARK    5  A    between atoms: S1_15  and  C9_16 
REMARK    6  A    between atoms: C9_16  and  C10_17 
REMARK    7  A    between atoms: C10_17  and  N4_19 
REMARK    8  A    between atoms: N4_19  and  C11_21 
REMARK    9  A    between atoms: C11_21  and  N5_22 
REMARK   10  A    between atoms: C11_21  and  C14_36 
REMARK   11  A    between atoms: N5_22  and  N6_24 
REMARK   12  A    between atoms: N6_24  and  C12_26 
REMARK   13  A    between atoms: N9_32  and  N10_33 
REMARK   14  A    between atoms: C15_39  and  C16_40 
REMARK   15  A    between atoms: C16_40  and  N12_41 
REMARK   16  A    between atoms: C17_45  and  O1_46 
ROOT
HETATM    1  C11 UNL     1      35.664  39.825  44.424  1.00  0.00     0.174 C 
ENDROOT
BRANCH   1   2
HETATM    2  N4  UNL     1      36.527  38.723  44.228  1.00  0.00    -0.332 N 
ATOM      3  H4  UNL     1      36.914  38.584  43.295  1.00  0.00     0.168 HD
BRANCH   2   4
HETATM    4  C10 UNL     1      36.889  37.806  45.227  1.00  0.00     0.088 C 
HETATM    5  S2  UNL     1      38.475  37.659  45.593  1.00  0.00    -0.065 SA
BRANCH   4   6
HETATM    6  C9  UNL     1      35.879  37.003  45.923  1.00  0.00     0.143 C 
BRANCH   6   7
HETATM    7  S1  UNL     1      36.081  35.231  45.670  1.00  0.00    -0.162 SA
BRANCH   7   8
HETATM    8  C8  UNL     1      35.723  34.850  43.912  1.00  0.00     0.079 C 
BRANCH   8   9
HETATM    9  C7  UNL     1      34.233  34.889  43.664  1.00  0.00     0.054 C 
BRANCH   9  10
HETATM   10  C6  UNL     1      33.861  35.779  42.561  1.00  0.00     0.005 A 
HETATM   11  C5  UNL     1      34.699  36.645  41.890  1.00  0.00     0.118 A 
HETATM   12  N3  UNL     1      33.984  37.274  40.957  1.00  0.00    -0.301 N 
HETATM   13  N2  UNL     1      32.725  36.874  40.973  1.00  0.00    -0.224 N 
ATOM     14  H3  UNL     1      34.359  37.972  40.315  1.00  0.00     0.186 HD
HETATM   15  C4  UNL     1      31.657  37.220  40.233  1.00  0.00     0.124 A 
HETATM   16  C18 UNL     1      32.610  35.945  41.958  1.00  0.00     0.137 A 
HETATM   17  C3  UNL     1      30.457  36.607  40.504  1.00  0.00     0.074 A 
HETATM   18  C2  UNL     1      30.351  35.668  41.503  1.00  0.00     0.010 A 
HETATM   19  C1  UNL     1      29.022  35.031  41.758  1.00  0.00     0.068 C 
HETATM   20  N13 UNL     1      31.438  35.353  42.214  1.00  0.00    -0.344 N 
ATOM     21  H13 UNL     1      31.373  34.658  42.957  1.00  0.00     0.167 HD
BRANCH  15  22
HETATM   22  N1  UNL     1      31.777  38.105  39.298  1.00  0.00    -0.384 N 
ATOM     23  H12 UNL     1      31.063  38.184  38.574  1.00  0.00     0.157 HD
ATOM     24  H11 UNL     1      32.574  38.740  39.256  1.00  0.00     0.157 HD
ENDBRANCH  15  22
ENDBRANCH   9  10
ENDBRANCH   8   9
ENDBRANCH   7   8
ENDBRANCH   6   7
ENDBRANCH   4   6
ENDBRANCH   2   4
ENDBRANCH   1   2
BRANCH   1  25
HETATM   25  N5  UNL     1      35.790  40.531  45.474  1.00  0.00    -0.268 N 
ATOM     26  H5  UNL     1      34.959  40.670  46.048  1.00  0.00     0.189 HD
BRANCH  25  27
HETATM   27  N6  UNL     1      36.971  41.132  45.902  1.00  0.00    -0.127 N 
ATOM     28  H6  UNL     1      37.845  40.784  45.506  1.00  0.00     0.206 HD
BRANCH  27  29
HETATM   29  C12 UNL     1      37.047  42.072  46.741  1.00  0.00     0.733 A 
HETATM   30  N7  UNL     1      36.056  42.881  47.129  1.00  0.00    -0.128 N 
HETATM   31  N8  UNL     1      36.492  43.762  48.031  1.00  0.00    -0.279 N 
ATOM     32  H7  UNL     1      35.099  42.831  46.784  1.00  0.00     0.205 HD
HETATM   33  C13 UNL     1      37.788  43.500  48.213  1.00  0.00     0.241 A 
ATOM     34  H8  UNL     1      35.944  44.490  48.489  1.00  0.00     0.188 HD
HETATM   35  N9  UNL     1      38.141  42.451  47.416  1.00  0.00    -0.085 N 
BRANCH  35  36
HETATM   36  N10 UNL     1      39.440  41.937  47.382  1.00  0.00    -0.323 N 
ATOM     37 2H10 UNL     1      39.722  41.124  47.930  1.00  0.00     0.178 HD
ATOM     38 1H10 UNL     1      40.256  42.251  46.857  1.00  0.00     0.178 HD
ENDBRANCH  35  36
ENDBRANCH  27  29
ENDBRANCH  25  27
ENDBRANCH   1  25
BRANCH   1  39
HETATM   39  C14 UNL     1      34.618  40.195  43.461  1.00  0.00     0.196 A 
HETATM   40  N11 UNL     1      33.411  40.741  43.721  1.00  0.00    -0.332 N 
HETATM   41  C15 UNL     1      32.772  40.918  42.553  1.00  0.00     0.095 A 
ATOM     42  H11 UNL     1      33.048  40.978  44.644  1.00  0.00     0.168 HD
HETATM   43  C17 UNL     1      33.628  40.462  41.577  1.00  0.00     0.210 A 
HETATM   44  O2  UNL     1      34.736  40.031  42.172  1.00  0.00    -0.265 OA
BRANCH  41  45
HETATM   45  C16 UNL     1      31.410  41.492  42.358  1.00  0.00     0.291 C 
BRANCH  45  46
HETATM   46  N12 UNL     1      30.706  40.802  41.293  1.00  0.00    -0.074 N 
ATOM     47 3H12 UNL     1      29.875  41.314  40.997  1.00  0.00     0.274 HD
ATOM     48 2H12 UNL     1      31.226  40.832  40.416  1.00  0.00     0.274 HD
ATOM     49 1H12 UNL     1      30.482  39.845  41.565  1.00  0.00     0.274 HD
ENDBRANCH  45  46
ENDBRANCH  41  45
BRANCH  43  50
HETATM   50  O1  UNL     1      33.415  40.435  40.213  1.00  0.00    -0.339 OA
ATOM     51  H1  UNL     1      33.962  40.035  39.548  1.00  0.00     0.220 HD
ENDBRANCH  43  50
ENDBRANCH   1  39
TORSDOF 16
ENDMDL
MODEL 2
REMARK VINA RESULT: -8.083945347      3.763      5.304
REMARK  16 active torsions:
REMARK  status: ('A' for Active; 'I' for Inactive)
REMARK    1  A    between atoms: C4_4  and  N1_5 
REMARK    2  A    between atoms: C6_12  and  C7_13 
REMARK    3  A    between atoms: C7_13  and  C8_14 
REMARK    4  A    between atoms: C8_14  and  S1_15 
REMARK    5  A    between atoms: S1_15  and  C9_16 
REMARK    6  A    between atoms: C9_16  and  C10_17 
REMARK    7  A    between atoms: C10_17  and  N4_19 
REMARK    8  A    between atoms: N4_19  and  C11_21 
REMARK    9  A    between atoms: C11_21  and  N5_22 
REMARK   10  A    between atoms: C11_21  and  C14_36 
REMARK   11  A    between atoms: N5_22  and  N6_24 
REMARK   12  A    between atoms: N6_24  and  C12_26 
REMARK   13  A    between atoms: N9_32  and  N10_33 
REMARK   14  A    between atoms: C15_39  and  C16_40 
REMARK   15  A    between atoms: C16_40  and  N12_41 
REMARK   16  A    between atoms: C17_45  and  O1_46 
ROOT
HETATM    1  C11 UNL     1      34.756  38.244  42.063  1.00  0.00     0.174 C 
ENDROOT
BRANCH   1   2
HETATM    2  N4  UNL     1      34.229  37.170  41.311  1.00  0.00    -0.332 N 
ATOM      3  H4  UNL     1      34.692  36.933  40.434  1.00  0.00     0.168 HD
BRANCH   2   4
HETATM    4  C10 UNL     1      33.113  36.406  41.686  1.00  0.00     0.088 C 
HETATM    5  S2  UNL     1      33.312  35.285  42.859  1.00  0.00    -0.065 SA
BRANCH   4   6
HETATM    6  C9  UNL     1      31.808  36.604  41.049  1.00  0.00     0.143 C 
BRANCH   6   7
HETATM    7  S1  UNL     1      30.488  35.650  41.818  1.00  0.00    -0.162 SA
BRANCH   7   8
HETATM    8  C8  UNL     1      29.228  35.266  40.543  1.00  0.00     0.079 C 
BRANCH   8   9
HETATM    9  C7  UNL     1      28.884  33.795  40.575  1.00  0.00     0.054 C 
BRANCH   9  10
HETATM   10  C6  UNL     1      29.605  33.018  39.563  1.00  0.00     0.005 A 
HETATM   11  C5  UNL     1      30.489  33.513  38.627  1.00  0.00     0.118 A 
HETATM   12  N3  UNL     1      30.931  32.492  37.894  1.00  0.00    -0.301 N 
HETATM   13  N2  UNL     1      30.391  31.353  38.291  1.00  0.00    -0.224 N 
ATOM     14  H3  UNL     1      31.598  32.577  37.128  1.00  0.00     0.186 HD
HETATM   15  C4  UNL     1      30.533  30.087  37.859  1.00  0.00     0.124 A 
HETATM   16  C18 UNL     1      29.560  31.640  39.327  1.00  0.00     0.137 A 
HETATM   17  C3  UNL     1      29.815  29.103  38.497  1.00  0.00     0.074 A 
HETATM   18  C2  UNL     1      28.977  29.405  39.545  1.00  0.00     0.010 A 
HETATM   19  C1  UNL     1      28.217  28.297  40.204  1.00  0.00     0.068 C 
HETATM   20  N13 UNL     1      28.866  30.676  39.941  1.00  0.00    -0.344 N 
ATOM     21  H13 UNL     1      28.249  30.912  40.717  1.00  0.00     0.167 HD
BRANCH  15  22
HETATM   22  N1  UNL     1      31.326  29.824  36.873  1.00  0.00    -0.384 N 
ATOM     23  H12 UNL     1      32.331  29.747  37.031  1.00  0.00     0.157 HD
ATOM     24  H11 UNL     1      30.979  29.689  35.923  1.00  0.00     0.157 HD
ENDBRANCH  15  22
ENDBRANCH   9  10
ENDBRANCH   8   9
ENDBRANCH   7   8
ENDBRANCH   6   7
ENDBRANCH   4   6
ENDBRANCH   2   4
ENDBRANCH   1   2
BRANCH   1  25
HETATM   25  N5  UNL     1      35.809  38.061  42.752  1.00  0.00    -0.268 N 
ATOM     26  H5  UNL     1      36.097  37.097  42.919  1.00  0.00     0.189 HD
BRANCH  25  27
HETATM   27  N6  UNL     1      36.600  39.069  43.296  1.00  0.00    -0.127 N 
ATOM     28  H6  UNL     1      36.773  39.893  42.720  1.00  0.00     0.206 HD
BRANCH  27  29
HETATM   29  C12 UNL     1      37.121  39.045  44.446  1.00  0.00     0.733 A 
HETATM   30  N7  UNL     1      38.068  38.207  44.879  1.00  0.00    -0.128 N 
HETATM   31  N8  UNL     1      38.383  38.466  46.149  1.00  0.00    -0.279 N 
ATOM     32  H7  UNL     1      38.492  37.471  44.316  1.00  0.00     0.205 HD
HETATM   33  C13 UNL     1      37.614  39.491  46.523  1.00  0.00     0.241 A 
ATOM     34  H8  UNL     1      39.073  37.979  46.719  1.00  0.00     0.188 HD
HETATM   35  N9  UNL     1      36.827  39.858  45.470  1.00  0.00    -0.085 N 
BRANCH  35  36
HETATM   36  N10 UNL     1      35.909  40.908  45.548  1.00  0.00    -0.323 N 
ATOM     37 2H10 UNL     1      35.261  41.128  44.792  1.00  0.00     0.178 HD
ATOM     38 1H10 UNL     1      35.739  41.576  46.300  1.00  0.00     0.178 HD
ENDBRANCH  35  36
ENDBRANCH  27  29
ENDBRANCH  25  27
ENDBRANCH   1  25
BRANCH   1  39
HETATM   39  C14 UNL     1      34.138  39.577  42.083  1.00  0.00     0.196 A 
HETATM   40  N11 UNL     1      33.691  40.296  41.031  1.00  0.00    -0.332 N 
HETATM   41  C15 UNL     1      33.199  41.456  41.497  1.00  0.00     0.095 A 
ATOM     42  H11 UNL     1      33.722  40.009  40.053  1.00  0.00     0.168 HD
HETATM   43  C17 UNL     1      33.363  41.419  42.863  1.00  0.00     0.210 A 
HETATM   44  O2  UNL     1      33.936  40.260  43.175  1.00  0.00    -0.265 OA
BRANCH  41  45
HETATM   45  C16 UNL     1      32.600  42.560  40.693  1.00  0.00     0.291 C 
BRANCH  45  46
HETATM   46  N12 UNL     1      32.149  42.074  39.402  1.00  0.00    -0.074 N 
ATOM     47 3H12 UNL     1      31.700  42.810  38.858  1.00  0.00     0.274 HD
ATOM     48 2H12 UNL     1      32.932  41.878  38.779  1.00  0.00     0.274 HD
ATOM     49 1H12 UNL     1      31.541  41.262  39.511  1.00  0.00     0.274 HD
ENDBRANCH  45  46
ENDBRANCH  41  45
BRANCH  43  50
HETATM   50  O1  UNL     1      33.010  42.387  43.782  1.00  0.00    -0.339 OA
ATOM     51  H1  UNL     1      33.058  42.333  44.729  1.00  0.00     0.220 HD
ENDBRANCH  43  50
ENDBRANCH   1  39
TORSDOF 16
ENDMDL
MODEL 3
REMARK VINA RESULT: -7.877884401      3.372      8.200
REMARK  16 active torsions:
REMARK  status: ('A' for Active; 'I' for Inactive)
REMARK    1  A    between atoms: C4_4  and  N1_5 
REMARK    2  A    between atoms: C6_12  and  C7_13 
REMARK    3  A    between atoms: C7_13  and  C8_14 
REMARK    4  A    between atoms: C8_14  and  S1_15 
REMARK    5  A    between atoms: S1_15  and  C9_16 
REMARK    6  A    between atoms: C9_16  and  C10_17 
REMARK    7  A    between atoms: C10_17  and  N4_19 
REMARK    8  A    between atoms: N4_19  and  C11_21 
REMARK    9  A    between atoms: C11_21  and  N5_22 
REMARK   10  A    between atoms: C11_21  and  C14_36 
REMARK   11  A    between atoms: N5_22  and  N6_24 
REMARK   12  A    between atoms: N6_24  and  C12_26 
REMARK   13  A    between atoms: N9_32  and  N10_33 
REMARK   14  A    between atoms: C15_39  and  C16_40 
REMARK   15  A    between atoms: C16_40  and  N12_41 
REMARK   16  A    between atoms: C17_45  and  O1_46 
ROOT
HETATM    1  C11 UNL     1      31.114  40.194  40.483  1.00  0.00     0.174 C 
ENDROOT
BRANCH   1   2
HETATM    2  N4  UNL     1      30.923  40.744  41.771  1.00  0.00    -0.332 N 
ATOM      3  H4  UNL     1      29.964  40.888  42.088  1.00  0.00     0.168 HD
BRANCH   2   4
HETATM    4  C10 UNL     1      31.959  41.107  42.644  1.00  0.00     0.088 C 
HETATM    5  S2  UNL     1      32.254  42.700  42.864  1.00  0.00    -0.065 SA
BRANCH   4   6
HETATM    6  C9  UNL     1      32.758  40.092  43.340  1.00  0.00     0.143 C 
BRANCH   6   7
HETATM    7  S1  UNL     1      34.327  39.742  42.528  1.00  0.00    -0.162 SA
BRANCH   7   8
HETATM    8  C8  UNL     1      34.460  37.931  42.276  1.00  0.00     0.079 C 
BRANCH   8   9
HETATM    9  C7  UNL     1      34.019  37.198  43.522  1.00  0.00     0.054 C 
BRANCH   9  10
HETATM   10  C6  UNL     1      35.116  36.487  44.185  1.00  0.00     0.005 A 
HETATM   11  C5  UNL     1      35.360  35.130  44.137  1.00  0.00     0.118 A 
HETATM   12  N3  UNL     1      36.446  34.879  44.867  1.00  0.00    -0.301 N 
HETATM   13  N2  UNL     1      36.933  35.989  45.393  1.00  0.00    -0.224 N 
ATOM     14  H3  UNL     1      36.849  33.952  45.002  1.00  0.00     0.186 HD
HETATM   15  C4  UNL     1      37.995  36.224  46.184  1.00  0.00     0.124 A 
HETATM   16  C18 UNL     1      36.132  37.010  44.992  1.00  0.00     0.137 A 
HETATM   17  C3  UNL     1      38.239  37.521  46.570  1.00  0.00     0.074 A 
HETATM   18  C2  UNL     1      37.422  38.548  46.158  1.00  0.00     0.010 A 
HETATM   19  C1  UNL     1      37.730  39.941  46.606  1.00  0.00     0.068 C 
HETATM   20  N13 UNL     1      36.378  38.269  45.371  1.00  0.00    -0.344 N 
ATOM     21  H13 UNL     1      35.764  39.021  45.059  1.00  0.00     0.167 HD
BRANCH  15  22
HETATM   22  N1  UNL     1      38.751  35.245  46.561  1.00  0.00    -0.384 N 
ATOM     23  H12 UNL     1      39.756  35.388  46.667  1.00  0.00     0.157 HD
ATOM     24  H11 UNL     1      38.375  34.318  46.758  1.00  0.00     0.157 HD
ENDBRANCH  15  22
ENDBRANCH   9  10
ENDBRANCH   8   9
ENDBRANCH   7   8
ENDBRANCH   6   7
ENDBRANCH   4   6
ENDBRANCH   2   4
ENDBRANCH   1   2
BRANCH   1  25
HETATM   25  N5  UNL     1      31.294  40.976  39.496  1.00  0.00    -0.268 N 
ATOM     26  H5  UNL     1      32.135  41.552  39.503  1.00  0.00     0.189 HD
BRANCH  25  27
HETATM   27  N6  UNL     1      30.437  41.107  38.407  1.00  0.00    -0.127 N 
ATOM     28  H6  UNL     1      29.434  41.062  38.590  1.00  0.00     0.206 HD
BRANCH  27  29
HETATM   29  C12 UNL     1      30.801  41.279  37.211  1.00  0.00     0.733 A 
HETATM   30  N7  UNL     1      31.174  42.431  36.644  1.00  0.00    -0.128 N 
HETATM   31  N8  UNL     1      31.495  42.245  35.363  1.00  0.00    -0.279 N 
ATOM     32  H7  UNL     1      31.208  43.329  37.125  1.00  0.00     0.205 HD
HETATM   33  C13 UNL     1      31.318  40.944  35.119  1.00  0.00     0.241 A 
ATOM     34  H8  UNL     1      31.811  42.954  34.702  1.00  0.00     0.188 HD
HETATM   35  N9  UNL     1      30.888  40.337  36.262  1.00  0.00    -0.085 N 
BRANCH  35  36
HETATM   36  N10 UNL     1      30.614  38.967  36.328  1.00  0.00    -0.323 N 
ATOM     37 2H10 UNL     1      29.728  38.602  36.675  1.00  0.00     0.178 HD
ATOM     38 1H10 UNL     1      31.194  38.170  36.066  1.00  0.00     0.178 HD
ENDBRANCH  35  36
ENDBRANCH  27  29
ENDBRANCH  25  27
ENDBRANCH   1  25
BRANCH   1  39
HETATM   39  C14 UNL     1      31.114  38.747  40.230  1.00  0.00     0.196 A 
HETATM   40  N11 UNL     1      30.839  37.756  41.105  1.00  0.00    -0.332 N 
HETATM   41  C15 UNL     1      30.955  36.584  40.459  1.00  0.00     0.095 A 
ATOM     42  H11 UNL     1      30.587  37.876  42.086  1.00  0.00     0.168 HD
HETATM   43  C17 UNL     1      31.310  36.895  39.166  1.00  0.00     0.210 A 
HETATM   44  O2  UNL     1      31.396  38.218  39.072  1.00  0.00    -0.265 OA
BRANCH  41  45
HETATM   45  C16 UNL     1      30.742  35.223  41.031  1.00  0.00     0.291 C 
BRANCH  45  46
HETATM   46  N12 UNL     1      30.420  34.268  39.986  1.00  0.00    -0.074 N 
ATOM     47 3H12 UNL     1      29.835  33.510  40.337  1.00  0.00     0.274 HD
ATOM     48 2H12 UNL     1      29.771  34.661  39.304  1.00  0.00     0.274 HD
ATOM     49 1H12 UNL     1      31.268  33.916  39.542  1.00  0.00     0.274 HD
ENDBRANCH  45  46
ENDBRANCH  41  45
BRANCH  43  50
HETATM   50  O1  UNL     1      31.546  36.022  38.123  1.00  0.00    -0.339 OA
ATOM     51  H1  UNL     1      32.335  35.941  37.601  1.00  0.00     0.220 HD
ENDBRANCH  43  50
ENDBRANCH   1  39
TORSDOF 16
ENDMDL
MODEL 4
REMARK VINA RESULT: -7.836509779      3.000      8.679
REMARK  16 active torsions:
REMARK  status: ('A' for Active; 'I' for Inactive)
REMARK    1  A    between atoms: C4_4  and  N1_5 
REMARK    2  A    between atoms: C6_12  and  C7_13 
REMARK    3  A    between atoms: C7_13  and  C8_14 
REMARK    4  A    between atoms: C8_14  and  S1_15 
REMARK    5  A    between atoms: S1_15  and  C9_16 
REMARK    6  A    between atoms: C9_16  and  C10_17 
REMARK    7  A    between atoms: C10_17  and  N4_19 
REMARK    8  A    between atoms: N4_19  and  C11_21 
REMARK    9  A    between atoms: C11_21  and  N5_22 
REMARK   10  A    between atoms: C11_21  and  C14_36 
REMARK   11  A    between atoms: N5_22  and  N6_24 
REMARK   12  A    between atoms: N6_24  and  C12_26 
REMARK   13  A    between atoms: N9_32  and  N10_33 
REMARK   14  A    between atoms: C15_39  and  C16_40 
REMARK   15  A    between atoms: C16_40  and  N12_41 
REMARK   16  A    between atoms: C17_45  and  O1_46 
ROOT
HETATM    1  C11 UNL     1      30.939  37.473  39.500  1.00  0.00     0.174 C 
ENDROOT
BRANCH   1   2
HETATM    2  N4  UNL     1      29.933  36.939  40.337  1.00  0.00    -0.332 N 
ATOM      3  H4  UNL     1      28.961  37.104  40.074  1.00  0.00     0.168 HD
BRANCH   2   4
HETATM    4  C10 UNL     1      30.176  36.198  41.503  1.00  0.00     0.088 C 
HETATM    5  S2  UNL     1      29.310  34.832  41.738  1.00  0.00    -0.065 SA
BRANCH   4   6
HETATM    6  C9  UNL     1      31.174  36.633  42.485  1.00  0.00     0.143 C 
BRANCH   6   7
HETATM    7  S1  UNL     1      32.685  35.653  42.445  1.00  0.00    -0.162 SA
BRANCH   7   8
HETATM    8  C8  UNL     1      33.935  36.551  41.449  1.00  0.00     0.079 C 
BRANCH   8   9
HETATM    9  C7  UNL     1      35.237  36.648  42.211  1.00  0.00     0.054 C 
BRANCH   9  10
HETATM   10  C6  UNL     1      35.369  37.902  42.958  1.00  0.00     0.005 A 
HETATM   11  C5  UNL     1      34.788  39.111  42.638  1.00  0.00     0.118 A 
HETATM   12  N3  UNL     1      35.149  40.001  43.562  1.00  0.00    -0.301 N 
HETATM   13  N2  UNL     1      35.933  39.452  44.472  1.00  0.00    -0.224 N 
ATOM     14  H3  UNL     1      34.858  40.979  43.566  1.00  0.00     0.186 HD
HETATM   15  C4  UNL     1      36.529  39.949  45.569  1.00  0.00     0.124 A 
HETATM   16  C18 UNL     1      36.093  38.146  44.130  1.00  0.00     0.137 A 
HETATM   17  C3  UNL     1      37.301  39.098  46.326  1.00  0.00     0.074 A 
HETATM   18  C2  UNL     1      37.457  37.779  45.971  1.00  0.00     0.010 A 
HETATM   19  C1  UNL     1      38.307  36.896  46.829  1.00  0.00     0.068 C 
HETATM   20  N13 UNL     1      36.845  37.327  44.873  1.00  0.00    -0.344 N 
ATOM     21  H13 UNL     1      36.952  36.350  44.599  1.00  0.00     0.167 HD
BRANCH  15  22
HETATM   22  N1  UNL     1      36.370  41.192  45.887  1.00  0.00    -0.384 N 
ATOM     23  H12 UNL     1      35.949  41.441  46.781  1.00  0.00     0.157 HD
ATOM     24  H11 UNL     1      36.655  41.948  45.263  1.00  0.00     0.157 HD
ENDBRANCH  15  22
ENDBRANCH   9  10
ENDBRANCH   8   9
ENDBRANCH   7   8
ENDBRANCH   6   7
ENDBRANCH   4   6
ENDBRANCH   2   4
ENDBRANCH   1   2
BRANCH   1  25
HETATM   25  N5  UNL     1      31.560  36.698  38.707  1.00  0.00    -0.268 N 
ATOM     26  H5  UNL     1      32.564  36.587  38.850  1.00  0.00     0.189 HD
BRANCH  25  27
HETATM   27  N6  UNL     1      30.982  35.989  37.657  1.00  0.00    -0.127 N 
ATOM     28  H6  UNL     1      30.938  36.449  36.747  1.00  0.00     0.206 HD
BRANCH  27  29
HETATM   29  C12 UNL     1      30.507  34.822  37.741  1.00  0.00     0.733 A 
HETATM   30  N7  UNL     1      31.195  33.676  37.736  1.00  0.00    -0.128 N 
HETATM   31  N8  UNL     1      30.372  32.631  37.842  1.00  0.00    -0.279 N 
ATOM     32  H7  UNL     1      32.209  33.609  37.661  1.00  0.00     0.205 HD
HETATM   33  C13 UNL     1      29.138  33.134  37.915  1.00  0.00     0.241 A 
ATOM     34  H8  UNL     1      30.634  31.646  37.862  1.00  0.00     0.188 HD
HETATM   35  N9  UNL     1      29.213  34.495  37.854  1.00  0.00    -0.085 N 
BRANCH  35  36
HETATM   36  N10 UNL     1      28.081  35.313  37.908  1.00  0.00    -0.323 N 
ATOM     37 2H10 UNL     1      27.773  35.876  37.116  1.00  0.00     0.178 HD
ATOM     38 1H10 UNL     1      27.426  35.477  38.673  1.00  0.00     0.178 HD
ENDBRANCH  35  36
ENDBRANCH  27  29
ENDBRANCH  25  27
ENDBRANCH   1  25
BRANCH   1  39
HETATM   39  C14 UNL     1      31.302  38.897  39.505  1.00  0.00     0.196 A 
HETATM   40  N11 UNL     1      31.935  39.584  40.480  1.00  0.00    -0.332 N 
HETATM   41  C15 UNL     1      32.067  40.858  40.074  1.00  0.00     0.095 A 
ATOM     42  H11 UNL     1      32.255  39.203  41.370  1.00  0.00     0.168 HD
HETATM   43  C17 UNL     1      31.495  40.922  38.825  1.00  0.00     0.210 A 
HETATM   44  O2  UNL     1      31.043  39.709  38.519  1.00  0.00    -0.265 OA
BRANCH  41  45
HETATM   45  C16 UNL     1      32.705  41.975  40.829  1.00  0.00     0.291 C 
BRANCH  45  46
HETATM   46  N12 UNL     1      32.785  43.171  40.012  1.00  0.00    -0.074 N 
ATOM     47 3H12 UNL     1      32.025  43.216  39.333  1.00  0.00     0.274 HD
ATOM     48 2H12 UNL     1      32.561  44.009  40.549  1.00  0.00     0.274 HD
ATOM     49 1H12 UNL     1      33.697  43.244  39.562  1.00  0.00     0.274 HD
ENDBRANCH  45  46
ENDBRANCH  41  45
BRANCH  43  50
HETATM   50  O1  UNL     1      31.386  42.025  38.001  1.00  0.00    -0.339 OA
ATOM     51  H1  UNL     1      32.035  42.364  37.396  1.00  0.00     0.220 HD
ENDBRANCH  43  50
ENDBRANCH   1  39
TORSDOF 16
ENDMDL
MODEL 5
REMARK VINA RESULT: -7.800603464      3.945      6.612
REMARK  16 active torsions:
REMARK  status: ('A' for Active; 'I' for Inactive)
REMARK    1  A    between atoms: C4_4  and  N1_5 
REMARK    2  A    between atoms: C6_12  and  C7_13 
REMARK    3  A    between atoms: C7_13  and  C8_14 
REMARK    4  A    between atoms: C8_14  and  S1_15 
REMARK    5  A    between atoms: S1_15  and  C9_16 
REMARK    6  A    between atoms: C9_16  and  C10_17 
REMARK    7  A    between atoms: C10_17  and  N4_19 
REMARK    8  A    between atoms: N4_19  and  C11_21 
REMARK    9  A    between atoms: C11_21  and  N5_22 
REMARK   10  A    between atoms: C11_21  and  C14_36 
REMARK   11  A    between atoms: N5_22  and  N6_24 
REMARK   12  A    between atoms: N6_24  and  C12_26 
REMARK   13  A    between atoms: N9_32  and  N10_33 
REMARK   14  A    between atoms: C15_39  and  C16_40 
REMARK   15  A    between atoms: C16_40  and  N12_41 
REMARK   16  A    between atoms: C17_45  and  O1_46 
ROOT
HETATM    1  C11 UNL     1      33.864  38.770  41.071  1.00  0.00     0.174 C 
ENDROOT
BRANCH   1   2
HETATM    2  N4  UNL     1      33.371  37.511  40.659  1.00  0.00    -0.332 N 
ATOM      3  H4  UNL     1      33.727  37.124  39.785  1.00  0.00     0.168 HD
BRANCH   2   4
HETATM    4  C10 UNL     1      32.425  36.755  41.368  1.00  0.00     0.088 C 
HETATM    5  S2  UNL     1      32.975  35.604  42.391  1.00  0.00    -0.065 SA
BRANCH   4   6
HETATM    6  C9  UNL     1      30.987  36.985  41.199  1.00  0.00     0.143 C 
BRANCH   6   7
HETATM    7  S1  UNL     1      29.971  35.650  41.856  1.00  0.00    -0.162 SA
BRANCH   7   8
HETATM    8  C8  UNL     1      28.887  35.030  40.513  1.00  0.00     0.079 C 
BRANCH   8   9
HETATM    9  C7  UNL     1      28.733  33.530  40.619  1.00  0.00     0.054 C 
BRANCH   9  10
HETATM   10  C6  UNL     1      29.498  32.804  39.601  1.00  0.00     0.005 A 
HETATM   11  C5  UNL     1      30.414  33.347  38.724  1.00  0.00     0.118 A 
HETATM   12  N3  UNL     1      30.890  32.362  37.962  1.00  0.00    -0.301 N 
HETATM   13  N2  UNL     1      30.344  31.203  38.285  1.00  0.00    -0.224 N 
ATOM     14  H3  UNL     1      31.586  32.487  37.227  1.00  0.00     0.186 HD
HETATM   15  C4  UNL     1      30.511  29.960  37.802  1.00  0.00     0.124 A 
HETATM   16  C18 UNL     1      29.472  31.439  39.300  1.00  0.00     0.137 A 
HETATM   17  C3  UNL     1      29.776  28.944  38.365  1.00  0.00     0.074 A 
HETATM   18  C2  UNL     1      28.896  29.192  39.392  1.00  0.00     0.010 A 
HETATM   19  C1  UNL     1      28.119  28.052  39.970  1.00  0.00     0.068 C 
HETATM   20  N13 UNL     1      28.761  30.443  39.842  1.00  0.00    -0.344 N 
ATOM     21  H13 UNL     1      28.112  30.641  40.604  1.00  0.00     0.167 HD
BRANCH  15  22
HETATM   22  N1  UNL     1      31.344  29.747  36.836  1.00  0.00    -0.384 N 
ATOM     23  H12 UNL     1      31.179  30.162  35.919  1.00  0.00     0.157 HD
ATOM     24  H11 UNL     1      32.174  29.167  36.958  1.00  0.00     0.157 HD
ENDBRANCH  15  22
ENDBRANCH   9  10
ENDBRANCH   8   9
ENDBRANCH   7   8
ENDBRANCH   6   7
ENDBRANCH   4   6
ENDBRANCH   2   4
ENDBRANCH   1   2
BRANCH   1  25
HETATM   25  N5  UNL     1      33.559  39.804  40.397  1.00  0.00    -0.268 N 
ATOM     26  H5  UNL     1      33.082  39.661  39.507  1.00  0.00     0.189 HD
BRANCH  25  27
HETATM   27  N6  UNL     1      33.823  41.118  40.777  1.00  0.00    -0.127 N 
ATOM     28  H6  UNL     1      34.790  41.360  40.989  1.00  0.00     0.206 HD
BRANCH  27  29
HETATM   29  C12 UNL     1      32.959  42.033  40.879  1.00  0.00     0.733 A 
HETATM   30  N7  UNL     1      32.391  42.713  39.879  1.00  0.00    -0.128 N 
HETATM   31  N8  UNL     1      31.521  43.608  40.351  1.00  0.00    -0.279 N 
ATOM     32  H7  UNL     1      32.594  42.568  38.891  1.00  0.00     0.205 HD
HETATM   33  C13 UNL     1      31.545  43.488  41.680  1.00  0.00     0.241 A 
ATOM     34  H8  UNL     1      30.953  44.255  39.805  1.00  0.00     0.188 HD
HETATM   35  N9  UNL     1      32.435  42.510  42.017  1.00  0.00    -0.085 N 
BRANCH  35  36
HETATM   36  N10 UNL     1      32.685  42.146  43.343  1.00  0.00    -0.323 N 
ATOM     37 2H10 UNL     1      33.429  41.499  43.603  1.00  0.00     0.178 HD
ATOM     38 1H10 UNL     1      32.215  42.433  44.201  1.00  0.00     0.178 HD
ENDBRANCH  35  36
ENDBRANCH  27  29
ENDBRANCH  25  27
ENDBRANCH   1  25
BRANCH   1  39
HETATM   39  C14 UNL     1      34.720  38.939  42.253  1.00  0.00     0.196 A 
HETATM   40  N11 UNL     1      35.820  38.229  42.584  1.00  0.00    -0.332 N 
HETATM   41  C15 UNL     1      36.297  38.714  43.742  1.00  0.00     0.095 A 
ATOM     42  H11 UNL     1      36.218  37.458  42.049  1.00  0.00     0.168 HD
HETATM   43  C17 UNL     1      35.452  39.739  44.103  1.00  0.00     0.210 A 
HETATM   44  O2  UNL     1      34.509  39.840  43.171  1.00  0.00    -0.265 OA
BRANCH  41  45
HETATM   45  C16 UNL     1      37.498  38.236  44.485  1.00  0.00     0.291 C 
BRANCH  45  46
HETATM   46  N12 UNL     1      37.211  38.102  45.901  1.00  0.00    -0.074 N 
ATOM     47 3H12 UNL     1      37.106  39.010  46.352  1.00  0.00     0.274 HD
ATOM     48 2H12 UNL     1      36.271  37.740  46.062  1.00  0.00     0.274 HD
ATOM     49 1H12 UNL     1      37.919  37.531  46.363  1.00  0.00     0.274 HD
ENDBRANCH  45  46
ENDBRANCH  41  45
BRANCH  43  50
HETATM   50  O1  UNL     1      35.531  40.543  45.223  1.00  0.00    -0.339 OA
ATOM     51  H1  UNL     1      35.004  40.494  46.011  1.00  0.00     0.220 HD
ENDBRANCH  43  50
ENDBRANCH   1  39
TORSDOF 16
ENDMDL
