MODEL 1
REMARK VINA RESULT: -10.162158603      0.000      0.000
REMARK  10 active torsions:
REMARK  status: ('A' for Active; 'I' for Inactive)
REMARK       I    between atoms: C1_4  and  N2_5 
REMARK       I    between atoms: C1_4  and  N13_48 
REMARK       I    between atoms: N2_5  and  C2_7 
REMARK    1  A    between atoms: C2_7  and  C3_9 
REMARK    2  A    between atoms: C4_12  and  C5_13 
REMARK    3  A    between atoms: N7_25  and  N8_26 
REMARK    4  A    between atoms: N8_26  and  C10_28 
REMARK    5  A    between atoms: C10_28  and  C11_29 
REMARK    6  A    between atoms: N11_34  and  C12_35 
REMARK    7  A    between atoms: C12_35  and  C13_36 
REMARK    8  A    between atoms: C13_36  and  C14_38 
REMARK    9  A    between atoms: C17_41  and  O3_42 
REMARK   10  A    between atoms: N13_48  and  N14_50 
ROOT
HETATM    1  C3  UNL     1      30.379  38.768  38.942  1.00  0.00     0.215 A 
HETATM    2  N3  UNL     1      30.337  38.743  37.564  1.00  0.00    -0.319 N 
ATOM      3  H3  UNL     1      30.252  37.899  36.999  1.00  0.00     0.169 HD
HETATM    4  C4  UNL     1      30.426  39.986  37.076  1.00  0.00     0.135 A 
HETATM    5  N6  UNL     1      30.522  40.775  38.150  1.00  0.00    -0.262 N 
ATOM      6  H6  UNL     1      30.605  41.791  38.114  1.00  0.00     0.191 HD
HETATM    7  N7  UNL     1      30.495  40.058  39.276  1.00  0.00    -0.176 N 
ENDROOT
BRANCH   7   8
HETATM    8  N8  UNL     1      30.569  40.578  40.567  1.00  0.00    -0.306 N 
ATOM      9  H8  UNL     1      29.744  40.565  41.167  1.00  0.00     0.182 HD
BRANCH   8  10
HETATM   10  C10 UNL     1      31.811  41.138  41.061  1.00  0.00     0.220 C 
BRANCH  10  11
HETATM   11  C11 UNL     1      32.811  40.082  41.229  1.00  0.00     0.132 A 
HETATM   12  N9  UNL     1      33.890  39.771  40.501  1.00  0.00    -0.271 N 
HETATM   13  N10 UNL     1      34.482  38.731  41.058  1.00  0.00    -0.224 N 
ATOM     14  H9  UNL     1      34.201  40.256  39.659  1.00  0.00     0.190 HD
HETATM   15  N11 UNL     1      33.813  38.369  42.120  1.00  0.00    -0.211 N 
ATOM     16  H10 UNL     1      35.328  38.280  40.713  1.00  0.00     0.210 HD
HETATM   17  N12 UNL     1      32.794  39.175  42.246  1.00  0.00    -0.268 N 
ATOM     18  H12 UNL     1      32.095  39.132  42.988  1.00  0.00     0.190 HD
BRANCH  15  19
HETATM   19  C12 UNL     1      34.121  37.275  43.019  1.00  0.00     0.254 C 
BRANCH  19  20
HETATM   20  C13 UNL     1      34.604  37.779  44.324  1.00  0.00     0.180 C 
HETATM   21  O2  UNL     1      34.038  38.738  44.889  1.00  0.00    -0.290 OA
BRANCH  20  22
HETATM   22  C14 UNL     1      35.750  37.141  44.937  1.00  0.00     0.012 A 
HETATM   23  C15 UNL     1      36.877  37.881  45.213  1.00  0.00     0.018 A 
HETATM   24  C16 UNL     1      37.995  37.299  45.802  1.00  0.00     0.037 A 
HETATM   25  C17 UNL     1      37.996  35.973  46.120  1.00  0.00     0.065 A 
HETATM   26  C18 UNL     1      36.887  35.217  45.855  1.00  0.00     0.037 A 
HETATM   27  C19 UNL     1      35.794  35.802  45.275  1.00  0.00     0.018 A 
BRANCH  25  28
HETATM   28  O3  UNL     1      39.112  35.386  46.709  1.00  0.00    -0.361 OA
ATOM     29  H3  UNL     1      39.208  35.369  47.653  1.00  0.00     0.217 HD
ENDBRANCH  25  28
ENDBRANCH  20  22
ENDBRANCH  19  20
ENDBRANCH  15  19
ENDBRANCH  10  11
ENDBRANCH   8  10
ENDBRANCH   7   8
BRANCH   1  30
HETATM   30  C2  UNL     1      30.306  37.591  39.795  1.00  0.00     0.307 C 
HETATM   31  N2  UNL     1      30.475  36.281  39.227  1.00  0.00    -0.152 N 
HETATM   32  C1  UNL     1      30.413  35.115  40.014  1.00  0.00     0.698 C 
ATOM     33  H2  UNL     1      30.645  36.194  38.224  1.00  0.00     0.188 HD
HETATM   34  N1  UNL     1      30.570  33.963  39.463  1.00  0.00    -0.233 N 
HETATM   35  N13 UNL     1      30.182  35.147  41.417  1.00  0.00    -0.072 N 
ATOM     36  H12 UNL     1      30.735  33.940  38.457  1.00  0.00     0.174 HD
ATOM     37  H11 UNL     1      30.525  33.118  40.033  1.00  0.00     0.174 HD
ATOM     38  H13 UNL     1      30.843  35.587  42.057  1.00  0.00     0.212 HD
HETATM   39  O1  UNL     1      30.103  37.668  41.015  1.00  0.00    -0.263 OA
BRANCH  35  40
HETATM   40  N14 UNL     1      29.008  34.548  41.879  1.00  0.00    -0.024 N 
HETATM   41  O4  UNL     1      27.957  34.751  41.227  1.00  0.00    -0.516 OA
HETATM   42  O5  UNL     1      28.946  33.757  42.998  1.00  0.00    -0.516 OA
ENDBRANCH  35  40
ENDBRANCH   1  30
BRANCH   4  43
HETATM   43  C5  UNL     1      30.417  40.367  35.658  1.00  0.00     0.025 A 
HETATM   44  C6  UNL     1      31.538  40.948  35.108  1.00  0.00     0.020 A 
HETATM   45  C7  UNL     1      31.494  41.293  33.768  1.00  0.00     0.049 A 
HETATM   46  C8  UNL     1      30.386  41.081  32.975  1.00  0.00     0.098 A 
HETATM   47  N4  UNL     1      30.370  41.414  31.721  1.00  0.00    -0.385 N 
HETATM   48  N5  UNL     1      29.310  40.510  33.546  1.00  0.00    -0.352 N 
ATOM     49  H42 UNL     1      31.186  41.846  31.288  1.00  0.00     0.157 HD
ATOM     50  H41 UNL     1      29.551  41.257  31.135  1.00  0.00     0.157 HD
HETATM   51  C9  UNL     1      29.319  40.159  34.857  1.00  0.00     0.105 A 
ATOM     52  H5  UNL     1      28.475  40.340  32.986  1.00  0.00     0.166 HD
ENDBRANCH   4  43
TORSDOF 10
ENDMDL
MODEL 2
REMARK VINA RESULT: -10.136230403      2.498      3.383
REMARK  10 active torsions:
REMARK  status: ('A' for Active; 'I' for Inactive)
REMARK       I    between atoms: C1_4  and  N2_5 
REMARK       I    between atoms: C1_4  and  N13_48 
REMARK       I    between atoms: N2_5  and  C2_7 
REMARK    1  A    between atoms: C2_7  and  C3_9 
REMARK    2  A    between atoms: C4_12  and  C5_13 
REMARK    3  A    between atoms: N7_25  and  N8_26 
REMARK    4  A    between atoms: N8_26  and  C10_28 
REMARK    5  A    between atoms: C10_28  and  C11_29 
REMARK    6  A    between atoms: N11_34  and  C12_35 
REMARK    7  A    between atoms: C12_35  and  C13_36 
REMARK    8  A    between atoms: C13_36  and  C14_38 
REMARK    9  A    between atoms: C17_41  and  O3_42 
REMARK   10  A    between atoms: N13_48  and  N14_50 
ROOT
HETATM    1  C3  UNL     1      31.139  37.731  40.228  1.00  0.00     0.215 A 
HETATM    2  N3  UNL     1      30.721  37.049  39.106  1.00  0.00    -0.319 N 
ATOM      3  H3  UNL     1      31.019  36.108  38.850  1.00  0.00     0.169 HD
HETATM    4  C4  UNL     1      29.868  37.800  38.399  1.00  0.00     0.135 A 
HETATM    5  N6  UNL     1      29.761  38.942  39.084  1.00  0.00    -0.262 N 
ATOM      6  H6  UNL     1      29.178  39.731  38.803  1.00  0.00     0.191 HD
HETATM    7  N7  UNL     1      30.517  38.915  40.183  1.00  0.00    -0.176 N 
ENDROOT
BRANCH   7   8
HETATM    8  N8  UNL     1      30.624  39.945  41.115  1.00  0.00    -0.306 N 
ATOM      9  H8  UNL     1      29.956  40.005  41.885  1.00  0.00     0.182 HD
BRANCH   8  10
HETATM   10  C10 UNL     1      31.678  40.932  40.999  1.00  0.00     0.220 C 
BRANCH  10  11
HETATM   11  C11 UNL     1      32.835  40.537  41.806  1.00  0.00     0.132 A 
HETATM   12  N9  UNL     1      34.147  40.645  41.570  1.00  0.00    -0.271 N 
HETATM   13  N10 UNL     1      34.798  40.142  42.604  1.00  0.00    -0.224 N 
ATOM     14  H9  UNL     1      34.573  41.047  40.735  1.00  0.00     0.190 HD
HETATM   15  N11 UNL     1      33.939  39.717  43.491  1.00  0.00    -0.211 N 
ATOM     16  H10 UNL     1      35.812  40.093  42.694  1.00  0.00     0.210 HD
HETATM   17  N12 UNL     1      32.739  39.946  43.030  1.00  0.00    -0.268 N 
ATOM     18  H12 UNL     1      31.869  39.718  43.510  1.00  0.00     0.190 HD
BRANCH  15  19
HETATM   19  C12 UNL     1      34.233  39.098  44.768  1.00  0.00     0.254 C 
BRANCH  19  20
HETATM   20  C13 UNL     1      35.618  39.395  45.196  1.00  0.00     0.180 C 
HETATM   21  O2  UNL     1      36.032  40.571  45.255  1.00  0.00    -0.290 OA
BRANCH  20  22
HETATM   22  C14 UNL     1      36.490  38.293  45.546  1.00  0.00     0.012 A 
HETATM   23  C15 UNL     1      37.855  38.469  45.518  1.00  0.00     0.018 A 
HETATM   24  C16 UNL     1      38.722  37.432  45.848  1.00  0.00     0.037 A 
HETATM   25  C17 UNL     1      38.232  36.211  46.208  1.00  0.00     0.065 A 
HETATM   26  C18 UNL     1      36.879  36.013  46.244  1.00  0.00     0.037 A 
HETATM   27  C19 UNL     1      36.037  37.042  45.916  1.00  0.00     0.018 A 
BRANCH  25  28
HETATM   28  O3  UNL     1      39.095  35.171  46.540  1.00  0.00    -0.361 OA
ATOM     29  H3  UNL     1      39.338  35.013  47.444  1.00  0.00     0.217 HD
ENDBRANCH  25  28
ENDBRANCH  20  22
ENDBRANCH  19  20
ENDBRANCH  15  19
ENDBRANCH  10  11
ENDBRANCH   8  10
ENDBRANCH   7   8
BRANCH   1  30
HETATM   30  C2  UNL     1      32.069  37.208  41.218  1.00  0.00     0.307 C 
HETATM   31  N2  UNL     1      33.433  36.943  40.851  1.00  0.00    -0.152 N 
HETATM   32  C1  UNL     1      34.367  36.438  41.775  1.00  0.00     0.698 C 
ATOM     33  H2  UNL     1      33.733  37.127  39.893  1.00  0.00     0.188 HD
HETATM   34  N1  UNL     1      35.579  36.214  41.403  1.00  0.00    -0.233 N 
HETATM   35  N13 UNL     1      34.033  36.155  43.129  1.00  0.00    -0.072 N 
ATOM     36  H12 UNL     1      35.818  36.417  40.433  1.00  0.00     0.174 HD
ATOM     37  H11 UNL     1      36.255  35.849  42.073  1.00  0.00     0.174 HD
ATOM     38  H13 UNL     1      33.742  36.892  43.771  1.00  0.00     0.212 HD
HETATM   39  O1  UNL     1      31.731  36.977  42.388  1.00  0.00    -0.263 OA
BRANCH  35  40
HETATM   40  N14 UNL     1      34.122  34.822  43.537  1.00  0.00    -0.024 N 
HETATM   41  O4  UNL     1      33.946  34.575  44.753  1.00  0.00    -0.516 OA
HETATM   42  O5  UNL     1      34.390  33.781  42.685  1.00  0.00    -0.516 OA
ENDBRANCH  35  40
ENDBRANCH   1  30
BRANCH   4  43
HETATM   43  C5  UNL     1      29.209  37.421  37.143  1.00  0.00     0.025 A 
HETATM   44  C6  UNL     1      28.834  36.110  36.946  1.00  0.00     0.020 A 
HETATM   45  C7  UNL     1      28.214  35.789  35.750  1.00  0.00     0.049 A 
HETATM   46  C8  UNL     1      27.963  36.718  34.762  1.00  0.00     0.098 A 
HETATM   47  N4  UNL     1      27.381  36.391  33.650  1.00  0.00    -0.385 N 
HETATM   48  N5  UNL     1      28.343  37.988  34.990  1.00  0.00    -0.352 N 
ATOM     49  H42 UNL     1      27.093  35.428  33.478  1.00  0.00     0.157 HD
ATOM     50  H41 UNL     1      27.196  37.078  32.919  1.00  0.00     0.157 HD
HETATM   51  C9  UNL     1      28.952  38.338  36.151  1.00  0.00     0.105 A 
ATOM     52  H5  UNL     1      28.171  38.698  34.278  1.00  0.00     0.166 HD
ENDBRANCH   4  43
TORSDOF 10
ENDMDL
MODEL 3
REMARK VINA RESULT: -10.105033316      1.791      2.226
REMARK  10 active torsions:
REMARK  status: ('A' for Active; 'I' for Inactive)
REMARK       I    between atoms: C1_4  and  N2_5 
REMARK       I    between atoms: C1_4  and  N13_48 
REMARK       I    between atoms: N2_5  and  C2_7 
REMARK    1  A    between atoms: C2_7  and  C3_9 
REMARK    2  A    between atoms: C4_12  and  C5_13 
REMARK    3  A    between atoms: N7_25  and  N8_26 
REMARK    4  A    between atoms: N8_26  and  C10_28 
REMARK    5  A    between atoms: C10_28  and  C11_29 
REMARK    6  A    between atoms: N11_34  and  C12_35 
REMARK    7  A    between atoms: C12_35  and  C13_36 
REMARK    8  A    between atoms: C13_36  and  C14_38 
REMARK    9  A    between atoms: C17_41  and  O3_42 
REMARK   10  A    between atoms: N13_48  and  N14_50 
ROOT
HETATM    1  C3  UNL     1      30.857  38.400  38.779  1.00  0.00     0.215 A 
HETATM    2  N3  UNL     1      30.349  38.197  37.514  1.00  0.00    -0.319 N 
ATOM      3  H3  UNL     1      30.251  37.287  37.064  1.00  0.00     0.169 HD
HETATM    4  C4  UNL     1      30.003  39.366  36.962  1.00  0.00     0.135 A 
HETATM    5  N6  UNL     1      30.298  40.287  37.884  1.00  0.00    -0.262 N 
ATOM      6  H6  UNL     1      30.150  41.289  37.766  1.00  0.00     0.191 HD
HETATM    7  N7  UNL     1      30.811  39.723  38.979  1.00  0.00    -0.176 N 
ENDROOT
BRANCH   7   8
HETATM    8  N8  UNL     1      31.215  40.404  40.125  1.00  0.00    -0.306 N 
ATOM      9  H8  UNL     1      30.590  40.459  40.930  1.00  0.00     0.182 HD
BRANCH   8  10
HETATM   10  C10 UNL     1      32.518  41.036  40.181  1.00  0.00     0.220 C 
BRANCH  10  11
HETATM   11  C11 UNL     1      33.429  40.246  41.011  1.00  0.00     0.132 A 
HETATM   12  N9  UNL     1      33.918  39.011  40.848  1.00  0.00    -0.271 N 
HETATM   13  N10 UNL     1      34.705  38.737  41.872  1.00  0.00    -0.224 N 
ATOM     14  H9  UNL     1      33.716  38.388  40.065  1.00  0.00     0.190 HD
HETATM   15  N11 UNL     1      34.734  39.760  42.683  1.00  0.00    -0.211 N 
ATOM     16  H10 UNL     1      35.212  37.863  42.008  1.00  0.00     0.210 HD
HETATM   17  N12 UNL     1      33.967  40.690  42.182  1.00  0.00    -0.268 N 
ATOM     18  H12 UNL     1      33.796  41.604  42.601  1.00  0.00     0.190 HD
BRANCH  15  19
HETATM   19  C12 UNL     1      35.474  39.874  43.924  1.00  0.00     0.254 C 
BRANCH  19  20
HETATM   20  C13 UNL     1      35.090  38.803  44.871  1.00  0.00     0.180 C 
HETATM   21  O2  UNL     1      33.909  38.683  45.256  1.00  0.00    -0.290 OA
BRANCH  20  22
HETATM   22  C14 UNL     1      36.112  37.895  45.347  1.00  0.00     0.012 A 
HETATM   23  C15 UNL     1      37.357  38.381  45.676  1.00  0.00     0.018 A 
HETATM   24  C16 UNL     1      38.362  37.536  46.136  1.00  0.00     0.037 A 
HETATM   25  C17 UNL     1      38.132  36.199  46.271  1.00  0.00     0.065 A 
HETATM   26  C18 UNL     1      36.902  35.692  45.951  1.00  0.00     0.037 A 
HETATM   27  C19 UNL     1      35.922  36.535  45.498  1.00  0.00     0.018 A 
BRANCH  25  28
HETATM   28  O3  UNL     1      39.134  35.350  46.731  1.00  0.00    -0.361 OA
ATOM     29  H3  UNL     1      39.294  35.249  47.661  1.00  0.00     0.217 HD
ENDBRANCH  25  28
ENDBRANCH  20  22
ENDBRANCH  19  20
ENDBRANCH  15  19
ENDBRANCH  10  11
ENDBRANCH   8  10
ENDBRANCH   7   8
BRANCH   1  30
HETATM   30  C2  UNL     1      31.330  37.345  39.663  1.00  0.00     0.307 C 
HETATM   31  N2  UNL     1      30.561  36.981  40.822  1.00  0.00    -0.152 N 
HETATM   32  C1  UNL     1      30.980  35.966  41.703  1.00  0.00     0.698 C 
ATOM     33  H2  UNL     1      29.688  37.473  41.011  1.00  0.00     0.188 HD
HETATM   34  N1  UNL     1      30.261  35.674  42.729  1.00  0.00    -0.233 N 
HETATM   35  N13 UNL     1      32.184  35.231  41.514  1.00  0.00    -0.072 N 
ATOM     36  H12 UNL     1      29.399  36.200  42.866  1.00  0.00     0.174 HD
ATOM     37  H11 UNL     1      30.564  34.938  43.368  1.00  0.00     0.174 HD
ATOM     38  H13 UNL     1      32.319  34.631  40.700  1.00  0.00     0.212 HD
HETATM   39  O1  UNL     1      32.387  36.731  39.455  1.00  0.00    -0.263 OA
BRANCH  35  40
HETATM   40  N14 UNL     1      33.171  35.370  42.491  1.00  0.00    -0.024 N 
HETATM   41  O4  UNL     1      33.339  36.508  42.989  1.00  0.00    -0.516 OA
HETATM   42  O5  UNL     1      33.959  34.336  42.929  1.00  0.00    -0.516 OA
ENDBRANCH  35  40
ENDBRANCH   1  30
BRANCH   4  43
HETATM   43  C5  UNL     1      29.426  39.560  35.626  1.00  0.00     0.025 A 
HETATM   44  C6  UNL     1      28.489  38.665  35.158  1.00  0.00     0.020 A 
HETATM   45  C7  UNL     1      27.967  38.880  33.894  1.00  0.00     0.049 A 
HETATM   46  C8  UNL     1      28.343  39.940  33.097  1.00  0.00     0.098 A 
HETATM   47  N4  UNL     1      27.838  40.119  31.915  1.00  0.00    -0.385 N 
HETATM   48  N5  UNL     1      29.260  40.794  33.587  1.00  0.00    -0.352 N 
ATOM     49  H42 UNL     1      27.143  39.472  31.544  1.00  0.00     0.157 HD
ATOM     50  H41 UNL     1      28.117  40.903  31.326  1.00  0.00     0.157 HD
HETATM   51  C9  UNL     1      29.793  40.614  34.822  1.00  0.00     0.105 A 
ATOM     52  H5  UNL     1      29.559  41.588  33.021  1.00  0.00     0.166 HD
ENDBRANCH   4  43
TORSDOF 10
ENDMDL
MODEL 4
REMARK VINA RESULT: -10.005239405      2.917      6.062
REMARK  10 active torsions:
REMARK  status: ('A' for Active; 'I' for Inactive)
REMARK       I    between atoms: C1_4  and  N2_5 
REMARK       I    between atoms: C1_4  and  N13_48 
REMARK       I    between atoms: N2_5  and  C2_7 
REMARK    1  A    between atoms: C2_7  and  C3_9 
REMARK    2  A    between atoms: C4_12  and  C5_13 
REMARK    3  A    between atoms: N7_25  and  N8_26 
REMARK    4  A    between atoms: N8_26  and  C10_28 
REMARK    5  A    between atoms: C10_28  and  C11_29 
REMARK    6  A    between atoms: N11_34  and  C12_35 
REMARK    7  A    between atoms: C12_35  and  C13_36 
REMARK    8  A    between atoms: C13_36  and  C14_38 
REMARK    9  A    between atoms: C17_41  and  O3_42 
REMARK   10  A    between atoms: N13_48  and  N14_50 
ROOT
HETATM    1  C3  UNL     1      30.394  39.544  37.660  1.00  0.00     0.215 A 
HETATM    2  N3  UNL     1      30.489  38.230  37.256  1.00  0.00    -0.319 N 
ATOM      3  H3  UNL     1      30.589  37.922  36.289  1.00  0.00     0.169 HD
HETATM    4  C4  UNL     1      30.431  37.415  38.316  1.00  0.00     0.135 A 
HETATM    5  N6  UNL     1      30.299  38.225  39.371  1.00  0.00    -0.262 N 
ATOM      6  H6  UNL     1      30.226  37.908  40.337  1.00  0.00     0.191 HD
HETATM    7  N7  UNL     1      30.275  39.505  38.992  1.00  0.00    -0.176 N 
ENDROOT
BRANCH   7   8
HETATM    8  N8  UNL     1      30.155  40.598  39.848  1.00  0.00    -0.306 N 
ATOM      9  H8  UNL     1      29.241  40.853  40.220  1.00  0.00     0.182 HD
BRANCH   8  10
HETATM   10  C10 UNL     1      31.323  41.376  40.211  1.00  0.00     0.220 C 
BRANCH  10  11
HETATM   11  C11 UNL     1      32.368  40.501  40.747  1.00  0.00     0.132 A 
HETATM   12  N9  UNL     1      33.571  40.173  40.263  1.00  0.00    -0.271 N 
HETATM   13  N10 UNL     1      34.151  39.346  41.114  1.00  0.00    -0.224 N 
ATOM     14  H9  UNL     1      33.973  40.505  39.386  1.00  0.00     0.190 HD
HETATM   15  N11 UNL     1      33.353  39.137  42.126  1.00  0.00    -0.211 N 
ATOM     16  H10 UNL     1      35.076  38.934  40.999  1.00  0.00     0.210 HD
HETATM   17  N12 UNL     1      32.263  39.828  41.927  1.00  0.00    -0.268 N 
ATOM     18  H12 UNL     1      31.460  39.858  42.556  1.00  0.00     0.190 HD
BRANCH  15  19
HETATM   19  C12 UNL     1      33.602  38.295  43.279  1.00  0.00     0.254 C 
BRANCH  19  20
HETATM   20  C13 UNL     1      34.779  37.425  43.058  1.00  0.00     0.180 C 
HETATM   21  O2  UNL     1      34.846  36.683  42.056  1.00  0.00    -0.290 OA
BRANCH  20  22
HETATM   22  C14 UNL     1      35.855  37.450  44.026  1.00  0.00     0.012 A 
HETATM   23  C15 UNL     1      35.766  36.680  45.163  1.00  0.00     0.018 A 
HETATM   24  C16 UNL     1      36.783  36.679  46.114  1.00  0.00     0.037 A 
HETATM   25  C17 UNL     1      37.895  37.448  45.935  1.00  0.00     0.065 A 
HETATM   26  C18 UNL     1      38.006  38.220  44.812  1.00  0.00     0.037 A 
HETATM   27  C19 UNL     1      36.998  38.212  43.885  1.00  0.00     0.018 A 
BRANCH  25  28
HETATM   28  O3  UNL     1      38.914  37.450  46.883  1.00  0.00    -0.361 OA
ATOM     29  H3  UNL     1      38.967  38.139  47.535  1.00  0.00     0.217 HD
ENDBRANCH  25  28
ENDBRANCH  20  22
ENDBRANCH  19  20
ENDBRANCH  15  19
ENDBRANCH  10  11
ENDBRANCH   8  10
ENDBRANCH   7   8
BRANCH   1  30
HETATM   30  C2  UNL     1      30.422  40.691  36.764  1.00  0.00     0.307 C 
HETATM   31  N2  UNL     1      31.503  40.843  35.828  1.00  0.00    -0.152 N 
HETATM   32  C1  UNL     1      31.572  41.936  34.943  1.00  0.00     0.698 C 
ATOM     33  H2  UNL     1      32.242  40.140  35.806  1.00  0.00     0.188 HD
HETATM   34  N1  UNL     1      32.558  42.034  34.123  1.00  0.00    -0.233 N 
HETATM   35  N13 UNL     1      30.585  42.961  34.908  1.00  0.00    -0.072 N 
ATOM     36  H12 UNL     1      33.266  41.300  34.147  1.00  0.00     0.174 HD
ATOM     37  H11 UNL     1      32.608  42.825  33.481  1.00  0.00     0.174 HD
ATOM     38  H13 UNL     1      29.619  42.762  34.646  1.00  0.00     0.212 HD
HETATM   39  O1  UNL     1      29.538  41.559  36.770  1.00  0.00    -0.263 OA
BRANCH  35  40
HETATM   40  N14 UNL     1      30.999  44.250  35.250  1.00  0.00    -0.024 N 
HETATM   41  O4  UNL     1      30.768  44.643  36.417  1.00  0.00    -0.516 OA
HETATM   42  O5  UNL     1      31.637  45.099  34.383  1.00  0.00    -0.516 OA
ENDBRANCH  35  40
ENDBRANCH   1  30
BRANCH   4  43
HETATM   43  C5  UNL     1      30.499  35.949  38.292  1.00  0.00     0.025 A 
HETATM   44  C6  UNL     1      30.119  35.236  39.408  1.00  0.00     0.020 A 
HETATM   45  C7  UNL     1      30.196  33.855  39.348  1.00  0.00     0.049 A 
HETATM   46  C8  UNL     1      30.631  33.175  38.230  1.00  0.00     0.098 A 
HETATM   47  N4  UNL     1      30.694  31.880  38.200  1.00  0.00    -0.385 N 
HETATM   48  N5  UNL     1      30.993  33.904  37.159  1.00  0.00    -0.352 N 
ATOM     49  H42 UNL     1      30.419  31.327  39.012  1.00  0.00     0.157 HD
ATOM     50  H41 UNL     1      31.016  31.378  37.373  1.00  0.00     0.157 HD
HETATM   51  C9  UNL     1      30.930  35.260  37.182  1.00  0.00     0.105 A 
ATOM     52  H5  UNL     1      31.319  33.431  36.316  1.00  0.00     0.166 HD
ENDBRANCH   4  43
TORSDOF 10
ENDMDL
MODEL 5
REMARK VINA RESULT: -9.966777411      2.941      4.699
REMARK  10 active torsions:
REMARK  status: ('A' for Active; 'I' for Inactive)
REMARK       I    between atoms: C1_4  and  N2_5 
REMARK       I    between atoms: C1_4  and  N13_48 
REMARK       I    between atoms: N2_5  and  C2_7 
REMARK    1  A    between atoms: C2_7  and  C3_9 
REMARK    2  A    between atoms: C4_12  and  C5_13 
REMARK    3  A    between atoms: N7_25  and  N8_26 
REMARK    4  A    between atoms: N8_26  and  C10_28 
REMARK    5  A    between atoms: C10_28  and  C11_29 
REMARK    6  A    between atoms: N11_34  and  C12_35 
REMARK    7  A    between atoms: C12_35  and  C13_36 
REMARK    8  A    between atoms: C13_36  and  C14_38 
REMARK    9  A    between atoms: C17_41  and  O3_42 
REMARK   10  A    between atoms: N13_48  and  N14_50 
ROOT
HETATM    1  C3  UNL     1      30.188  37.671  39.388  1.00  0.00     0.215 A 
HETATM    2  N3  UNL     1      29.780  37.625  38.073  1.00  0.00    -0.319 N 
ATOM      3  H3  UNL     1      29.779  38.420  37.434  1.00  0.00     0.169 HD
HETATM    4  C4  UNL     1      29.386  36.386  37.754  1.00  0.00     0.135 A 
HETATM    5  N6  UNL     1      29.549  35.671  38.871  1.00  0.00    -0.262 N 
ATOM      6  H6  UNL     1      29.335  34.677  38.956  1.00  0.00     0.191 HD
HETATM    7  N7  UNL     1      30.030  36.428  39.859  1.00  0.00    -0.176 N 
ENDROOT
BRANCH   7   8
HETATM    8  N8  UNL     1      30.319  35.985  41.148  1.00  0.00    -0.306 N 
ATOM      9  H8  UNL     1      29.638  36.120  41.896  1.00  0.00     0.182 HD
BRANCH   8  10
HETATM   10  C10 UNL     1      31.582  35.334  41.434  1.00  0.00     0.220 C 
BRANCH  10  11
HETATM   11  C11 UNL     1      32.631  36.333  41.645  1.00  0.00     0.132 A 
HETATM   12  N9  UNL     1      33.514  36.872  40.797  1.00  0.00    -0.271 N 
HETATM   13  N10 UNL     1      34.260  37.734  41.464  1.00  0.00    -0.224 N 
ATOM     14  H9  UNL     1      33.597  36.654  39.803  1.00  0.00     0.190 HD
HETATM   15  N11 UNL     1      33.879  37.761  42.713  1.00  0.00    -0.211 N 
ATOM     16  H10 UNL     1      35.015  38.291  41.066  1.00  0.00     0.210 HD
HETATM   17  N12 UNL     1      32.890  36.919  42.848  1.00  0.00    -0.268 N 
ATOM     18  H12 UNL     1      32.391  36.729  43.717  1.00  0.00     0.190 HD
BRANCH  15  19
HETATM   19  C12 UNL     1      34.432  38.569  43.780  1.00  0.00     0.254 C 
BRANCH  19  20
HETATM   20  C13 UNL     1      35.905  38.664  43.666  1.00  0.00     0.180 C 
HETATM   21  O2  UNL     1      36.435  39.437  42.842  1.00  0.00    -0.290 OA
BRANCH  20  22
HETATM   22  C14 UNL     1      36.724  37.840  44.531  1.00  0.00     0.012 A 
HETATM   23  C15 UNL     1      36.286  36.587  44.894  1.00  0.00     0.018 A 
HETATM   24  C16 UNL     1      37.049  35.770  45.723  1.00  0.00     0.037 A 
HETATM   25  C17 UNL     1      38.254  36.198  46.195  1.00  0.00     0.065 A 
HETATM   26  C18 UNL     1      38.711  37.440  45.847  1.00  0.00     0.037 A 
HETATM   27  C19 UNL     1      37.950  38.234  45.031  1.00  0.00     0.018 A 
BRANCH  25  28
HETATM   28  O3  UNL     1      39.020  35.384  47.024  1.00  0.00    -0.361 OA
ATOM     29  H3  UNL     1      39.879  35.086  46.750  1.00  0.00     0.217 HD
ENDBRANCH  25  28
ENDBRANCH  20  22
ENDBRANCH  19  20
ENDBRANCH  15  19
ENDBRANCH  10  11
ENDBRANCH   8  10
ENDBRANCH   7   8
BRANCH   1  30
HETATM   30  C2  UNL     1      30.679  38.863  40.063  1.00  0.00     0.307 C 
HETATM   31  N2  UNL     1      31.135  39.987  39.291  1.00  0.00    -0.152 N 
HETATM   32  C1  UNL     1      31.618  41.161  39.902  1.00  0.00     0.698 C 
ATOM     33  H2  UNL     1      31.108  39.933  38.273  1.00  0.00     0.188 HD
HETATM   34  N1  UNL     1      32.017  42.143  39.172  1.00  0.00    -0.233 N 
HETATM   35  N13 UNL     1      31.689  41.320  41.314  1.00  0.00    -0.072 N 
ATOM     36  H12 UNL     1      31.966  42.029  38.160  1.00  0.00     0.174 HD
ATOM     37  H11 UNL     1      32.366  42.993  39.614  1.00  0.00     0.174 HD
ATOM     38  H13 UNL     1      30.849  41.321  41.893  1.00  0.00     0.212 HD
HETATM   39  O1  UNL     1      30.722  38.956  41.298  1.00  0.00    -0.263 OA
BRANCH  35  40
HETATM   40  N14 UNL     1      32.961  41.474  41.870  1.00  0.00    -0.024 N 
HETATM   41  O4  UNL     1      33.928  40.967  41.257  1.00  0.00    -0.516 OA
HETATM   42  O5  UNL     1      33.202  42.146  43.042  1.00  0.00    -0.516 OA
ENDBRANCH  35  40
ENDBRANCH   1  30
BRANCH   4  43
HETATM   43  C5  UNL     1      28.884  35.942  36.448  1.00  0.00     0.025 A 
HETATM   44  C6  UNL     1      28.154  36.815  35.672  1.00  0.00     0.020 A 
HETATM   45  C7  UNL     1      27.698  36.362  34.446  1.00  0.00     0.049 A 
HETATM   46  C8  UNL     1      27.942  35.088  33.978  1.00  0.00     0.098 A 
HETATM   47  N4  UNL     1      27.503  34.688  32.825  1.00  0.00    -0.385 N 
HETATM   48  N5  UNL     1      28.659  34.263  34.763  1.00  0.00    -0.352 N 
ATOM     49  H42 UNL     1      26.960  35.313  32.230  1.00  0.00     0.157 HD
ATOM     50  H41 UNL     1      27.684  33.745  32.480  1.00  0.00     0.157 HD
HETATM   51  C9  UNL     1      29.122  34.674  35.970  1.00  0.00     0.105 A 
ATOM     52  H5  UNL     1      28.857  33.314  34.445  1.00  0.00     0.166 HD
ENDBRANCH   4  43
TORSDOF 10
ENDMDL
