MODEL 1
REMARK VINA RESULT: -9.303238603      0.000      0.000
REMARK  9 active torsions:
REMARK  status: ('A' for Active; 'I' for Inactive)
REMARK    1  A    between atoms: C2_2  and  N1_3 
REMARK    2  A    between atoms: C4_5  and  C5_6 
REMARK    3  A    between atoms: C8_14  and  C9_15 
REMARK    4  A    between atoms: C10_16  and  N4_17 
REMARK    5  A    between atoms: C11_24  and  C12_25 
REMARK    6  A    between atoms: C12_25  and  C13_26 
REMARK    7  A    between atoms: C12_25  and  N9_30 
REMARK    8  A    between atoms: C13_26  and  C14_27 
REMARK       I    between atoms: N9_30  and  C15_32 
REMARK    9  A    between atoms: C16_37  and  N11_38 
ROOT
HETATM    1  C9  UNL     1      30.652  38.037  38.914  1.00  0.00     0.080 A 
HETATM    2  C10 UNL     1      30.342  37.707  37.635  1.00  0.00     0.148 A 
HETATM    3  N10 UNL     1      30.015  38.608  36.652  1.00  0.00    -0.325 N 
ATOM      4  H10 UNL     1      29.788  38.298  35.707  1.00  0.00     0.169 HD
HETATM    5  C16 UNL     1      30.002  39.900  36.974  1.00  0.00     0.123 A 
HETATM    6  C17 UNL     1      30.304  40.332  38.243  1.00  0.00     0.113 A 
HETATM    7  C18 UNL     1      30.287  41.752  38.574  1.00  0.00     0.105 C 
HETATM    8  N12 UNL     1      30.287  42.878  38.836  1.00  0.00    -0.191 NA
HETATM    9  C19 UNL     1      30.624  39.441  39.203  1.00  0.00     0.088 A 
HETATM   10  N13 UNL     1      30.938  39.840  40.542  1.00  0.00    -0.100 NA
ENDROOT
BRANCH   5  11
HETATM   11  N11 UNL     1      29.698  40.772  36.069  1.00  0.00    -0.384 N 
ATOM     12 2H11 UNL     1      28.726  41.065  35.971  1.00  0.00     0.157 HD
ATOM     13 1H11 UNL     1      30.435  41.149  35.472  1.00  0.00     0.157 HD
ENDBRANCH   5  11
BRANCH   1  14
HETATM   14  C8  UNL     1      30.920  37.158  40.028  1.00  0.00     0.123 A 
HETATM   15  N3  UNL     1      29.837  36.517  40.558  1.00  0.00    -0.328 N 
HETATM   16  C7  UNL     1      29.900  35.725  41.641  1.00  0.00     0.102 A 
ATOM     17  H3  UNL     1      28.932  36.646  40.108  1.00  0.00     0.169 HD
HETATM   18  C6  UNL     1      31.133  35.548  42.257  1.00  0.00     0.078 A 
HETATM   19  N2  UNL     1      28.876  35.127  42.133  1.00  0.00    -0.385 N 
HETATM   20  C5  UNL     1      32.223  36.175  41.747  1.00  0.00     0.050 A 
HETATM   21  N14 UNL     1      32.058  36.966  40.633  1.00  0.00    -0.341 N 
ATOM     22  H14 UNL     1      32.883  37.433  40.256  1.00  0.00     0.167 HD
ATOM     23  H22 UNL     1      28.924  34.525  42.955  1.00  0.00     0.157 HD
ATOM     24  H21 UNL     1      27.972  35.257  41.682  1.00  0.00     0.157 HD
BRANCH  20  25
HETATM   25  C4  UNL     1      33.539  36.020  42.359  1.00  0.00     0.025 A 
HETATM   26  C3  UNL     1      33.839  35.503  43.600  1.00  0.00     0.125 A 
HETATM   27  N1  UNL     1      35.177  35.535  43.789  1.00  0.00    -0.303 N 
HETATM   28  N15 UNL     1      35.704  36.051  42.711  1.00  0.00    -0.309 N 
HETATM   29  C20 UNL     1      34.760  36.366  41.808  1.00  0.00     0.122 A 
ATOM     30  H15 UNL     1      36.704  36.197  42.573  1.00  0.00     0.186 HD
BRANCH  27  31
HETATM   31  C2  UNL     1      35.900  35.084  44.962  1.00  0.00     0.143 C 
HETATM   32  C1  UNL     1      36.216  36.229  45.882  1.00  0.00     0.028 C 
ENDBRANCH  27  31
ENDBRANCH  20  25
ENDBRANCH   1  14
BRANCH   2  33
HETATM   33  N4  UNL     1      30.396  36.364  37.149  1.00  0.00    -0.207 N 
HETATM   34  N5  UNL     1      31.376  35.472  37.336  1.00  0.00    -0.218 N 
HETATM   35  N6  UNL     1      31.029  34.340  36.810  1.00  0.00    -0.226 N 
ATOM     36  H5  UNL     1      32.257  35.655  37.816  1.00  0.00     0.210 HD
HETATM   37  N7  UNL     1      29.831  34.487  36.284  1.00  0.00    -0.270 N 
ATOM     38  H6  UNL     1      31.585  33.486  36.805  1.00  0.00     0.210 HD
HETATM   39  C11 UNL     1      29.394  35.767  36.481  1.00  0.00     0.146 A 
ATOM     40  H7  UNL     1      29.308  33.756  35.802  1.00  0.00     0.190 HD
BRANCH  39  41
HETATM   41  C12 UNL     1      28.080  36.218  36.023  1.00  0.00     0.167 C 
BRANCH  41  42
HETATM   42  C13 UNL     1      28.011  36.726  34.607  1.00  0.00     0.132 C 
BRANCH  42  43
HETATM   43  C14 UNL     1      27.895  38.201  34.541  1.00  0.00     0.233 C 
HETATM   44  N8  UNL     1      28.652  38.976  33.586  1.00  0.00    -0.062 NA
HETATM   45  O1  UNL     1      27.151  38.896  35.285  1.00  0.00    -0.277 OA
ENDBRANCH  42  43
ENDBRANCH  41  42
BRANCH  41  46
HETATM   46  N9  UNL     1      27.095  35.118  36.065  1.00  0.00    -0.323 N 
HETATM   47  C15 UNL     1      26.769  34.441  37.259  1.00  0.00     0.284 C 
HETATM   48  O2  UNL     1      27.324  34.770  38.331  1.00  0.00    -0.630 OA
HETATM   49  O3  UNL     1      25.845  33.414  37.280  1.00  0.00    -0.630 OA
ATOM     50  H9  UNL     1      26.634  34.838  35.199  1.00  0.00     0.166 HD
ENDBRANCH  41  46
ENDBRANCH  39  41
ENDBRANCH   2  33
TORSDOF 9
ENDMDL
MODEL 2
REMARK VINA RESULT: -9.242744383      4.651      7.206
REMARK  9 active torsions:
REMARK  status: ('A' for Active; 'I' for Inactive)
REMARK    1  A    between atoms: C2_2  and  N1_3 
REMARK    2  A    between atoms: C4_5  and  C5_6 
REMARK    3  A    between atoms: C8_14  and  C9_15 
REMARK    4  A    between atoms: C10_16  and  N4_17 
REMARK    5  A    between atoms: C11_24  and  C12_25 
REMARK    6  A    between atoms: C12_25  and  C13_26 
REMARK    7  A    between atoms: C12_25  and  N9_30 
REMARK    8  A    between atoms: C13_26  and  C14_27 
REMARK       I    between atoms: N9_30  and  C15_32 
REMARK    9  A    between atoms: C16_37  and  N11_38 
ROOT
HETATM    1  C9  UNL     1      28.409  33.950  37.189  1.00  0.00     0.080 A 
HETATM    2  C10 UNL     1      27.363  34.222  36.371  1.00  0.00     0.148 A 
HETATM    3  N10 UNL     1      27.114  35.446  35.799  1.00  0.00    -0.325 N 
ATOM      4  H10 UNL     1      26.306  35.589  35.192  1.00  0.00     0.169 HD
HETATM    5  C16 UNL     1      27.961  36.438  36.063  1.00  0.00     0.123 A 
HETATM    6  C17 UNL     1      29.052  36.259  36.878  1.00  0.00     0.113 A 
HETATM    7  C18 UNL     1      29.970  37.358  37.154  1.00  0.00     0.105 C 
HETATM    8  N12 UNL     1      30.706  38.225  37.362  1.00  0.00    -0.191 NA
HETATM    9  C19 UNL     1      29.289  35.055  37.437  1.00  0.00     0.088 A 
HETATM   10  N13 UNL     1      30.407  34.820  38.301  1.00  0.00    -0.100 NA
ENDROOT
BRANCH   5  11
HETATM   11  N11 UNL     1      27.753  37.601  35.539  1.00  0.00    -0.384 N 
ATOM     12 2H11 UNL     1      27.053  37.696  34.803  1.00  0.00     0.157 HD
ATOM     13 1H11 UNL     1      28.293  38.401  35.870  1.00  0.00     0.157 HD
ENDBRANCH   5  11
BRANCH   1  14
HETATM   14  C8  UNL     1      28.699  32.727  37.900  1.00  0.00     0.123 A 
HETATM   15  N3  UNL     1      28.353  32.708  39.221  1.00  0.00    -0.328 N 
HETATM   16  C7  UNL     1      28.620  31.681  40.043  1.00  0.00     0.102 A 
ATOM     17  H3  UNL     1      27.866  33.518  39.605  1.00  0.00     0.169 HD
HETATM   18  C6  UNL     1      29.284  30.576  39.524  1.00  0.00     0.078 A 
HETATM   19  N2  UNL     1      28.291  31.672  41.285  1.00  0.00    -0.385 N 
HETATM   20  C5  UNL     1      29.637  30.574  38.214  1.00  0.00     0.050 A 
HETATM   21  N14 UNL     1      29.319  31.673  37.451  1.00  0.00    -0.341 N 
ATOM     22  H14 UNL     1      29.588  31.662  36.467  1.00  0.00     0.167 HD
ATOM     23  H22 UNL     1      28.494  30.891  41.910  1.00  0.00     0.157 HD
ATOM     24  H21 UNL     1      27.804  32.482  41.667  1.00  0.00     0.157 HD
BRANCH  20  25
HETATM   25  C4  UNL     1      30.336  29.437  37.623  1.00  0.00     0.025 A 
HETATM   26  C3  UNL     1      30.505  29.149  36.287  1.00  0.00     0.125 A 
HETATM   27  N1  UNL     1      31.213  28.004  36.158  1.00  0.00    -0.303 N 
HETATM   28  N15 UNL     1      31.482  27.584  37.365  1.00  0.00    -0.309 N 
HETATM   29  C20 UNL     1      30.976  28.411  38.296  1.00  0.00     0.122 A 
ATOM     30  H15 UNL     1      32.008  26.736  37.575  1.00  0.00     0.186 HD
BRANCH  27  31
HETATM   31  C2  UNL     1      31.603  27.357  34.921  1.00  0.00     0.143 C 
HETATM   32  C1  UNL     1      30.495  27.402  33.908  1.00  0.00     0.028 C 
ENDBRANCH  27  31
ENDBRANCH  20  25
ENDBRANCH   1  14
BRANCH   2  33
HETATM   33  N4  UNL     1      26.430  33.223  35.951  1.00  0.00    -0.207 N 
HETATM   34  N5  UNL     1      25.172  33.057  36.376  1.00  0.00    -0.218 N 
HETATM   35  N6  UNL     1      24.619  32.096  35.707  1.00  0.00    -0.226 N 
ATOM     36  H5  UNL     1      24.721  33.602  37.111  1.00  0.00     0.210 HD
HETATM   37  N7  UNL     1      25.506  31.636  34.849  1.00  0.00    -0.270 N 
ATOM     38  H6  UNL     1      23.665  31.756  35.824  1.00  0.00     0.210 HD
HETATM   39  C11 UNL     1      26.676  32.332  34.975  1.00  0.00     0.146 A 
ATOM     40  H7  UNL     1      25.344  30.874  34.190  1.00  0.00     0.190 HD
BRANCH  39  41
HETATM   41  C12 UNL     1      27.838  32.055  34.132  1.00  0.00     0.167 C 
BRANCH  41  42
HETATM   42  C13 UNL     1      28.167  30.603  33.913  1.00  0.00     0.132 C 
BRANCH  42  43
HETATM   43  C14 UNL     1      27.760  30.128  32.570  1.00  0.00     0.233 C 
HETATM   44  N8  UNL     1      28.729  29.910  31.521  1.00  0.00    -0.062 NA
HETATM   45  O1  UNL     1      26.573  29.878  32.227  1.00  0.00    -0.277 OA
ENDBRANCH  42  43
ENDBRANCH  41  42
BRANCH  41  46
HETATM   46  N9  UNL     1      27.648  32.596  32.771  1.00  0.00    -0.323 N 
HETATM   47  C15 UNL     1      28.110  33.874  32.393  1.00  0.00     0.284 C 
HETATM   48  O2  UNL     1      28.705  34.592  33.228  1.00  0.00    -0.630 OA
HETATM   49  O3  UNL     1      27.924  34.364  31.115  1.00  0.00    -0.630 OA
ATOM     50  H9  UNL     1      27.165  32.024  32.077  1.00  0.00     0.166 HD
ENDBRANCH  41  46
ENDBRANCH  39  41
ENDBRANCH   2  33
TORSDOF 9
ENDMDL
MODEL 3
REMARK VINA RESULT: -9.205800003      2.605      4.387
REMARK  9 active torsions:
REMARK  status: ('A' for Active; 'I' for Inactive)
REMARK    1  A    between atoms: C2_2  and  N1_3 
REMARK    2  A    between atoms: C4_5  and  C5_6 
REMARK    3  A    between atoms: C8_14  and  C9_15 
REMARK    4  A    between atoms: C10_16  and  N4_17 
REMARK    5  A    between atoms: C11_24  and  C12_25 
REMARK    6  A    between atoms: C12_25  and  C13_26 
REMARK    7  A    between atoms: C12_25  and  N9_30 
REMARK    8  A    between atoms: C13_26  and  C14_27 
REMARK       I    between atoms: N9_30  and  C15_32 
REMARK    9  A    between atoms: C16_37  and  N11_38 
ROOT
HETATM    1  C9  UNL     1      32.405  38.862  41.518  1.00  0.00     0.080 A 
HETATM    2  C10 UNL     1      31.132  38.538  41.185  1.00  0.00     0.148 A 
HETATM    3  N10 UNL     1      30.228  39.401  40.615  1.00  0.00    -0.325 N 
ATOM      4  H10 UNL     1      29.280  39.098  40.389  1.00  0.00     0.169 HD
HETATM    5  C16 UNL     1      30.629  40.646  40.368  1.00  0.00     0.123 A 
HETATM    6  C17 UNL     1      31.902  41.068  40.668  1.00  0.00     0.113 A 
HETATM    7  C18 UNL     1      32.323  42.435  40.388  1.00  0.00     0.105 C 
HETATM    8  N12 UNL     1      32.664  43.515  40.154  1.00  0.00    -0.191 NA
HETATM    9  C19 UNL     1      32.783  40.215  41.229  1.00  0.00     0.088 A 
HETATM   10  N13 UNL     1      34.118  40.608  41.568  1.00  0.00    -0.100 NA
ENDROOT
BRANCH   5  11
HETATM   11  N11 UNL     1      29.801  41.481  39.832  1.00  0.00    -0.384 N 
ATOM     12 2H11 UNL     1      30.150  42.165  39.162  1.00  0.00     0.157 HD
ATOM     13 1H11 UNL     1      28.815  41.440  40.091  1.00  0.00     0.157 HD
ENDBRANCH   5  11
BRANCH   1  14
HETATM   14  C8  UNL     1      33.390  38.052  42.196  1.00  0.00     0.123 A 
HETATM   15  N3  UNL     1      33.405  36.727  41.864  1.00  0.00    -0.328 N 
HETATM   16  C7  UNL     1      34.204  35.824  42.453  1.00  0.00     0.102 A 
ATOM     17  H3  UNL     1      32.774  36.407  41.130  1.00  0.00     0.169 HD
HETATM   18  C6  UNL     1      35.064  36.258  43.455  1.00  0.00     0.078 A 
HETATM   19  N2  UNL     1      34.211  34.579  42.136  1.00  0.00    -0.385 N 
HETATM   20  C5  UNL     1      35.066  37.571  43.800  1.00  0.00     0.050 A 
HETATM   21  N14 UNL     1      34.211  38.420  43.138  1.00  0.00    -0.341 N 
ATOM     22  H14 UNL     1      34.220  39.405  43.404  1.00  0.00     0.167 HD
ATOM     23  H22 UNL     1      34.818  33.893  42.583  1.00  0.00     0.157 HD
ATOM     24  H21 UNL     1      33.580  34.260  41.401  1.00  0.00     0.157 HD
BRANCH  20  25
HETATM   25  C4  UNL     1      35.951  38.074  44.847  1.00  0.00     0.025 A 
HETATM   26  C3  UNL     1      36.344  39.375  45.069  1.00  0.00     0.125 A 
HETATM   27  N1  UNL     1      37.168  39.421  46.139  1.00  0.00    -0.303 N 
HETATM   28  N15 UNL     1      37.292  38.197  46.578  1.00  0.00    -0.309 N 
HETATM   29  C20 UNL     1      36.578  37.336  45.835  1.00  0.00     0.122 A 
ATOM     30  H15 UNL     1      37.859  37.929  47.382  1.00  0.00     0.186 HD
BRANCH  27  31
HETATM   31  C2  UNL     1      37.800  40.598  46.701  1.00  0.00     0.143 C 
HETATM   32  C1  UNL     1      36.921  41.809  46.563  1.00  0.00     0.028 C 
ENDBRANCH  27  31
ENDBRANCH  20  25
ENDBRANCH   1  14
BRANCH   2  33
HETATM   33  N4  UNL     1      30.608  37.216  41.328  1.00  0.00    -0.207 N 
HETATM   34  N5  UNL     1      30.325  36.574  42.468  1.00  0.00    -0.218 N 
HETATM   35  N6  UNL     1      29.795  35.425  42.190  1.00  0.00    -0.226 N 
ATOM     36  H5  UNL     1      30.499  36.933  43.406  1.00  0.00     0.210 HD
HETATM   37  N7  UNL     1      29.730  35.314  40.880  1.00  0.00    -0.270 N 
ATOM     38  H6  UNL     1      29.484  34.729  42.867  1.00  0.00     0.210 HD
HETATM   39  C11 UNL     1      30.240  36.439  40.294  1.00  0.00     0.146 A 
ATOM     40  H7  UNL     1      29.356  34.509  40.378  1.00  0.00     0.190 HD
BRANCH  39  41
HETATM   41  C12 UNL     1      30.278  36.610  38.842  1.00  0.00     0.167 C 
BRANCH  41  42
HETATM   42  C13 UNL     1      30.803  35.442  38.051  1.00  0.00     0.132 C 
BRANCH  42  43
HETATM   43  C14 UNL     1      29.719  34.649  37.427  1.00  0.00     0.233 C 
HETATM   44  N8  UNL     1      28.951  33.691  38.187  1.00  0.00    -0.062 NA
HETATM   45  O1  UNL     1      29.375  34.733  36.217  1.00  0.00    -0.277 OA
ENDBRANCH  42  43
ENDBRANCH  41  42
BRANCH  41  46
HETATM   46  N9  UNL     1      28.923  36.839  38.299  1.00  0.00    -0.323 N 
HETATM   47  C15 UNL     1      28.518  38.086  37.779  1.00  0.00     0.284 C 
HETATM   48  O2  UNL     1      29.322  39.046  37.769  1.00  0.00    -0.630 OA
HETATM   49  O3  UNL     1      27.248  38.283  37.274  1.00  0.00    -0.630 OA
ATOM     50  H9  UNL     1      28.256  36.067  38.300  1.00  0.00     0.166 HD
ENDBRANCH  41  46
ENDBRANCH  39  41
ENDBRANCH   2  33
TORSDOF 9
ENDMDL
MODEL 4
REMARK VINA RESULT: -9.200680861      2.517      3.631
REMARK  9 active torsions:
REMARK  status: ('A' for Active; 'I' for Inactive)
REMARK    1  A    between atoms: C2_2  and  N1_3 
REMARK    2  A    between atoms: C4_5  and  C5_6 
REMARK    3  A    between atoms: C8_14  and  C9_15 
REMARK    4  A    between atoms: C10_16  and  N4_17 
REMARK    5  A    between atoms: C11_24  and  C12_25 
REMARK    6  A    between atoms: C12_25  and  C13_26 
REMARK    7  A    between atoms: C12_25  and  N9_30 
REMARK    8  A    between atoms: C13_26  and  C14_27 
REMARK       I    between atoms: N9_30  and  C15_32 
REMARK    9  A    between atoms: C16_37  and  N11_38 
ROOT
HETATM    1  C9  UNL     1      29.589  36.465  38.120  1.00  0.00     0.080 A 
HETATM    2  C10 UNL     1      29.420  35.438  37.251  1.00  0.00     0.148 A 
HETATM    3  N10 UNL     1      28.758  35.529  36.051  1.00  0.00    -0.325 N 
ATOM      4  H10 UNL     1      28.661  34.718  35.439  1.00  0.00     0.169 HD
HETATM    5  C16 UNL     1      28.246  36.711  35.712  1.00  0.00     0.123 A 
HETATM    6  C17 UNL     1      28.369  37.811  36.526  1.00  0.00     0.113 A 
HETATM    7  C18 UNL     1      27.803  39.097  36.136  1.00  0.00     0.105 C 
HETATM    8  N12 UNL     1      27.368  40.121  35.823  1.00  0.00    -0.191 NA
HETATM    9  C19 UNL     1      29.019  37.713  37.703  1.00  0.00     0.088 A 
HETATM   10  N13 UNL     1      29.166  38.828  38.590  1.00  0.00    -0.100 NA
ENDROOT
BRANCH   5  11
HETATM   11  N11 UNL     1      27.618  36.827  34.589  1.00  0.00    -0.384 N 
ATOM     12 2H11 UNL     1      28.148  37.033  33.743  1.00  0.00     0.157 HD
ATOM     13 1H11 UNL     1      26.604  36.712  34.571  1.00  0.00     0.157 HD
ENDBRANCH   5  11
BRANCH   1  14
HETATM   14  C8  UNL     1      30.189  36.441  39.433  1.00  0.00     0.123 A 
HETATM   15  N3  UNL     1      29.488  35.777  40.398  1.00  0.00    -0.328 N 
HETATM   16  C7  UNL     1      29.866  35.723  41.685  1.00  0.00     0.102 A 
ATOM     17  H3  UNL     1      28.630  35.296  40.127  1.00  0.00     0.169 HD
HETATM   18  C6  UNL     1      31.034  36.378  42.058  1.00  0.00     0.078 A 
HETATM   19  N2  UNL     1      29.199  35.097  42.587  1.00  0.00    -0.385 N 
HETATM   20  C5  UNL     1      31.746  37.044  41.114  1.00  0.00     0.050 A 
HETATM   21  N14 UNL     1      31.279  37.041  39.821  1.00  0.00    -0.341 N 
ATOM     22  H14 UNL     1      31.821  37.544  39.118  1.00  0.00     0.167 HD
ATOM     23  H22 UNL     1      29.487  35.056  43.565  1.00  0.00     0.157 HD
ATOM     24  H21 UNL     1      28.343  34.616  42.315  1.00  0.00     0.157 HD
BRANCH  20  25
HETATM   25  C4  UNL     1      32.979  37.747  41.456  1.00  0.00     0.025 A 
HETATM   26  C3  UNL     1      33.972  37.343  42.321  1.00  0.00     0.125 A 
HETATM   27  N1  UNL     1      34.945  38.280  42.359  1.00  0.00    -0.303 N 
HETATM   28  N15 UNL     1      34.583  39.241  41.551  1.00  0.00    -0.309 N 
HETATM   29  C20 UNL     1      33.399  38.974  40.975  1.00  0.00     0.122 A 
ATOM     30  H15 UNL     1      35.130  40.084  41.380  1.00  0.00     0.186 HD
BRANCH  27  31
HETATM   31  C2  UNL     1      36.163  38.238  43.145  1.00  0.00     0.143 C 
HETATM   32  C1  UNL     1      36.248  36.974  43.953  1.00  0.00     0.028 C 
ENDBRANCH  27  31
ENDBRANCH  20  25
ENDBRANCH   1  14
BRANCH   2  33
HETATM   33  N4  UNL     1      29.988  34.144  37.464  1.00  0.00    -0.207 N 
HETATM   34  N5  UNL     1      31.262  33.776  37.283  1.00  0.00    -0.218 N 
HETATM   35  N6  UNL     1      31.408  32.545  37.656  1.00  0.00    -0.226 N 
ATOM     36  H5  UNL     1      32.000  34.372  36.909  1.00  0.00     0.210 HD
HETATM   37  N7  UNL     1      30.241  32.108  38.080  1.00  0.00    -0.270 N 
ATOM     38  H6  UNL     1      32.275  32.009  37.627  1.00  0.00     0.210 HD
HETATM   39  C11 UNL     1      29.308  33.101  37.973  1.00  0.00     0.146 A 
ATOM     40  H7  UNL     1      30.060  31.169  38.435  1.00  0.00     0.190 HD
BRANCH  39  41
HETATM   41  C12 UNL     1      27.920  32.912  38.393  1.00  0.00     0.167 C 
BRANCH  41  42
HETATM   42  C13 UNL     1      26.910  32.755  37.289  1.00  0.00     0.132 C 
BRANCH  42  43
HETATM   43  C14 UNL     1      27.478  32.087  36.095  1.00  0.00     0.233 C 
HETATM   44  N8  UNL     1      27.624  32.782  34.838  1.00  0.00    -0.062 NA
HETATM   45  O1  UNL     1      27.874  30.890  36.064  1.00  0.00    -0.277 OA
ENDBRANCH  42  43
ENDBRANCH  41  42
BRANCH  41  46
HETATM   46  N9  UNL     1      27.772  31.685  39.201  1.00  0.00    -0.323 N 
HETATM   47  C15 UNL     1      28.227  31.596  40.534  1.00  0.00     0.284 C 
HETATM   48  O2  UNL     1      28.778  32.584  41.069  1.00  0.00    -0.630 OA
HETATM   49  O3  UNL     1      28.079  30.441  41.275  1.00  0.00    -0.630 OA
ATOM     50  H9  UNL     1      27.324  30.870  38.780  1.00  0.00     0.166 HD
ENDBRANCH  41  46
ENDBRANCH  39  41
ENDBRANCH   2  33
TORSDOF 9
ENDMDL
MODEL 5
REMARK VINA RESULT: -9.053969589      1.825      2.545
REMARK  9 active torsions:
REMARK  status: ('A' for Active; 'I' for Inactive)
REMARK    1  A    between atoms: C2_2  and  N1_3 
REMARK    2  A    between atoms: C4_5  and  C5_6 
REMARK    3  A    between atoms: C8_14  and  C9_15 
REMARK    4  A    between atoms: C10_16  and  N4_17 
REMARK    5  A    between atoms: C11_24  and  C12_25 
REMARK    6  A    between atoms: C12_25  and  C13_26 
REMARK    7  A    between atoms: C12_25  and  N9_30 
REMARK    8  A    between atoms: C13_26  and  C14_27 
REMARK       I    between atoms: N9_30  and  C15_32 
REMARK    9  A    between atoms: C16_37  and  N11_38 
ROOT
HETATM    1  C9  UNL     1      30.297  37.711  38.892  1.00  0.00     0.080 A 
HETATM    2  C10 UNL     1      29.981  37.114  37.716  1.00  0.00     0.148 A 
HETATM    3  N10 UNL     1      29.395  37.749  36.649  1.00  0.00    -0.325 N 
ATOM      4  H10 UNL     1      29.179  37.244  35.789  1.00  0.00     0.169 HD
HETATM    5  C16 UNL     1      29.118  39.045  36.774  1.00  0.00     0.123 A 
HETATM    6  C17 UNL     1      29.403  39.737  37.926  1.00  0.00     0.113 A 
HETATM    7  C18 UNL     1      29.092  41.157  38.042  1.00  0.00     0.105 C 
HETATM    8  N12 UNL     1      28.860  42.286  38.132  1.00  0.00    -0.191 NA
HETATM    9  C19 UNL     1      29.977  39.106  38.970  1.00  0.00     0.088 A 
HETATM   10  N13 UNL     1      30.285  39.781  40.195  1.00  0.00    -0.100 NA
ENDROOT
BRANCH   5  11
HETATM   11  N11 UNL     1      28.566  39.670  35.786  1.00  0.00    -0.384 N 
ATOM     12 2H11 UNL     1      27.797  39.224  35.285  1.00  0.00     0.157 HD
ATOM     13 1H11 UNL     1      28.910  40.595  35.526  1.00  0.00     0.157 HD
ENDBRANCH   5  11
BRANCH   1  14
HETATM   14  C8  UNL     1      30.830  37.107  40.091  1.00  0.00     0.123 A 
HETATM   15  N3  UNL     1      29.932  36.439  40.874  1.00  0.00    -0.328 N 
HETATM   16  C7  UNL     1      30.246  35.887  42.057  1.00  0.00     0.102 A 
ATOM     17  H3  UNL     1      28.971  36.356  40.543  1.00  0.00     0.169 HD
HETATM   18  C6  UNL     1      31.554  36.000  42.511  1.00  0.00     0.078 A 
HETATM   19  N2  UNL     1      29.395  35.261  42.788  1.00  0.00    -0.385 N 
HETATM   20  C5  UNL     1      32.463  36.660  41.749  1.00  0.00     0.050 A 
HETATM   21  N14 UNL     1      32.046  37.191  40.551  1.00  0.00    -0.341 N 
ATOM     22  H14 UNL     1      32.736  37.684  39.984  1.00  0.00     0.167 HD
ATOM     23  H22 UNL     1      29.633  34.841  43.686  1.00  0.00     0.157 HD
ATOM     24  H21 UNL     1      28.435  35.178  42.455  1.00  0.00     0.157 HD
BRANCH  20  25
HETATM   25  C4  UNL     1      33.849  36.805  42.183  1.00  0.00     0.025 A 
HETATM   26  C3  UNL     1      34.481  37.944  42.630  1.00  0.00     0.125 A 
HETATM   27  N1  UNL     1      35.766  37.656  42.935  1.00  0.00    -0.303 N 
HETATM   28  N15 UNL     1      35.942  36.385  42.692  1.00  0.00    -0.309 N 
HETATM   29  C20 UNL     1      34.815  35.814  42.233  1.00  0.00     0.122 A 
ATOM     30  H15 UNL     1      36.821  35.888  42.832  1.00  0.00     0.186 HD
BRANCH  27  31
HETATM   31  C2  UNL     1      36.768  38.576  43.437  1.00  0.00     0.143 C 
HETATM   32  C1  UNL     1      37.474  38.012  44.638  1.00  0.00     0.028 C 
ENDBRANCH  27  31
ENDBRANCH  20  25
ENDBRANCH   1  14
BRANCH   2  33
HETATM   33  N4  UNL     1      30.299  35.749  37.433  1.00  0.00    -0.207 N 
HETATM   34  N5  UNL     1      31.457  35.265  36.968  1.00  0.00    -0.218 N 
HETATM   35  N6  UNL     1      31.389  33.973  36.914  1.00  0.00    -0.226 N 
ATOM     36  H5  UNL     1      32.266  35.826  36.698  1.00  0.00     0.210 HD
HETATM   37  N7  UNL     1      30.197  33.611  37.341  1.00  0.00    -0.270 N 
ATOM     38  H6  UNL     1      32.128  33.347  36.596  1.00  0.00     0.210 HD
HETATM   39  C11 UNL     1      29.472  34.719  37.682  1.00  0.00     0.146 A 
ATOM     40  H7  UNL     1      29.865  32.650  37.407  1.00  0.00     0.190 HD
BRANCH  39  41
HETATM   41  C12 UNL     1      28.113  34.625  38.213  1.00  0.00     0.167 C 
BRANCH  41  42
HETATM   42  C13 UNL     1      26.998  34.822  37.221  1.00  0.00     0.132 C 
BRANCH  42  43
HETATM   43  C14 UNL     1      26.433  33.538  36.745  1.00  0.00     0.233 C 
HETATM   44  N8  UNL     1      27.180  32.660  35.875  1.00  0.00    -0.062 NA
HETATM   45  O1  UNL     1      25.286  33.105  37.043  1.00  0.00    -0.277 OA
ENDBRANCH  42  43
ENDBRANCH  41  42
BRANCH  41  46
HETATM   46  N9  UNL     1      27.858  33.288  38.788  1.00  0.00    -0.323 N 
HETATM   47  C15 UNL     1      28.602  32.775  39.871  1.00  0.00     0.284 C 
HETATM   48  O2  UNL     1      29.516  33.464  40.378  1.00  0.00    -0.630 OA
HETATM   49  O3  UNL     1      28.350  31.523  40.396  1.00  0.00    -0.630 OA
ATOM     50  H9  UNL     1      27.117  32.713  38.386  1.00  0.00     0.166 HD
ENDBRANCH  41  46
ENDBRANCH  39  41
ENDBRANCH   2  33
TORSDOF 9
ENDMDL
