MODEL 1
REMARK VINA RESULT: -9.290875199      0.000      0.000
REMARK  6 active torsions:
REMARK  status: ('A' for Active; 'I' for Inactive)
REMARK    1  A    between atoms: C2_2  and  C4_4 
REMARK    2  A    between atoms: C4_4  and  C5_5 
REMARK    3  A    between atoms: C5_5  and  C6_6 
REMARK    4  A    between atoms: C6_6  and  O2_8 
REMARK    5  A    between atoms: O2_8  and  C7_9 
REMARK    6  A    between atoms: C18_20  and  O3_21 
ROOT
HETATM    1  C7  UNL     1      41.199  29.154  32.013  1.00  0.00     0.269 C 
HETATM    2  C8  UNL     1      42.169  28.207  31.344  1.00  0.00     0.061 C 
HETATM    3  C9  UNL     1      43.580  28.662  31.451  1.00  0.00     0.006 C 
HETATM    4  C10 UNL     1      43.782  30.051  31.971  1.00  0.00     0.012 C 
HETATM    5  C11 UNL     1      43.179  31.137  31.171  1.00  0.00    -0.014 C 
HETATM    6  C12 UNL     1      43.425  30.823  29.702  1.00  0.00     0.018 C 
HETATM    7  C13 UNL     1      41.705  31.331  31.334  1.00  0.00     0.133 C 
HETATM    8  C14 UNL     1      41.287  32.033  32.580  1.00  0.00     0.033 C 
HETATM    9  C15 UNL     1      42.170  33.112  33.055  1.00  0.00     0.007 C 
HETATM   10  C16 UNL     1      43.649  32.861  32.856  1.00  0.00    -0.007 C 
HETATM   11  C17 UNL     1      44.347  34.118  33.268  1.00  0.00     0.036 C 
HETATM   12  C18 UNL     1      45.609  34.401  32.505  1.00  0.00     0.118 C 
HETATM   13  C19 UNL     1      46.213  33.192  31.873  1.00  0.00     0.032 C 
HETATM   14  C20 UNL     1      45.230  32.571  30.913  1.00  0.00     0.008 C 
HETATM   15  C21 UNL     1      43.841  32.485  31.421  1.00  0.00     0.000 C 
HETATM   16  O4  UNL     1      40.957  30.194  31.180  1.00  0.00    -0.355 OA
ENDROOT
BRANCH   1  17
HETATM   17  O2  UNL     1      39.994  28.536  32.384  1.00  0.00    -0.290 OA
BRANCH  17  18
HETATM   18  C6  UNL     1      39.183  28.914  33.407  1.00  0.00     0.261 C 
HETATM   19  O1  UNL     1      38.319  29.790  33.176  1.00  0.00    -0.265 OA
BRANCH  18  20
HETATM   20  C5  UNL     1      39.343  28.291  34.751  1.00  0.00     0.111 C 
BRANCH  20  21
HETATM   21  C4  UNL     1      38.862  26.853  34.738  1.00  0.00     0.013 C 
BRANCH  21  22
HETATM   22  C2  UNL     1      38.339  26.536  36.131  1.00  0.00    -0.022 C 
HETATM   23  C1  UNL     1      36.874  26.156  36.003  1.00  0.00     0.009 C 
HETATM   24  C3  UNL     1      38.519  27.720  37.043  1.00  0.00     0.009 C 
ENDBRANCH  21  22
ENDBRANCH  20  21
ENDBRANCH  18  20
ENDBRANCH  17  18
ENDBRANCH   1  17
BRANCH  12  25
HETATM   25  O3  UNL     1      45.435  35.393  31.530  1.00  0.00    -0.396 OA
ATOM     26  H3  UNL     1      46.246  35.612  31.087  1.00  0.00     0.210 HD
ENDBRANCH  12  25
TORSDOF 6
ENDMDL
MODEL 2
REMARK VINA RESULT: -9.122727972      0.714      1.059
REMARK  6 active torsions:
REMARK  status: ('A' for Active; 'I' for Inactive)
REMARK    1  A    between atoms: C2_2  and  C4_4 
REMARK    2  A    between atoms: C4_4  and  C5_5 
REMARK    3  A    between atoms: C5_5  and  C6_6 
REMARK    4  A    between atoms: C6_6  and  O2_8 
REMARK    5  A    between atoms: O2_8  and  C7_9 
REMARK    6  A    between atoms: C18_20  and  O3_21 
ROOT
HETATM    1  C7  UNL     1      41.239  29.411  31.728  1.00  0.00     0.269 C 
HETATM    2  C8  UNL     1      42.217  28.459  31.076  1.00  0.00     0.061 C 
HETATM    3  C9  UNL     1      43.633  28.868  31.275  1.00  0.00     0.006 C 
HETATM    4  C10 UNL     1      43.845  30.232  31.854  1.00  0.00     0.012 C 
HETATM    5  C11 UNL     1      43.317  31.362  31.064  1.00  0.00    -0.014 C 
HETATM    6  C12 UNL     1      43.632  31.092  29.598  1.00  0.00     0.018 C 
HETATM    7  C13 UNL     1      41.842  31.594  31.155  1.00  0.00     0.133 C 
HETATM    8  C14 UNL     1      41.377  32.265  32.402  1.00  0.00     0.033 C 
HETATM    9  C15 UNL     1      42.264  33.300  32.962  1.00  0.00     0.007 C 
HETATM   10  C16 UNL     1      43.743  33.012  32.831  1.00  0.00    -0.007 C 
HETATM   11  C17 UNL     1      44.454  34.233  33.325  1.00  0.00     0.036 C 
HETATM   12  C18 UNL     1      45.762  34.503  32.640  1.00  0.00     0.118 C 
HETATM   13  C19 UNL     1      46.365  33.300  31.998  1.00  0.00     0.032 C 
HETATM   14  C20 UNL     1      45.418  32.742  30.965  1.00  0.00     0.008 C 
HETATM   15  C21 UNL     1      44.002  32.680  31.396  1.00  0.00     0.000 C 
HETATM   16  O4  UNL     1      41.072  30.486  30.921  1.00  0.00    -0.355 OA
ENDROOT
BRANCH   1  17
HETATM   17  O2  UNL     1      39.999  28.817  32.012  1.00  0.00    -0.290 OA
BRANCH  17  18
HETATM   18  C6  UNL     1      38.919  29.440  32.552  1.00  0.00     0.261 C 
HETATM   19  O1  UNL     1      37.938  29.663  31.807  1.00  0.00    -0.265 OA
BRANCH  18  20
HETATM   20  C5  UNL     1      38.931  29.837  33.988  1.00  0.00     0.111 C 
BRANCH  20  21
HETATM   21  C4  UNL     1      39.673  28.812  34.824  1.00  0.00     0.013 C 
BRANCH  21  22
HETATM   22  C2  UNL     1      38.691  27.699  35.156  1.00  0.00    -0.022 C 
HETATM   23  C1  UNL     1      38.460  27.713  36.657  1.00  0.00     0.009 C 
HETATM   24  C3  UNL     1      39.229  26.369  34.699  1.00  0.00     0.009 C 
ENDBRANCH  21  22
ENDBRANCH  20  21
ENDBRANCH  18  20
ENDBRANCH  17  18
ENDBRANCH   1  17
BRANCH  12  25
HETATM   25  O3  UNL     1      45.669  35.534  31.694  1.00  0.00    -0.396 OA
ATOM     26  H3  UNL     1      46.299  36.227  31.849  1.00  0.00     0.210 HD
ENDBRANCH  12  25
TORSDOF 6
ENDMDL
MODEL 3
REMARK VINA RESULT: -8.575031406      2.200      4.160
REMARK  6 active torsions:
REMARK  status: ('A' for Active; 'I' for Inactive)
REMARK    1  A    between atoms: C2_2  and  C4_4 
REMARK    2  A    between atoms: C4_4  and  C5_5 
REMARK    3  A    between atoms: C5_5  and  C6_6 
REMARK    4  A    between atoms: C6_6  and  O2_8 
REMARK    5  A    between atoms: O2_8  and  C7_9 
REMARK    6  A    between atoms: C18_20  and  O3_21 
ROOT
HETATM    1  C7  UNL     1      42.376  32.626  31.692  1.00  0.00     0.269 C 
HETATM    2  C8  UNL     1      42.486  33.187  33.092  1.00  0.00     0.061 C 
HETATM    3  C9  UNL     1      43.579  34.187  33.224  1.00  0.00     0.006 C 
HETATM    4  C10 UNL     1      44.514  34.292  32.059  1.00  0.00     0.012 C 
HETATM    5  C11 UNL     1      45.268  33.068  31.720  1.00  0.00    -0.014 C 
HETATM    6  C12 UNL     1      45.733  32.433  33.023  1.00  0.00     0.018 C 
HETATM    7  C13 UNL     1      44.511  32.018  30.970  1.00  0.00     0.133 C 
HETATM    8  C14 UNL     1      44.317  32.286  29.517  1.00  0.00     0.033 C 
HETATM    9  C15 UNL     1      45.428  32.953  28.816  1.00  0.00     0.007 C 
HETATM   10  C16 UNL     1      46.159  33.999  29.629  1.00  0.00    -0.007 C 
HETATM   11  C17 UNL     1      47.319  34.444  28.796  1.00  0.00     0.036 C 
HETATM   12  C18 UNL     1      48.530  34.843  29.588  1.00  0.00     0.118 C 
HETATM   13  C19 UNL     1      48.227  35.222  30.999  1.00  0.00     0.032 C 
HETATM   14  C20 UNL     1      47.578  34.064  31.713  1.00  0.00     0.008 C 
HETATM   15  C21 UNL     1      46.536  33.362  30.930  1.00  0.00     0.000 C 
HETATM   16  O4  UNL     1      43.314  31.664  31.531  1.00  0.00    -0.355 OA
ENDROOT
BRANCH   1  17
HETATM   17  O2  UNL     1      41.100  32.117  31.403  1.00  0.00    -0.290 OA
BRANCH  17  18
HETATM   18  C6  UNL     1      40.829  30.904  30.853  1.00  0.00     0.261 C 
HETATM   19  O1  UNL     1      40.905  30.795  29.608  1.00  0.00    -0.265 OA
BRANCH  18  20
HETATM   20  C5  UNL     1      40.452  29.759  31.728  1.00  0.00     0.111 C 
BRANCH  20  21
HETATM   21  C4  UNL     1      39.165  30.052  32.475  1.00  0.00     0.013 C 
BRANCH  21  22
HETATM   22  C2  UNL     1      39.430  29.806  33.953  1.00  0.00    -0.022 C 
HETATM   23  C1  UNL     1      40.919  29.985  34.196  1.00  0.00     0.009 C 
HETATM   24  C3  UNL     1      38.975  28.425  34.346  1.00  0.00     0.009 C 
ENDBRANCH  21  22
ENDBRANCH  20  21
ENDBRANCH  18  20
ENDBRANCH  17  18
ENDBRANCH   1  17
BRANCH  12  25
HETATM   25  O3  UNL     1      49.526  33.856  29.579  1.00  0.00    -0.396 OA
ATOM     26  H3  UNL     1      49.503  33.324  28.792  1.00  0.00     0.210 HD
ENDBRANCH  12  25
TORSDOF 6
ENDMDL
MODEL 4
REMARK VINA RESULT: -8.382524940      2.169      3.344
REMARK  6 active torsions:
REMARK  status: ('A' for Active; 'I' for Inactive)
REMARK    1  A    between atoms: C2_2  and  C4_4 
REMARK    2  A    between atoms: C4_4  and  C5_5 
REMARK    3  A    between atoms: C5_5  and  C6_6 
REMARK    4  A    between atoms: C6_6  and  O2_8 
REMARK    5  A    between atoms: O2_8  and  C7_9 
REMARK    6  A    between atoms: C18_20  and  O3_21 
ROOT
HETATM    1  C7  UNL     1      42.201  31.386  32.788  1.00  0.00     0.269 C 
HETATM    2  C8  UNL     1      42.390  30.345  31.709  1.00  0.00     0.061 C 
HETATM    3  C9  UNL     1      43.760  30.362  31.130  1.00  0.00     0.006 C 
HETATM    4  C10 UNL     1      44.620  31.522  31.520  1.00  0.00     0.012 C 
HETATM    5  C11 UNL     1      44.120  32.858  31.141  1.00  0.00    -0.014 C 
HETATM    6  C12 UNL     1      43.558  32.760  29.729  1.00  0.00     0.018 C 
HETATM    7  C13 UNL     1      43.034  33.422  32.003  1.00  0.00     0.133 C 
HETATM    8  C14 UNL     1      43.482  33.975  33.312  1.00  0.00     0.033 C 
HETATM    9  C15 UNL     1      44.785  34.662  33.326  1.00  0.00     0.007 C 
HETATM   10  C16 UNL     1      45.838  34.050  32.429  1.00  0.00    -0.007 C 
HETATM   11  C17 UNL     1      47.019  34.967  32.482  1.00  0.00     0.036 C 
HETATM   12  C18 UNL     1      47.815  35.021  31.210  1.00  0.00     0.118 C 
HETATM   13  C19 UNL     1      47.631  33.827  30.335  1.00  0.00     0.032 C 
HETATM   14  C20 UNL     1      46.178  33.688  29.956  1.00  0.00     0.008 C 
HETATM   15  C21 UNL     1      45.227  33.901  31.071  1.00  0.00     0.000 C 
HETATM   16  O4  UNL     1      41.969  32.585  32.202  1.00  0.00    -0.355 OA
ENDROOT
BRANCH   1  17
HETATM   17  O2  UNL     1      41.164  31.071  33.681  1.00  0.00    -0.290 OA
BRANCH  17  18
HETATM   18  C6  UNL     1      40.717  29.823  33.978  1.00  0.00     0.261 C 
HETATM   19  O1  UNL     1      41.535  29.007  34.460  1.00  0.00    -0.265 OA
BRANCH  18  20
HETATM   20  C5  UNL     1      39.293  29.464  33.726  1.00  0.00     0.111 C 
BRANCH  20  21
HETATM   21  C4  UNL     1      38.620  30.509  32.859  1.00  0.00     0.013 C 
BRANCH  21  22
HETATM   22  C2  UNL     1      38.744  30.051  31.413  1.00  0.00    -0.022 C 
HETATM   23  C1  UNL     1      39.141  31.253  30.575  1.00  0.00     0.009 C 
HETATM   24  C3  UNL     1      37.445  29.457  30.936  1.00  0.00     0.009 C 
ENDBRANCH  21  22
ENDBRANCH  20  21
ENDBRANCH  18  20
ENDBRANCH  17  18
ENDBRANCH   1  17
BRANCH  12  25
HETATM   25  O3  UNL     1      47.560  36.182  30.467  1.00  0.00    -0.396 OA
ATOM     26  H3  UNL     1      48.357  36.608  30.175  1.00  0.00     0.210 HD
ENDBRANCH  12  25
TORSDOF 6
ENDMDL
MODEL 5
REMARK VINA RESULT: -8.139535213      2.969      4.833
REMARK  6 active torsions:
REMARK  status: ('A' for Active; 'I' for Inactive)
REMARK    1  A    between atoms: C2_2  and  C4_4 
REMARK    2  A    between atoms: C4_4  and  C5_5 
REMARK    3  A    between atoms: C5_5  and  C6_6 
REMARK    4  A    between atoms: C6_6  and  O2_8 
REMARK    5  A    between atoms: O2_8  and  C7_9 
REMARK    6  A    between atoms: C18_20  and  O3_21 
ROOT
HETATM    1  C7  UNL     1      42.597  32.913  31.863  1.00  0.00     0.269 C 
HETATM    2  C8  UNL     1      42.792  33.553  33.219  1.00  0.00     0.061 C 
HETATM    3  C9  UNL     1      43.914  34.528  33.237  1.00  0.00     0.006 C 
HETATM    4  C10 UNL     1      44.791  34.537  32.024  1.00  0.00     0.012 C 
HETATM    5  C11 UNL     1      45.497  33.275  31.723  1.00  0.00    -0.014 C 
HETATM    6  C12 UNL     1      46.011  32.706  33.038  1.00  0.00     0.018 C 
HETATM    7  C13 UNL     1      44.678  32.203  31.077  1.00  0.00     0.133 C 
HETATM    8  C14 UNL     1      44.418  32.390  29.621  1.00  0.00     0.033 C 
HETATM    9  C15 UNL     1      45.508  32.983  28.828  1.00  0.00     0.007 C 
HETATM   10  C16 UNL     1      46.305  34.054  29.539  1.00  0.00    -0.007 C 
HETATM   11  C17 UNL     1      47.432  34.416  28.624  1.00  0.00     0.036 C 
HETATM   12  C18 UNL     1      48.691  34.828  29.331  1.00  0.00     0.118 C 
HETATM   13  C19 UNL     1      48.469  35.299  30.729  1.00  0.00     0.032 C 
HETATM   14  C20 UNL     1      47.828  34.204  31.543  1.00  0.00     0.008 C 
HETATM   15  C21 UNL     1      46.730  33.486  30.856  1.00  0.00     0.000 C 
HETATM   16  O4  UNL     1      43.502  31.916  31.716  1.00  0.00    -0.355 OA
ENDROOT
BRANCH   1  17
HETATM   17  O2  UNL     1      41.296  32.422  31.668  1.00  0.00    -0.290 OA
BRANCH  17  18
HETATM   18  C6  UNL     1      40.909  31.539  30.710  1.00  0.00     0.261 C 
HETATM   19  O1  UNL     1      40.667  31.985  29.566  1.00  0.00    -0.265 OA
BRANCH  18  20
HETATM   20  C5  UNL     1      40.783  30.092  31.041  1.00  0.00     0.111 C 
BRANCH  20  21
HETATM   21  C4  UNL     1      41.921  29.299  30.430  1.00  0.00     0.013 C 
BRANCH  21  22
HETATM   22  C2  UNL     1      42.796  28.804  31.573  1.00  0.00    -0.022 C 
HETATM   23  C1  UNL     1      43.220  27.381  31.253  1.00  0.00     0.009 C 
HETATM   24  C3  UNL     1      42.046  28.870  32.877  1.00  0.00     0.009 C 
ENDBRANCH  21  22
ENDBRANCH  20  21
ENDBRANCH  18  20
ENDBRANCH  17  18
ENDBRANCH   1  17
BRANCH  12  25
HETATM   25  O3  UNL     1      49.660  33.816  29.334  1.00  0.00    -0.396 OA
ATOM     26  H3  UNL     1      50.536  34.151  29.485  1.00  0.00     0.210 HD
ENDBRANCH  12  25
TORSDOF 6
ENDMDL
