MODEL 1
REMARK VINA RESULT: -6.866756129      0.000      0.000
REMARK  6 active torsions:
REMARK  status: ('A' for Active; 'I' for Inactive)
REMARK    1  A    between atoms: C2_2  and  C3_3 
REMARK    2  A    between atoms: C3_3  and  C4_4 
REMARK    3  A    between atoms: C4_4  and  O1_5 
REMARK    4  A    between atoms: C9_11  and  C10_12 
REMARK    5  A    between atoms: C10_12  and  O3_14 
REMARK    6  A    between atoms: O3_14  and  C11_15 
ROOT
HETATM    1  C10 UNL     1      43.082  33.197  32.318  1.00  0.00     0.266 C 
HETATM    2  O2  UNL     1      42.496  34.170  31.840  1.00  0.00    -0.265 OA
ENDROOT
BRANCH   1   3
HETATM    3  C9  UNL     1      44.417  33.151  32.878  1.00  0.00     0.123 C 
HETATM    4  C4  UNL     1      45.572  33.155  31.948  1.00  0.00     0.071 C 
HETATM    5  C5  UNL     1      45.849  34.608  31.623  1.00  0.00     0.039 C 
HETATM    6  C6  UNL     1      45.050  35.398  32.639  1.00  0.00     0.008 C 
HETATM    7  C7  UNL     1      44.740  34.400  33.705  1.00  0.00    -0.002 C 
HETATM    8  C8  UNL     1      43.646  34.792  34.634  1.00  0.00     0.011 C 
BRANCH   4   9
HETATM    9  C3  UNL     1      45.495  32.357  30.711  1.00  0.00     0.038 C 
BRANCH   9  10
HETATM   10  C2  UNL     1      45.792  33.349  29.564  1.00  0.00    -0.002 C 
HETATM   11  C1  UNL     1      44.715  33.318  28.534  1.00  0.00     0.005 C 
ENDBRANCH   9  10
ENDBRANCH   4   9
BRANCH   4  12
HETATM   12  O1  UNL     1      46.729  32.691  32.645  1.00  0.00    -0.389 OA
ATOM     13  H1  UNL     1      46.439  32.481  33.524  1.00  0.00     0.210 HD
ENDBRANCH   4  12
ENDBRANCH   1   3
BRANCH   1  14
HETATM   14  O3  UNL     1      42.344  31.995  32.308  1.00  0.00    -0.315 OA
BRANCH  14  15
HETATM   15  C11 UNL     1      40.951  31.968  32.056  1.00  0.00     0.140 C 
HETATM   16  C12 UNL     1      40.176  31.489  33.216  1.00  0.00     0.045 C 
HETATM   17  C13 UNL     1      39.756  30.058  33.207  1.00  0.00     0.058 C 
HETATM   18  C14 UNL     1      39.372  29.535  31.848  1.00  0.00     0.017 C 
HETATM   19  C18 UNL     1      40.826  29.161  33.730  1.00  0.00     0.131 C 
HETATM   20  C15 UNL     1      40.564  29.748  30.949  1.00  0.00    -0.003 C 
HETATM   21  C16 UNL     1      41.765  29.013  31.436  1.00  0.00     0.013 C 
HETATM   22  C19 UNL     1      40.755  31.217  30.774  1.00  0.00    -0.017 C 
HETATM   23  C17 UNL     1      41.506  28.273  32.743  1.00  0.00     0.079 C 
HETATM   24  C20 UNL     1      41.963  31.396  29.851  1.00  0.00     0.018 C 
HETATM   25  C21 UNL     1      39.567  31.764  30.001  1.00  0.00     0.018 C 
HETATM   26  O4  UNL     1      41.166  29.112  34.879  1.00  0.00    -0.298 OA
ENDBRANCH  14  15
ENDBRANCH   1  14
TORSDOF 6
ENDMDL
MODEL 2
REMARK VINA RESULT: -6.717374460      1.211      2.737
REMARK  6 active torsions:
REMARK  status: ('A' for Active; 'I' for Inactive)
REMARK    1  A    between atoms: C2_2  and  C3_3 
REMARK    2  A    between atoms: C3_3  and  C4_4 
REMARK    3  A    between atoms: C4_4  and  O1_5 
REMARK    4  A    between atoms: C9_11  and  C10_12 
REMARK    5  A    between atoms: C10_12  and  O3_14 
REMARK    6  A    between atoms: O3_14  and  C11_15 
ROOT
HETATM    1  C10 UNL     1      43.104  33.412  32.141  1.00  0.00     0.266 C 
HETATM    2  O2  UNL     1      42.704  34.368  31.473  1.00  0.00    -0.265 OA
ENDROOT
BRANCH   1   3
HETATM    3  C9  UNL     1      44.390  33.258  32.790  1.00  0.00     0.123 C 
HETATM    4  C4  UNL     1      45.602  33.183  31.941  1.00  0.00     0.071 C 
HETATM    5  C5  UNL     1      46.011  34.613  31.657  1.00  0.00     0.039 C 
HETATM    6  C6  UNL     1      45.206  35.452  32.627  1.00  0.00     0.008 C 
HETATM    7  C7  UNL     1      44.749  34.471  33.655  1.00  0.00    -0.002 C 
HETATM    8  C8  UNL     1      43.627  34.937  34.514  1.00  0.00     0.011 C 
BRANCH   4   9
HETATM    9  C3  UNL     1      45.551  32.405  30.690  1.00  0.00     0.038 C 
BRANCH   9  10
HETATM   10  C2  UNL     1      45.777  33.432  29.558  1.00  0.00    -0.002 C 
HETATM   11  C1  UNL     1      44.702  33.344  28.529  1.00  0.00     0.005 C 
ENDBRANCH   9  10
ENDBRANCH   4   9
BRANCH   4  12
HETATM   12  O1  UNL     1      46.671  32.624  32.707  1.00  0.00    -0.389 OA
ATOM     13  H1  UNL     1      47.070  31.963  32.155  1.00  0.00     0.210 HD
ENDBRANCH   4  12
ENDBRANCH   1   3
BRANCH   1  14
HETATM   14  O3  UNL     1      42.181  32.354  32.278  1.00  0.00    -0.315 OA
BRANCH  14  15
HETATM   15  C11 UNL     1      42.478  31.036  31.855  1.00  0.00     0.140 C 
HETATM   16  C12 UNL     1      42.481  30.902  30.386  1.00  0.00     0.045 C 
HETATM   17  C13 UNL     1      41.249  30.352  29.752  1.00  0.00     0.058 C 
HETATM   18  C14 UNL     1      40.575  29.268  30.550  1.00  0.00     0.017 C 
HETATM   19  C18 UNL     1      40.227  31.412  29.511  1.00  0.00     0.131 C 
HETATM   20  C15 UNL     1      40.263  29.855  31.904  1.00  0.00    -0.003 C 
HETATM   21  C16 UNL     1      39.352  31.029  31.804  1.00  0.00     0.013 C 
HETATM   22  C19 UNL     1      41.555  30.121  32.600  1.00  0.00    -0.017 C 
HETATM   23  C17 UNL     1      39.002  31.374  30.361  1.00  0.00     0.079 C 
HETATM   24  C20 UNL     1      41.203  30.705  33.972  1.00  0.00     0.018 C 
HETATM   25  C21 UNL     1      42.226  28.788  32.887  1.00  0.00     0.018 C 
HETATM   26  O4  UNL     1      40.332  32.277  28.689  1.00  0.00    -0.298 OA
ENDBRANCH  14  15
ENDBRANCH   1  14
TORSDOF 6
ENDMDL
MODEL 3
REMARK VINA RESULT: -6.670540600      1.173      2.913
REMARK  6 active torsions:
REMARK  status: ('A' for Active; 'I' for Inactive)
REMARK    1  A    between atoms: C2_2  and  C3_3 
REMARK    2  A    between atoms: C3_3  and  C4_4 
REMARK    3  A    between atoms: C4_4  and  O1_5 
REMARK    4  A    between atoms: C9_11  and  C10_12 
REMARK    5  A    between atoms: C10_12  and  O3_14 
REMARK    6  A    between atoms: O3_14  and  C11_15 
ROOT
HETATM    1  C10 UNL     1      43.908  31.635  31.448  1.00  0.00     0.266 C 
HETATM    2  O2  UNL     1      44.915  30.946  31.621  1.00  0.00    -0.265 OA
ENDROOT
BRANCH   1   3
HETATM    3  C9  UNL     1      43.842  33.026  31.048  1.00  0.00     0.123 C 
HETATM    4  C4  UNL     1      44.321  34.057  31.999  1.00  0.00     0.071 C 
HETATM    5  C5  UNL     1      45.818  34.157  31.797  1.00  0.00     0.039 C 
HETATM    6  C6  UNL     1      46.092  33.414  30.506  1.00  0.00     0.008 C 
HETATM    7  C7  UNL     1      44.753  33.327  29.853  1.00  0.00    -0.002 C 
HETATM    8  C8  UNL     1      44.649  32.320  28.763  1.00  0.00     0.011 C 
BRANCH   4   9
HETATM    9  C3  UNL     1      44.004  33.908  33.431  1.00  0.00     0.038 C 
BRANCH   9  10
HETATM   10  C2  UNL     1      44.169  35.320  34.037  1.00  0.00    -0.002 C 
HETATM   11  C1  UNL     1      43.400  35.454  35.307  1.00  0.00     0.005 C 
ENDBRANCH   9  10
ENDBRANCH   4   9
BRANCH   4  12
HETATM   12  O1  UNL     1      43.796  35.327  31.610  1.00  0.00    -0.389 OA
ATOM     13  H1  UNL     1      44.398  35.670  30.960  1.00  0.00     0.210 HD
ENDBRANCH   4  12
ENDBRANCH   1   3
BRANCH   1  14
HETATM   14  O3  UNL     1      42.685  30.968  31.670  1.00  0.00    -0.315 OA
BRANCH  14  15
HETATM   15  C11 UNL     1      41.448  31.656  31.709  1.00  0.00     0.140 C 
HETATM   16  C12 UNL     1      40.929  31.806  33.081  1.00  0.00     0.045 C 
HETATM   17  C13 UNL     1      39.893  30.830  33.525  1.00  0.00     0.058 C 
HETATM   18  C14 UNL     1      38.917  30.433  32.450  1.00  0.00     0.017 C 
HETATM   19  C18 UNL     1      40.502  29.571  34.045  1.00  0.00     0.131 C 
HETATM   20  C15 UNL     1      39.731  29.868  31.313  1.00  0.00    -0.003 C 
HETATM   21  C16 UNL     1      40.515  28.672  31.730  1.00  0.00     0.013 C 
HETATM   22  C19 UNL     1      40.541  30.977  30.729  1.00  0.00    -0.017 C 
HETATM   23  C17 UNL     1      40.339  28.347  33.208  1.00  0.00     0.079 C 
HETATM   24  C20 UNL     1      41.345  30.373  29.574  1.00  0.00     0.018 C 
HETATM   25  C21 UNL     1      39.591  31.974  30.087  1.00  0.00     0.018 C 
HETATM   26  O4  UNL     1      41.104  29.488  35.078  1.00  0.00    -0.298 OA
ENDBRANCH  14  15
ENDBRANCH   1  14
TORSDOF 6
ENDMDL
MODEL 4
REMARK VINA RESULT: -6.114194607     10.228     12.744
REMARK  6 active torsions:
REMARK  status: ('A' for Active; 'I' for Inactive)
REMARK    1  A    between atoms: C2_2  and  C3_3 
REMARK    2  A    between atoms: C3_3  and  C4_4 
REMARK    3  A    between atoms: C4_4  and  O1_5 
REMARK    4  A    between atoms: C9_11  and  C10_12 
REMARK    5  A    between atoms: C10_12  and  O3_14 
REMARK    6  A    between atoms: O3_14  and  C11_15 
ROOT
HETATM    1  C10 UNL     1      49.239  23.707  32.145  1.00  0.00     0.266 C 
HETATM    2  O2  UNL     1      48.857  24.196  31.081  1.00  0.00    -0.265 OA
ENDROOT
BRANCH   1   3
HETATM    3  C9  UNL     1      48.427  23.214  33.239  1.00  0.00     0.123 C 
HETATM    4  C4  UNL     1      47.345  24.083  33.760  1.00  0.00     0.071 C 
HETATM    5  C5  UNL     1      46.143  23.843  32.870  1.00  0.00     0.039 C 
HETATM    6  C6  UNL     1      46.484  22.601  32.075  1.00  0.00     0.008 C 
HETATM    7  C7  UNL     1      47.607  21.983  32.840  1.00  0.00    -0.002 C 
HETATM    8  C8  UNL     1      48.394  20.966  32.091  1.00  0.00     0.011 C 
BRANCH   4   9
HETATM    9  C3  UNL     1      47.598  25.528  33.905  1.00  0.00     0.038 C 
BRANCH   9  10
HETATM   10  C2  UNL     1      46.495  26.223  33.075  1.00  0.00    -0.002 C 
HETATM   11  C1  UNL     1      45.897  27.364  33.824  1.00  0.00     0.005 C 
ENDBRANCH   9  10
ENDBRANCH   4   9
BRANCH   4  12
HETATM   12  O1  UNL     1      46.962  23.619  35.055  1.00  0.00    -0.389 OA
ATOM     13  H1  UNL     1      47.642  23.015  35.328  1.00  0.00     0.210 HD
ENDBRANCH   4  12
ENDBRANCH   1   3
BRANCH   1  14
HETATM   14  O3  UNL     1      50.640  23.625  32.293  1.00  0.00    -0.315 OA
BRANCH  14  15
HETATM   15  C11 UNL     1      51.440  22.815  31.450  1.00  0.00     0.140 C 
HETATM   16  C12 UNL     1      51.829  21.545  32.092  1.00  0.00     0.045 C 
HETATM   17  C13 UNL     1      53.188  21.481  32.701  1.00  0.00     0.058 C 
HETATM   18  C14 UNL     1      54.246  22.226  31.931  1.00  0.00     0.017 C 
HETATM   19  C18 UNL     1      53.201  22.023  34.091  1.00  0.00     0.131 C 
HETATM   20  C15 UNL     1      53.777  23.655  31.820  1.00  0.00    -0.003 C 
HETATM   21  C16 UNL     1      53.605  24.289  33.157  1.00  0.00     0.013 C 
HETATM   22  C19 UNL     1      52.561  23.676  30.956  1.00  0.00    -0.017 C 
HETATM   23  C17 UNL     1      53.898  23.325  34.301  1.00  0.00     0.079 C 
HETATM   24  C20 UNL     1      52.118  25.139  30.856  1.00  0.00     0.018 C 
HETATM   25  C21 UNL     1      52.971  23.279  29.547  1.00  0.00     0.018 C 
HETATM   26  O4  UNL     1      52.693  21.482  35.031  1.00  0.00    -0.298 OA
ENDBRANCH  14  15
ENDBRANCH   1  14
TORSDOF 6
ENDMDL
MODEL 5
REMARK VINA RESULT: -6.096853430      1.740      3.044
REMARK  6 active torsions:
REMARK  status: ('A' for Active; 'I' for Inactive)
REMARK    1  A    between atoms: C2_2  and  C3_3 
REMARK    2  A    between atoms: C3_3  and  C4_4 
REMARK    3  A    between atoms: C4_4  and  O1_5 
REMARK    4  A    between atoms: C9_11  and  C10_12 
REMARK    5  A    between atoms: C10_12  and  O3_14 
REMARK    6  A    between atoms: O3_14  and  C11_15 
ROOT
HETATM    1  C10 UNL     1      44.695  32.117  31.090  1.00  0.00     0.266 C 
HETATM    2  O2  UNL     1      44.682  32.213  29.861  1.00  0.00    -0.265 OA
ENDROOT
BRANCH   1   3
HETATM    3  C9  UNL     1      45.328  33.005  32.044  1.00  0.00     0.123 C 
HETATM    4  C4  UNL     1      46.266  34.033  31.534  1.00  0.00     0.071 C 
HETATM    5  C5  UNL     1      45.416  35.217  31.123  1.00  0.00     0.039 C 
HETATM    6  C6  UNL     1      44.051  34.947  31.720  1.00  0.00     0.008 C 
HETATM    7  C7  UNL     1      44.314  33.906  32.756  1.00  0.00    -0.002 C 
HETATM    8  C8  UNL     1      43.108  33.175  33.233  1.00  0.00     0.011 C 
BRANCH   4   9
HETATM    9  C3  UNL     1      47.202  33.672  30.453  1.00  0.00     0.038 C 
BRANCH   9  10
HETATM   10  C2  UNL     1      48.401  34.635  30.610  1.00  0.00    -0.002 C 
HETATM   11  C1  UNL     1      48.775  35.245  29.303  1.00  0.00     0.005 C 
ENDBRANCH   9  10
ENDBRANCH   4   9
BRANCH   4  12
HETATM   12  O1  UNL     1      47.075  34.499  32.615  1.00  0.00    -0.389 OA
ATOM     13  H1  UNL     1      46.732  35.353  32.849  1.00  0.00     0.210 HD
ENDBRANCH   4  12
ENDBRANCH   1   3
BRANCH   1  14
HETATM   14  O3  UNL     1      44.002  31.003  31.607  1.00  0.00    -0.315 OA
BRANCH  14  15
HETATM   15  C11 UNL     1      43.425  30.018  30.768  1.00  0.00     0.140 C 
HETATM   16  C12 UNL     1      42.368  30.567  29.898  1.00  0.00     0.045 C 
HETATM   17  C13 UNL     1      40.957  30.378  30.343  1.00  0.00     0.058 C 
HETATM   18  C14 UNL     1      40.692  29.056  31.013  1.00  0.00     0.017 C 
HETATM   19  C18 UNL     1      40.528  31.442  31.297  1.00  0.00     0.131 C 
HETATM   20  C15 UNL     1      41.639  28.966  32.184  1.00  0.00    -0.003 C 
HETATM   21  C16 UNL     1      41.417  30.066  33.164  1.00  0.00     0.013 C 
HETATM   22  C19 UNL     1      43.028  28.874  31.649  1.00  0.00    -0.017 C 
HETATM   23  C17 UNL     1      40.326  31.033  32.718  1.00  0.00     0.079 C 
HETATM   24  C20 UNL     1      43.960  28.774  32.861  1.00  0.00     0.018 C 
HETATM   25  C21 UNL     1      43.171  27.550  30.916  1.00  0.00     0.018 C 
HETATM   26  O4  UNL     1      40.337  32.585  30.994  1.00  0.00    -0.298 OA
ENDBRANCH  14  15
ENDBRANCH   1  14
TORSDOF 6
ENDMDL
