MODEL 1
REMARK VINA RESULT: -8.393249260      0.000      0.000
REMARK  5 active torsions:
REMARK  status: ('A' for Active; 'I' for Inactive)
REMARK    1  A    between atoms: C2_4  and  S1_5 
REMARK    2  A    between atoms: S1_5  and  C3_6 
REMARK    3  A    between atoms: C10_13  and  N2_14 
REMARK    4  A    between atoms: N2_14  and  C11_16 
REMARK    5  A    between atoms: C11_16  and  C12_17 
ROOT
HETATM    1  C1  UNL     1      39.621  30.774  31.144  1.00  0.00     0.182 A 
HETATM    2  N1  UNL     1      39.673  29.963  32.219  1.00  0.00    -0.347 N 
ATOM      3  H1  UNL     1      39.015  29.186  32.277  1.00  0.00     0.167 HD
HETATM    4  C2  UNL     1      40.550  30.135  33.212  1.00  0.00     0.074 A 
HETATM    5  C9  UNL     1      41.431  31.194  33.108  1.00  0.00     0.085 A 
HETATM    6  C10 UNL     1      41.417  32.049  32.027  1.00  0.00     0.104 A 
HETATM    7  N3  UNL     1      40.504  31.805  31.077  1.00  0.00    -0.339 N 
ATOM      8  H3  UNL     1      40.470  32.422  30.265  1.00  0.00     0.168 HD
ENDROOT
BRANCH   6   9
HETATM    9  N2  UNL     1      42.212  33.040  31.888  1.00  0.00    -0.374 N 
ATOM     10  H2  UNL     1      42.322  33.392  30.937  1.00  0.00     0.161 HD
BRANCH   9  11
HETATM   11  C11 UNL     1      42.961  33.712  32.887  1.00  0.00     0.153 C 
BRANCH  11  12
HETATM   12  C12 UNL     1      44.429  33.360  32.753  1.00  0.00     0.140 C 
HETATM   13  C13 UNL     1      45.299  34.601  32.865  1.00  0.00     0.041 C 
HETATM   14  C14 UNL     1      46.538  34.138  32.134  1.00  0.00     0.017 C 
HETATM   15  C15 UNL     1      47.236  35.283  31.433  1.00  0.00     0.007 C 
HETATM   16  C19 UNL     1      46.009  33.115  31.192  1.00  0.00     0.126 C 
HETATM   17  C16 UNL     1      48.138  34.667  30.373  1.00  0.00     0.001 C 
HETATM   18  C17 UNL     1      47.263  34.148  29.268  1.00  0.00     0.002 C 
HETATM   19  C18 UNL     1      45.966  33.591  29.742  1.00  0.00     0.032 C 
HETATM   20  O1  UNL     1      44.735  32.786  31.549  1.00  0.00    -0.379 OA
ENDBRANCH  11  12
ENDBRANCH   9  11
ENDBRANCH   6   9
BRANCH   4  21
HETATM   21  S1  UNL     1      40.612  29.061  34.626  1.00  0.00    -0.107 SA
BRANCH  21  22
HETATM   22  C3  UNL     1      38.975  28.422  35.075  1.00  0.00     0.054 C 
HETATM   23  C4  UNL     1      38.953  28.222  36.567  1.00  0.00     0.015 C 
HETATM   24  C5  UNL     1      37.882  27.269  37.016  1.00  0.00     0.001 C 
HETATM   25  C6  UNL     1      37.905  25.968  36.250  1.00  0.00     0.000 C 
HETATM   26  C7  UNL     1      38.980  25.972  35.178  1.00  0.00     0.001 C 
HETATM   27  C8  UNL     1      38.724  27.172  34.303  1.00  0.00     0.015 C 
ENDBRANCH  21  22
ENDBRANCH   4  21
TORSDOF 5
ENDMDL
MODEL 2
REMARK VINA RESULT: -8.338185106      3.283      9.370
REMARK  5 active torsions:
REMARK  status: ('A' for Active; 'I' for Inactive)
REMARK    1  A    between atoms: C2_4  and  S1_5 
REMARK    2  A    between atoms: S1_5  and  C3_6 
REMARK    3  A    between atoms: C10_13  and  N2_14 
REMARK    4  A    between atoms: N2_14  and  C11_16 
REMARK    5  A    between atoms: C11_16  and  C12_17 
ROOT
HETATM    1  C1  UNL     1      43.751  34.140  33.315  1.00  0.00     0.182 A 
HETATM    2  N1  UNL     1      44.975  34.662  33.104  1.00  0.00    -0.347 N 
ATOM      3  H1  UNL     1      45.368  35.287  33.808  1.00  0.00     0.167 HD
HETATM    4  C2  UNL     1      45.696  34.394  32.012  1.00  0.00     0.074 A 
HETATM    5  C9  UNL     1      45.142  33.544  31.074  1.00  0.00     0.085 A 
HETATM    6  C10 UNL     1      43.893  32.986  31.247  1.00  0.00     0.104 A 
HETATM    7  N3  UNL     1      43.239  33.307  32.371  1.00  0.00    -0.339 N 
ATOM      8  H3  UNL     1      42.312  32.909  32.525  1.00  0.00     0.168 HD
ENDROOT
BRANCH   6   9
HETATM    9  N2  UNL     1      43.341  32.194  30.409  1.00  0.00    -0.374 N 
ATOM     10  H2  UNL     1      42.536  32.568  29.907  1.00  0.00     0.161 HD
BRANCH   9  11
HETATM   11  C11 UNL     1      43.706  30.862  30.087  1.00  0.00     0.153 C 
BRANCH  11  12
HETATM   12  C12 UNL     1      42.634  29.905  30.567  1.00  0.00     0.140 C 
HETATM   13  C13 UNL     1      41.262  30.330  30.069  1.00  0.00     0.041 C 
HETATM   14  C14 UNL     1      40.376  29.666  31.099  1.00  0.00     0.017 C 
HETATM   15  C15 UNL     1      39.112  30.460  31.345  1.00  0.00     0.007 C 
HETATM   16  C19 UNL     1      41.255  29.587  32.296  1.00  0.00     0.126 C 
HETATM   17  C16 UNL     1      38.554  29.998  32.683  1.00  0.00     0.001 C 
HETATM   18  C17 UNL     1      39.445  30.539  33.765  1.00  0.00     0.002 C 
HETATM   19  C18 UNL     1      40.885  30.588  33.388  1.00  0.00     0.032 C 
HETATM   20  O1  UNL     1      42.543  29.842  31.931  1.00  0.00    -0.379 OA
ENDBRANCH  11  12
ENDBRANCH   9  11
ENDBRANCH   6   9
BRANCH   4  21
HETATM   21  S1  UNL     1      47.311  35.085  31.741  1.00  0.00    -0.107 SA
BRANCH  21  22
HETATM   22  C3  UNL     1      48.156  34.322  30.330  1.00  0.00     0.054 C 
HETATM   23  C4  UNL     1      49.628  34.277  30.644  1.00  0.00     0.015 C 
HETATM   24  C5  UNL     1      50.486  34.134  29.419  1.00  0.00     0.001 C 
HETATM   25  C6  UNL     1      50.145  35.146  28.351  1.00  0.00     0.000 C 
HETATM   26  C7  UNL     1      48.979  36.024  28.767  1.00  0.00     0.001 C 
HETATM   27  C8  UNL     1      47.834  35.105  29.102  1.00  0.00     0.015 C 
ENDBRANCH  21  22
ENDBRANCH   4  21
TORSDOF 5
ENDMDL
MODEL 3
REMARK VINA RESULT: -8.299776249      2.824      9.226
REMARK  5 active torsions:
REMARK  status: ('A' for Active; 'I' for Inactive)
REMARK    1  A    between atoms: C2_4  and  S1_5 
REMARK    2  A    between atoms: S1_5  and  C3_6 
REMARK    3  A    between atoms: C10_13  and  N2_14 
REMARK    4  A    between atoms: N2_14  and  C11_16 
REMARK    5  A    between atoms: C11_16  and  C12_17 
ROOT
HETATM    1  C1  UNL     1      43.023  33.698  33.170  1.00  0.00     0.182 A 
HETATM    2  N1  UNL     1      44.161  34.391  32.966  1.00  0.00    -0.347 N 
ATOM      3  H1  UNL     1      44.427  35.105  33.644  1.00  0.00     0.167 HD
HETATM    4  C2  UNL     1      44.956  34.180  31.913  1.00  0.00     0.074 A 
HETATM    5  C9  UNL     1      44.575  33.206  31.011  1.00  0.00     0.085 A 
HETATM    6  C10 UNL     1      43.420  32.472  31.178  1.00  0.00     0.104 A 
HETATM    7  N3  UNL     1      42.681  32.748  32.261  1.00  0.00    -0.339 N 
ATOM      8  H3  UNL     1      41.821  32.220  32.410  1.00  0.00     0.168 HD
ENDROOT
BRANCH   6   9
HETATM    9  N2  UNL     1      43.028  31.561  30.371  1.00  0.00    -0.374 N 
ATOM     10  H2  UNL     1      43.717  30.846  30.139  1.00  0.00     0.161 HD
BRANCH   9  11
HETATM   11  C11 UNL     1      41.758  31.419  29.757  1.00  0.00     0.153 C 
BRANCH  11  12
HETATM   12  C12 UNL     1      41.038  30.218  30.336  1.00  0.00     0.140 C 
HETATM   13  C13 UNL     1      39.711  30.625  30.955  1.00  0.00     0.041 C 
HETATM   14  C14 UNL     1      39.501  29.491  31.932  1.00  0.00     0.017 C 
HETATM   15  C15 UNL     1      38.743  29.943  33.162  1.00  0.00     0.007 C 
HETATM   16  C19 UNL     1      40.888  29.047  32.234  1.00  0.00     0.126 C 
HETATM   17  C16 UNL     1      39.006  28.909  34.247  1.00  0.00     0.001 C 
HETATM   18  C17 UNL     1      40.425  29.075  34.709  1.00  0.00     0.002 C 
HETATM   19  C18 UNL     1      41.368  29.461  33.623  1.00  0.00     0.032 C 
HETATM   20  O1  UNL     1      41.746  29.595  31.328  1.00  0.00    -0.379 OA
ENDBRANCH  11  12
ENDBRANCH   9  11
ENDBRANCH   6   9
BRANCH   4  21
HETATM   21  S1  UNL     1      46.456  35.097  31.652  1.00  0.00    -0.107 SA
BRANCH  21  22
HETATM   22  C3  UNL     1      47.613  34.223  30.561  1.00  0.00     0.054 C 
HETATM   23  C4  UNL     1      48.994  34.371  31.143  1.00  0.00     0.015 C 
HETATM   24  C5  UNL     1      50.083  34.136  30.135  1.00  0.00     0.001 C 
HETATM   25  C6  UNL     1      49.889  34.941  28.873  1.00  0.00     0.000 C 
HETATM   26  C7  UNL     1      48.606  35.751  28.920  1.00  0.00     0.001 C 
HETATM   27  C8  UNL     1      47.484  34.781  29.185  1.00  0.00     0.015 C 
ENDBRANCH  21  22
ENDBRANCH   4  21
TORSDOF 5
ENDMDL
MODEL 4
REMARK VINA RESULT: -8.230332271      3.818     10.342
REMARK  5 active torsions:
REMARK  status: ('A' for Active; 'I' for Inactive)
REMARK    1  A    between atoms: C2_4  and  S1_5 
REMARK    2  A    between atoms: S1_5  and  C3_6 
REMARK    3  A    between atoms: C10_13  and  N2_14 
REMARK    4  A    between atoms: N2_14  and  C11_16 
REMARK    5  A    between atoms: C11_16  and  C12_17 
ROOT
HETATM    1  C1  UNL     1      47.648  33.674  32.719  1.00  0.00     0.182 A 
HETATM    2  N1  UNL     1      48.252  34.307  31.694  1.00  0.00    -0.347 N 
ATOM      3  H1  UNL     1      49.152  34.757  31.859  1.00  0.00     0.167 HD
HETATM    4  C2  UNL     1      47.720  34.369  30.470  1.00  0.00     0.074 A 
HETATM    5  C9  UNL     1      46.500  33.750  30.272  1.00  0.00     0.085 A 
HETATM    6  C10 UNL     1      45.846  33.091  31.291  1.00  0.00     0.104 A 
HETATM    7  N3  UNL     1      46.449  33.077  32.487  1.00  0.00    -0.339 N 
ATOM      8  H3  UNL     1      45.988  32.597  33.259  1.00  0.00     0.168 HD
ENDROOT
BRANCH   6   9
HETATM    9  N2  UNL     1      44.718  32.504  31.155  1.00  0.00    -0.374 N 
ATOM     10  H2  UNL     1      44.137  32.457  31.992  1.00  0.00     0.161 HD
BRANCH   9  11
HETATM   11  C11 UNL     1      44.172  31.910  29.989  1.00  0.00     0.153 C 
BRANCH  11  12
HETATM   12  C12 UNL     1      43.253  30.769  30.374  1.00  0.00     0.140 C 
HETATM   13  C13 UNL     1      41.843  31.007  29.859  1.00  0.00     0.041 C 
HETATM   14  C14 UNL     1      41.049  30.148  30.816  1.00  0.00     0.017 C 
HETATM   15  C15 UNL     1      39.670  30.717  31.068  1.00  0.00     0.007 C 
HETATM   16  C19 UNL     1      41.902  30.128  32.035  1.00  0.00     0.126 C 
HETATM   17  C16 UNL     1      39.162  30.088  32.357  1.00  0.00     0.001 C 
HETATM   18  C17 UNL     1      39.931  30.691  33.498  1.00  0.00     0.002 C 
HETATM   19  C18 UNL     1      41.354  30.987  33.172  1.00  0.00     0.032 C 
HETATM   20  O1  UNL     1      43.142  30.605  31.728  1.00  0.00    -0.379 OA
ENDBRANCH  11  12
ENDBRANCH   9  11
ENDBRANCH   6   9
BRANCH   4  21
HETATM   21  S1  UNL     1      48.522  35.204  29.122  1.00  0.00    -0.107 SA
BRANCH  21  22
HETATM   22  C3  UNL     1      50.309  34.896  29.091  1.00  0.00     0.054 C 
HETATM   23  C4  UNL     1      50.884  35.643  27.916  1.00  0.00     0.015 C 
HETATM   24  C5  UNL     1      52.219  35.110  27.479  1.00  0.00     0.001 C 
HETATM   25  C6  UNL     1      52.209  33.614  27.275  1.00  0.00     0.000 C 
HETATM   26  C7  UNL     1      50.856  33.015  27.616  1.00  0.00     0.001 C 
HETATM   27  C8  UNL     1      50.538  33.424  29.030  1.00  0.00     0.015 C 
ENDBRANCH  21  22
ENDBRANCH   4  21
TORSDOF 5
ENDMDL
MODEL 5
REMARK VINA RESULT: -8.170990339      3.962     10.478
REMARK  5 active torsions:
REMARK  status: ('A' for Active; 'I' for Inactive)
REMARK    1  A    between atoms: C2_4  and  S1_5 
REMARK    2  A    between atoms: S1_5  and  C3_6 
REMARK    3  A    between atoms: C10_13  and  N2_14 
REMARK    4  A    between atoms: N2_14  and  C11_16 
REMARK    5  A    between atoms: C11_16  and  C12_17 
ROOT
HETATM    1  C1  UNL     1      47.494  33.895  32.460  1.00  0.00     0.182 A 
HETATM    2  N1  UNL     1      48.439  34.321  31.598  1.00  0.00    -0.347 N 
ATOM      3  H1  UNL     1      49.349  34.593  31.967  1.00  0.00     0.167 HD
HETATM    4  C2  UNL     1      48.232  34.401  30.281  1.00  0.00     0.074 A 
HETATM    5  C9  UNL     1      46.990  34.025  29.806  1.00  0.00     0.085 A 
HETATM    6  C10 UNL     1      45.992  33.582  30.649  1.00  0.00     0.104 A 
HETATM    7  N3  UNL     1      46.284  33.534  31.956  1.00  0.00    -0.339 N 
ATOM      8  H3  UNL     1      45.566  33.210  32.603  1.00  0.00     0.168 HD
ENDROOT
BRANCH   6   9
HETATM    9  N2  UNL     1      44.830  33.223  30.256  1.00  0.00    -0.374 N 
ATOM     10  H2  UNL     1      44.346  33.878  29.642  1.00  0.00     0.161 HD
BRANCH   9  11
HETATM   11  C11 UNL     1      44.128  32.030  30.564  1.00  0.00     0.153 C 
BRANCH  11  12
HETATM   12  C12 UNL     1      42.764  32.368  31.130  1.00  0.00     0.140 C 
HETATM   13  C13 UNL     1      42.665  31.960  32.591  1.00  0.00     0.041 C 
HETATM   14  C14 UNL     1      41.167  31.818  32.739  1.00  0.00     0.017 C 
HETATM   15  C15 UNL     1      40.802  30.756  33.752  1.00  0.00     0.007 C 
HETATM   16  C19 UNL     1      40.725  31.483  31.359  1.00  0.00     0.126 C 
HETATM   17  C16 UNL     1      39.358  30.363  33.478  1.00  0.00     0.001 C 
HETATM   18  C17 UNL     1      39.331  29.564  32.206  1.00  0.00     0.002 C 
HETATM   19  C18 UNL     1      40.321  30.020  31.190  1.00  0.00     0.032 C 
HETATM   20  O1  UNL     1      41.742  31.726  30.485  1.00  0.00    -0.379 OA
ENDBRANCH  11  12
ENDBRANCH   9  11
ENDBRANCH   6   9
BRANCH   4  21
HETATM   21  S1  UNL     1      49.483  34.963  29.151  1.00  0.00    -0.107 SA
BRANCH  21  22
HETATM   22  C3  UNL     1      50.923  33.860  29.118  1.00  0.00     0.054 C 
HETATM   23  C4  UNL     1      52.150  34.712  28.927  1.00  0.00     0.015 C 
HETATM   24  C5  UNL     1      53.325  33.938  28.402  1.00  0.00     0.001 C 
HETATM   25  C6  UNL     1      52.983  33.120  27.180  1.00  0.00     0.000 C 
HETATM   26  C7  UNL     1      51.514  33.247  26.818  1.00  0.00     0.001 C 
HETATM   27  C8  UNL     1      50.725  32.851  28.039  1.00  0.00     0.015 C 
ENDBRANCH  21  22
ENDBRANCH   4  21
TORSDOF 5
ENDMDL
