MODEL 1
REMARK VINA RESULT: -9.309602604      0.000      0.000
REMARK  7 active torsions:
REMARK  status: ('A' for Active; 'I' for Inactive)
REMARK    1  A    between atoms: C2_2  and  C3_3 
REMARK    2  A    between atoms: C2_2  and  C6_12 
REMARK    3  A    between atoms: C3_3  and  O1_4 
REMARK    4  A    between atoms: O1_4  and  C4_5 
REMARK    5  A    between atoms: C4_5  and  C5_7 
REMARK    6  A    between atoms: C5_7  and  O3_8 
REMARK    7  A    between atoms: C5_7  and  O4_10 
ROOT
HETATM    1  C6  UNL     1      40.308  31.047  31.466  1.00  0.00    -0.016 C 
HETATM    2  C7  UNL     1      39.766  31.995  30.433  1.00  0.00     0.020 C 
HETATM    3  C8  UNL     1      40.692  31.613  32.772  1.00  0.00     0.015 C 
HETATM    4  C9  UNL     1      42.158  32.043  32.898  1.00  0.00     0.011 C 
HETATM    5  C10 UNL     1      42.634  32.464  31.520  1.00  0.00     0.027 C 
HETATM    6  C11 UNL     1      42.614  31.303  30.674  1.00  0.00    -0.074 C 
HETATM    7  C12 UNL     1      43.580  31.012  29.814  1.00  0.00     0.003 C 
HETATM    8  C13 UNL     1      44.714  31.909  29.742  1.00  0.00     0.004 C 
HETATM    9  C14 UNL     1      44.820  32.970  30.494  1.00  0.00    -0.071 C 
HETATM   10  C15 UNL     1      46.002  33.865  30.374  1.00  0.00     0.035 C 
HETATM   11  C16 UNL     1      46.779  33.653  31.670  1.00  0.00     0.004 C 
HETATM   12  C17 UNL     1      45.927  33.800  32.875  1.00  0.00     0.001 C 
HETATM   13  C18 UNL     1      44.602  33.137  32.861  1.00  0.00     0.014 C 
HETATM   14  C19 UNL     1      43.849  33.280  31.533  1.00  0.00    -0.013 C 
HETATM   15  C20 UNL     1      43.533  34.776  31.392  1.00  0.00     0.021 C 
HETATM   16  C21 UNL     1      41.457  30.321  30.778  1.00  0.00     0.048 C 
ENDROOT
BRANCH   1  17
HETATM   17  C2  UNL     1      39.181  30.044  31.690  1.00  0.00    -0.057 C 
HETATM   18  C1  UNL     1      38.067  30.222  31.054  1.00  0.00     0.017 C 
BRANCH  17  19
HETATM   19  C3  UNL     1      39.412  28.900  32.585  1.00  0.00     0.213 C 
BRANCH  19  20
HETATM   20  O1  UNL     1      38.655  28.915  33.735  1.00  0.00    -0.313 OA
BRANCH  20  21
HETATM   21  C4  UNL     1      39.081  28.326  34.906  1.00  0.00     0.314 C 
HETATM   22  O2  UNL     1      40.273  28.481  35.263  1.00  0.00    -0.260 OA
BRANCH  21  23
HETATM   23  C5  UNL     1      38.192  27.512  35.772  1.00  0.00     0.356 C 
BRANCH  23  24
HETATM   24  O3  UNL     1      37.944  26.262  35.256  1.00  0.00    -0.363 OA
ATOM     25  H3  UNL     1      37.817  25.604  35.930  1.00  0.00     0.213 HD
ENDBRANCH  23  24
BRANCH  23  26
HETATM   26  O4  UNL     1      38.813  27.345  37.016  1.00  0.00    -0.363 OA
ATOM     27  H4  UNL     1      38.514  26.527  37.395  1.00  0.00     0.213 HD
ENDBRANCH  23  26
ENDBRANCH  21  23
ENDBRANCH  20  21
ENDBRANCH  19  20
ENDBRANCH  17  19
ENDBRANCH   1  17
TORSDOF 7
ENDMDL
MODEL 2
REMARK VINA RESULT: -8.608479405      4.795      7.752
REMARK  7 active torsions:
REMARK  status: ('A' for Active; 'I' for Inactive)
REMARK    1  A    between atoms: C2_2  and  C3_3 
REMARK    2  A    between atoms: C2_2  and  C6_12 
REMARK    3  A    between atoms: C3_3  and  O1_4 
REMARK    4  A    between atoms: O1_4  and  C4_5 
REMARK    5  A    between atoms: C4_5  and  C5_7 
REMARK    6  A    between atoms: C5_7  and  O3_8 
REMARK    7  A    between atoms: C5_7  and  O4_10 
ROOT
HETATM    1  C6  UNL     1      44.149  32.321  30.910  1.00  0.00    -0.016 C 
HETATM    2  C7  UNL     1      45.077  31.974  32.041  1.00  0.00     0.020 C 
HETATM    3  C8  UNL     1      42.946  33.109  31.236  1.00  0.00     0.015 C 
HETATM    4  C9  UNL     1      41.690  32.290  31.558  1.00  0.00     0.011 C 
HETATM    5  C10 UNL     1      42.142  30.976  32.168  1.00  0.00     0.027 C 
HETATM    6  C11 UNL     1      42.864  30.249  31.161  1.00  0.00    -0.074 C 
HETATM    7  C12 UNL     1      42.719  28.946  30.959  1.00  0.00     0.003 C 
HETATM    8  C13 UNL     1      41.773  28.234  31.792  1.00  0.00     0.004 C 
HETATM    9  C14 UNL     1      41.060  28.826  32.710  1.00  0.00    -0.071 C 
HETATM   10  C15 UNL     1      40.107  28.046  33.545  1.00  0.00     0.035 C 
HETATM   11  C16 UNL     1      38.727  28.502  33.084  1.00  0.00     0.004 C 
HETATM   12  C17 UNL     1      38.587  29.979  33.082  1.00  0.00     0.001 C 
HETATM   13  C18 UNL     1      39.699  30.772  32.505  1.00  0.00     0.014 C 
HETATM   14  C19 UNL     1      41.092  30.269  32.903  1.00  0.00    -0.013 C 
HETATM   15  C20 UNL     1      41.202  30.496  34.417  1.00  0.00     0.021 C 
HETATM   16  C21 UNL     1      43.820  30.993  30.242  1.00  0.00     0.048 C 
ENDROOT
BRANCH   1  17
HETATM   17  C2  UNL     1      45.010  33.135  29.948  1.00  0.00    -0.057 C 
HETATM   18  C1  UNL     1      44.988  32.821  28.693  1.00  0.00     0.017 C 
BRANCH  17  19
HETATM   19  C3  UNL     1      45.796  34.261  30.474  1.00  0.00     0.213 C 
BRANCH  19  20
HETATM   20  O1  UNL     1      47.137  34.213  30.164  1.00  0.00    -0.313 OA
BRANCH  20  21
HETATM   21  C4  UNL     1      48.118  34.233  31.130  1.00  0.00     0.314 C 
HETATM   22  O2  UNL     1      49.318  34.304  30.772  1.00  0.00    -0.260 OA
BRANCH  21  23
HETATM   23  C5  UNL     1      47.824  34.175  32.584  1.00  0.00     0.356 C 
BRANCH  23  24
HETATM   24  O3  UNL     1      48.678  33.341  33.267  1.00  0.00    -0.363 OA
ATOM     25  H3  UNL     1      48.387  33.163  34.154  1.00  0.00     0.213 HD
ENDBRANCH  23  24
BRANCH  23  26
HETATM   26  O4  UNL     1      47.966  35.461  33.118  1.00  0.00    -0.363 OA
ATOM     27  H4  UNL     1      47.214  35.643  33.670  1.00  0.00     0.213 HD
ENDBRANCH  23  26
ENDBRANCH  21  23
ENDBRANCH  20  21
ENDBRANCH  19  20
ENDBRANCH  17  19
ENDBRANCH   1  17
TORSDOF 7
ENDMDL
MODEL 3
REMARK VINA RESULT: -8.568090449      1.316      2.734
REMARK  7 active torsions:
REMARK  status: ('A' for Active; 'I' for Inactive)
REMARK    1  A    between atoms: C2_2  and  C3_3 
REMARK    2  A    between atoms: C2_2  and  C6_12 
REMARK    3  A    between atoms: C3_3  and  O1_4 
REMARK    4  A    between atoms: O1_4  and  C4_5 
REMARK    5  A    between atoms: C4_5  and  C5_7 
REMARK    6  A    between atoms: C5_7  and  O3_8 
REMARK    7  A    between atoms: C5_7  and  O4_10 
ROOT
HETATM    1  C6  UNL     1      42.091  30.934  31.424  1.00  0.00    -0.016 C 
HETATM    2  C7  UNL     1      42.364  30.317  32.768  1.00  0.00     0.020 C 
HETATM    3  C8  UNL     1      43.093  30.722  30.363  1.00  0.00     0.015 C 
HETATM    4  C9  UNL     1      44.175  31.803  30.255  1.00  0.00     0.011 C 
HETATM    5  C10 UNL     1      44.388  32.381  31.641  1.00  0.00     0.027 C 
HETATM    6  C11 UNL     1      43.176  33.046  32.032  1.00  0.00    -0.074 C 
HETATM    7  C12 UNL     1      43.155  34.223  32.643  1.00  0.00     0.003 C 
HETATM    8  C13 UNL     1      44.423  34.867  32.912  1.00  0.00     0.004 C 
HETATM    9  C14 UNL     1      45.566  34.342  32.567  1.00  0.00    -0.071 C 
HETATM   10  C15 UNL     1      46.842  35.041  32.875  1.00  0.00     0.035 C 
HETATM   11  C16 UNL     1      47.369  35.498  31.518  1.00  0.00     0.004 C 
HETATM   12  C17 UNL     1      47.413  34.398  30.525  1.00  0.00     0.001 C 
HETATM   13  C18 UNL     1      46.230  33.509  30.434  1.00  0.00     0.014 C 
HETATM   14  C19 UNL     1      45.648  33.109  31.796  1.00  0.00    -0.013 C 
HETATM   15  C20 UNL     1      46.725  32.251  32.474  1.00  0.00     0.021 C 
HETATM   16  C21 UNL     1      41.834  32.408  31.706  1.00  0.00     0.048 C 
ENDROOT
BRANCH   1  17
HETATM   17  C2  UNL     1      40.776  30.302  30.975  1.00  0.00    -0.057 C 
HETATM   18  C1  UNL     1      40.122  30.867  30.012  1.00  0.00     0.017 C 
BRANCH  17  19
HETATM   19  C3  UNL     1      40.324  29.062  31.624  1.00  0.00     0.213 C 
BRANCH  19  20
HETATM   20  O1  UNL     1      39.139  29.181  32.316  1.00  0.00    -0.313 OA
BRANCH  20  21
HETATM   21  C4  UNL     1      39.095  29.538  33.646  1.00  0.00     0.314 C 
HETATM   22  O2  UNL     1      39.007  30.752  33.945  1.00  0.00    -0.260 OA
BRANCH  21  23
HETATM   23  C5  UNL     1      39.145  28.548  34.751  1.00  0.00     0.356 C 
BRANCH  23  24
HETATM   24  O3  UNL     1      38.332  27.462  34.531  1.00  0.00    -0.363 OA
ATOM     25  H3  UNL     1      37.689  27.337  35.220  1.00  0.00     0.213 HD
ENDBRANCH  23  24
BRANCH  23  26
HETATM   26  O4  UNL     1      40.459  28.079  34.870  1.00  0.00    -0.363 OA
ATOM     27  H4  UNL     1      40.444  27.130  34.855  1.00  0.00     0.213 HD
ENDBRANCH  23  26
ENDBRANCH  21  23
ENDBRANCH  20  21
ENDBRANCH  19  20
ENDBRANCH  17  19
ENDBRANCH   1  17
TORSDOF 7
ENDMDL
MODEL 4
REMARK VINA RESULT: -8.498205007      0.878      1.316
REMARK  7 active torsions:
REMARK  status: ('A' for Active; 'I' for Inactive)
REMARK    1  A    between atoms: C2_2  and  C3_3 
REMARK    2  A    between atoms: C2_2  and  C6_12 
REMARK    3  A    between atoms: C3_3  and  O1_4 
REMARK    4  A    between atoms: O1_4  and  C4_5 
REMARK    5  A    between atoms: C4_5  and  C5_7 
REMARK    6  A    between atoms: C5_7  and  O3_8 
REMARK    7  A    between atoms: C5_7  and  O4_10 
ROOT
HETATM    1  C6  UNL     1      40.191  31.193  31.708  1.00  0.00    -0.016 C 
HETATM    2  C7  UNL     1      39.670  32.047  30.586  1.00  0.00     0.020 C 
HETATM    3  C8  UNL     1      40.622  31.878  32.941  1.00  0.00     0.015 C 
HETATM    4  C9  UNL     1      42.107  32.255  33.000  1.00  0.00     0.011 C 
HETATM    5  C10 UNL     1      42.574  32.505  31.578  1.00  0.00     0.027 C 
HETATM    6  C11 UNL     1      42.491  31.263  30.862  1.00  0.00    -0.074 C 
HETATM    7  C12 UNL     1      43.429  30.840  30.025  1.00  0.00     0.003 C 
HETATM    8  C13 UNL     1      44.597  31.675  29.841  1.00  0.00     0.004 C 
HETATM    9  C14 UNL     1      44.760  32.804  30.473  1.00  0.00    -0.071 C 
HETATM   10  C15 UNL     1      45.977  33.629  30.242  1.00  0.00     0.035 C 
HETATM   11  C16 UNL     1      46.768  33.523  31.542  1.00  0.00     0.004 C 
HETATM   12  C17 UNL     1      45.945  33.835  32.736  1.00  0.00     0.001 C 
HETATM   13  C18 UNL     1      44.593  33.232  32.812  1.00  0.00     0.014 C 
HETATM   14  C19 UNL     1      43.822  33.265  31.486  1.00  0.00    -0.013 C 
HETATM   15  C20 UNL     1      43.566  34.750  31.189  1.00  0.00     0.021 C 
HETATM   16  C21 UNL     1      41.297  30.349  31.087  1.00  0.00     0.048 C 
ENDROOT
BRANCH   1  17
HETATM   17  C2  UNL     1      39.028  30.269  32.054  1.00  0.00    -0.057 C 
HETATM   18  C1  UNL     1      38.484  29.584  31.099  1.00  0.00     0.017 C 
BRANCH  17  19
HETATM   19  C3  UNL     1      38.594  30.163  33.456  1.00  0.00     0.213 C 
BRANCH  19  20
HETATM   20  O1  UNL     1      38.360  28.875  33.883  1.00  0.00    -0.313 OA
BRANCH  20  21
HETATM   21  C4  UNL     1      39.242  28.196  34.696  1.00  0.00     0.314 C 
HETATM   22  O2  UNL     1      39.001  28.124  35.924  1.00  0.00    -0.260 OA
BRANCH  21  23
HETATM   23  C5  UNL     1      40.473  27.541  34.185  1.00  0.00     0.356 C 
BRANCH  23  24
HETATM   24  O3  UNL     1      40.345  27.105  32.888  1.00  0.00    -0.363 OA
ATOM     25  H3  UNL     1      40.170  26.173  32.828  1.00  0.00     0.213 HD
ENDBRANCH  23  24
BRANCH  23  26
HETATM   26  O4  UNL     1      41.520  28.470  34.222  1.00  0.00    -0.363 OA
ATOM     27  H4  UNL     1      41.464  29.019  33.449  1.00  0.00     0.213 HD
ENDBRANCH  23  26
ENDBRANCH  21  23
ENDBRANCH  20  21
ENDBRANCH  19  20
ENDBRANCH  17  19
ENDBRANCH   1  17
TORSDOF 7
ENDMDL
MODEL 5
REMARK VINA RESULT: -8.491222449      1.182      2.420
REMARK  7 active torsions:
REMARK  status: ('A' for Active; 'I' for Inactive)
REMARK    1  A    between atoms: C2_2  and  C3_3 
REMARK    2  A    between atoms: C2_2  and  C6_12 
REMARK    3  A    between atoms: C3_3  and  O1_4 
REMARK    4  A    between atoms: O1_4  and  C4_5 
REMARK    5  A    between atoms: C4_5  and  C5_7 
REMARK    6  A    between atoms: C5_7  and  O3_8 
REMARK    7  A    between atoms: C5_7  and  O4_10 
ROOT
HETATM    1  C6  UNL     1      40.613  30.329  32.498  1.00  0.00    -0.016 C 
HETATM    2  C7  UNL     1      41.367  29.701  33.638  1.00  0.00     0.020 C 
HETATM    3  C8  UNL     1      41.073  30.024  31.130  1.00  0.00     0.015 C 
HETATM    4  C9  UNL     1      42.092  31.009  30.544  1.00  0.00     0.011 C 
HETATM    5  C10 UNL     1      42.898  31.577  31.697  1.00  0.00     0.027 C 
HETATM    6  C11 UNL     1      42.006  32.346  32.521  1.00  0.00    -0.074 C 
HETATM    7  C12 UNL     1      42.325  33.525  33.036  1.00  0.00     0.003 C 
HETATM    8  C13 UNL     1      43.636  34.061  32.737  1.00  0.00     0.004 C 
HETATM    9  C14 UNL     1      44.494  33.438  31.977  1.00  0.00    -0.071 C 
HETATM   10  C15 UNL     1      45.832  34.029  31.706  1.00  0.00     0.035 C 
HETATM   11  C16 UNL     1      45.788  34.429  30.235  1.00  0.00     0.004 C 
HETATM   12  C17 UNL     1      45.338  33.321  29.358  1.00  0.00     0.001 C 
HETATM   13  C18 UNL     1      44.160  32.535  29.796  1.00  0.00     0.014 C 
HETATM   14  C19 UNL     1      44.161  32.197  31.292  1.00  0.00    -0.013 C 
HETATM   15  C20 UNL     1      45.354  31.255  31.507  1.00  0.00     0.021 C 
HETATM   16  C21 UNL     1      40.606  31.822  32.798  1.00  0.00     0.048 C 
ENDROOT
BRANCH   1  17
HETATM   17  C2  UNL     1      39.188  29.807  32.653  1.00  0.00    -0.057 C 
HETATM   18  C1  UNL     1      38.490  29.606  31.581  1.00  0.00     0.017 C 
BRANCH  17  19
HETATM   19  C3  UNL     1      38.677  29.519  34.001  1.00  0.00     0.213 C 
BRANCH  19  20
HETATM   20  O1  UNL     1      38.502  28.179  34.269  1.00  0.00    -0.313 OA
BRANCH  20  21
HETATM   21  C4  UNL     1      38.621  27.660  35.539  1.00  0.00     0.314 C 
HETATM   22  O2  UNL     1      39.372  28.237  36.361  1.00  0.00    -0.260 OA
BRANCH  21  23
HETATM   23  C5  UNL     1      37.899  26.443  35.987  1.00  0.00     0.356 C 
BRANCH  23  24
HETATM   24  O3  UNL     1      38.256  26.047  37.255  1.00  0.00    -0.363 OA
ATOM     25  H3  UNL     1      39.186  26.145  37.423  1.00  0.00     0.213 HD
ENDBRANCH  23  24
BRANCH  23  26
HETATM   26  O4  UNL     1      36.526  26.718  35.998  1.00  0.00    -0.363 OA
ATOM     27  H4  UNL     1      36.063  25.959  35.663  1.00  0.00     0.213 HD
ENDBRANCH  23  26
ENDBRANCH  21  23
ENDBRANCH  20  21
ENDBRANCH  19  20
ENDBRANCH  17  19
ENDBRANCH   1  17
TORSDOF 7
ENDMDL
