MODEL 1
REMARK VINA RESULT: -7.631734224      0.000      0.000
REMARK  5 active torsions:
REMARK  status: ('A' for Active; 'I' for Inactive)
REMARK    1  A    between atoms: O1_2  and  C2_3 
REMARK    2  A    between atoms: C13_14  and  O2_15 
REMARK    3  A    between atoms: O2_15  and  C14_16 
REMARK    4  A    between atoms: C14_16  and  C15_18 
REMARK    5  A    between atoms: C15_18  and  C16_19 
ROOT
HETATM    1  C2  UNL     1      42.265  30.824  31.185  1.00  0.00     0.091 C 
HETATM    2  C3  UNL     1      41.077  31.182  30.336  1.00  0.00     0.043 C 
HETATM    3  C4  UNL     1      39.823  31.354  31.190  1.00  0.00     0.003 C 
HETATM    4  C5  UNL     1      39.446  30.124  31.932  1.00  0.00     0.000 C 
HETATM    5  C6  UNL     1      40.206  29.809  33.162  1.00  0.00     0.004 C 
HETATM    6  C7  UNL     1      41.210  30.814  33.612  1.00  0.00     0.037 C 
HETATM    7  C8  UNL     1      41.956  31.456  32.531  1.00  0.00    -0.048 C 
HETATM    8  C9  UNL     1      42.453  32.683  32.583  1.00  0.00    -0.015 C 
HETATM    9  C10 UNL     1      43.137  32.992  31.289  1.00  0.00     0.026 C 
HETATM   10  C11 UNL     1      44.314  33.914  31.479  1.00  0.00     0.019 C 
HETATM   11  C12 UNL     1      43.803  35.263  31.919  1.00  0.00     0.013 C 
HETATM   12  C13 UNL     1      45.230  33.288  32.489  1.00  0.00     0.136 C 
HETATM   13  C17 UNL     1      45.781  32.020  31.853  1.00  0.00     0.034 C 
HETATM   14  C18 UNL     1      44.617  31.066  31.721  1.00  0.00     0.016 C 
HETATM   15  C19 UNL     1      43.520  31.609  30.833  1.00  0.00    -0.001 C 
HETATM   16  C20 UNL     1      43.864  31.529  29.389  1.00  0.00     0.019 C 
ENDROOT
BRANCH  12  17
HETATM   17  O2  UNL     1      46.255  34.143  32.928  1.00  0.00    -0.315 OA
BRANCH  17  18
HETATM   18  C14 UNL     1      47.549  34.138  32.432  1.00  0.00     0.269 C 
HETATM   19  O3  UNL     1      48.366  33.356  32.936  1.00  0.00    -0.265 OA
BRANCH  18  20
HETATM   20  C15 UNL     1      47.848  35.081  31.323  1.00  0.00     0.224 C 
BRANCH  20  21
HETATM   21  C16 UNL     1      48.105  34.374  30.037  1.00  0.00     0.182 C 
HETATM   22  O4  UNL     1      47.218  34.118  29.195  1.00  0.00    -0.648 OA
HETATM   23  O5  UNL     1      49.419  33.996  29.799  1.00  0.00    -0.648 OA
ENDBRANCH  20  21
ENDBRANCH  18  20
ENDBRANCH  17  18
ENDBRANCH  12  17
BRANCH   1  24
HETATM   24  O1  UNL     1      42.500  29.495  31.361  1.00  0.00    -0.380 OA
HETATM   25  C1  UNL     1      42.372  28.661  30.299  1.00  0.00     0.203 C 
ENDBRANCH   1  24
TORSDOF 5
ENDMDL
MODEL 2
REMARK VINA RESULT: -7.343641913      1.396      2.355
REMARK  5 active torsions:
REMARK  status: ('A' for Active; 'I' for Inactive)
REMARK    1  A    between atoms: O1_2  and  C2_3 
REMARK    2  A    between atoms: C13_14  and  O2_15 
REMARK    3  A    between atoms: O2_15  and  C14_16 
REMARK    4  A    between atoms: C14_16  and  C15_18 
REMARK    5  A    between atoms: C15_18  and  C16_19 
ROOT
HETATM    1  C2  UNL     1      40.737  29.862  31.848  1.00  0.00     0.091 C 
HETATM    2  C3  UNL     1      39.316  30.341  31.944  1.00  0.00     0.043 C 
HETATM    3  C4  UNL     1      38.795  30.229  33.376  1.00  0.00     0.003 C 
HETATM    4  C5  UNL     1      38.800  28.837  33.894  1.00  0.00     0.000 C 
HETATM    5  C6  UNL     1      40.093  28.285  34.352  1.00  0.00     0.004 C 
HETATM    6  C7  UNL     1      41.260  29.211  34.359  1.00  0.00     0.037 C 
HETATM    7  C8  UNL     1      41.310  30.136  33.227  1.00  0.00    -0.048 C 
HETATM    8  C9  UNL     1      41.856  31.342  33.263  1.00  0.00    -0.015 C 
HETATM    9  C10 UNL     1      41.704  31.992  31.925  1.00  0.00     0.026 C 
HETATM   10  C11 UNL     1      42.856  32.911  31.608  1.00  0.00     0.019 C 
HETATM   11  C12 UNL     1      42.810  34.083  32.557  1.00  0.00     0.013 C 
HETATM   12  C13 UNL     1      44.123  32.118  31.732  1.00  0.00     0.136 C 
HETATM   13  C17 UNL     1      44.096  31.073  30.626  1.00  0.00     0.034 C 
HETATM   14  C18 UNL     1      42.985  30.111  30.973  1.00  0.00     0.016 C 
HETATM   15  C19 UNL     1      41.631  30.783  31.030  1.00  0.00    -0.001 C 
HETATM   16  C20 UNL     1      41.081  31.070  29.679  1.00  0.00     0.019 C 
ENDROOT
BRANCH  12  17
HETATM   17  O2  UNL     1      45.287  32.903  31.685  1.00  0.00    -0.315 OA
BRANCH  17  18
HETATM   18  C14 UNL     1      45.790  33.494  30.535  1.00  0.00     0.269 C 
HETATM   19  O3  UNL     1      45.090  33.474  29.514  1.00  0.00    -0.265 OA
BRANCH  18  20
HETATM   20  C15 UNL     1      47.139  34.108  30.630  1.00  0.00     0.224 C 
BRANCH  20  21
HETATM   21  C16 UNL     1      47.491  34.481  32.029  1.00  0.00     0.182 C 
HETATM   22  O4  UNL     1      47.141  35.549  32.573  1.00  0.00    -0.648 OA
HETATM   23  O5  UNL     1      48.253  33.559  32.733  1.00  0.00    -0.648 OA
ENDBRANCH  20  21
ENDBRANCH  18  20
ENDBRANCH  17  18
ENDBRANCH  12  17
BRANCH   1  24
HETATM   24  O1  UNL     1      40.910  28.546  31.547  1.00  0.00    -0.380 OA
HETATM   25  C1  UNL     1      42.161  28.023  31.591  1.00  0.00     0.203 C 
ENDBRANCH   1  24
TORSDOF 5
ENDMDL
MODEL 3
REMARK VINA RESULT: -7.129804239      1.317      1.900
REMARK  5 active torsions:
REMARK  status: ('A' for Active; 'I' for Inactive)
REMARK    1  A    between atoms: O1_2  and  C2_3 
REMARK    2  A    between atoms: C13_14  and  O2_15 
REMARK    3  A    between atoms: O2_15  and  C14_16 
REMARK    4  A    between atoms: C14_16  and  C15_18 
REMARK    5  A    between atoms: C15_18  and  C16_19 
ROOT
HETATM    1  C2  UNL     1      40.841  30.047  31.735  1.00  0.00     0.091 C 
HETATM    2  C3  UNL     1      39.437  30.538  31.954  1.00  0.00     0.043 C 
HETATM    3  C4  UNL     1      39.020  30.377  33.414  1.00  0.00     0.003 C 
HETATM    4  C5  UNL     1      39.042  28.965  33.877  1.00  0.00     0.000 C 
HETATM    5  C6  UNL     1      40.358  28.380  34.217  1.00  0.00     0.004 C 
HETATM    6  C7  UNL     1      41.535  29.291  34.174  1.00  0.00     0.037 C 
HETATM    7  C8  UNL     1      41.516  30.259  33.078  1.00  0.00    -0.048 C 
HETATM    8  C9  UNL     1      42.081  31.456  33.120  1.00  0.00    -0.015 C 
HETATM    9  C10 UNL     1      41.842  32.160  31.821  1.00  0.00     0.026 C 
HETATM   10  C11 UNL     1      42.981  33.077  31.457  1.00  0.00     0.019 C 
HETATM   11  C12 UNL     1      43.023  34.211  32.450  1.00  0.00     0.013 C 
HETATM   12  C13 UNL     1      44.243  32.264  31.457  1.00  0.00     0.136 C 
HETATM   13  C17 UNL     1      44.119  31.264  30.316  1.00  0.00     0.034 C 
HETATM   14  C18 UNL     1      43.022  30.302  30.707  1.00  0.00     0.016 C 
HETATM   15  C19 UNL     1      41.686  30.988  30.889  1.00  0.00    -0.001 C 
HETATM   16  C20 UNL     1      41.043  31.334  29.595  1.00  0.00     0.019 C 
ENDROOT
BRANCH  12  17
HETATM   17  O2  UNL     1      45.411  33.037  31.354  1.00  0.00    -0.315 OA
BRANCH  17  18
HETATM   18  C14 UNL     1      46.386  33.122  32.337  1.00  0.00     0.269 C 
HETATM   19  O3  UNL     1      46.692  32.089  32.948  1.00  0.00    -0.265 OA
BRANCH  18  20
HETATM   20  C15 UNL     1      46.988  34.460  32.573  1.00  0.00     0.224 C 
BRANCH  20  21
HETATM   21  C16 UNL     1      47.920  34.858  31.481  1.00  0.00     0.182 C 
HETATM   22  O4  UNL     1      47.669  35.750  30.643  1.00  0.00    -0.648 OA
HETATM   23  O5  UNL     1      49.126  34.173  31.427  1.00  0.00    -0.648 OA
ENDBRANCH  20  21
ENDBRANCH  18  20
ENDBRANCH  17  18
ENDBRANCH  12  17
BRANCH   1  24
HETATM   24  O1  UNL     1      40.972  28.742  31.372  1.00  0.00    -0.380 OA
HETATM   25  C1  UNL     1      42.213  28.198  31.316  1.00  0.00     0.203 C 
ENDBRANCH   1  24
TORSDOF 5
ENDMDL
MODEL 4
REMARK VINA RESULT: -6.657073812      1.281      1.862
REMARK  5 active torsions:
REMARK  status: ('A' for Active; 'I' for Inactive)
REMARK    1  A    between atoms: O1_2  and  C2_3 
REMARK    2  A    between atoms: C13_14  and  O2_15 
REMARK    3  A    between atoms: O2_15  and  C14_16 
REMARK    4  A    between atoms: C14_16  and  C15_18 
REMARK    5  A    between atoms: C15_18  and  C16_19 
ROOT
HETATM    1  C2  UNL     1      40.918  30.066  31.710  1.00  0.00     0.091 C 
HETATM    2  C3  UNL     1      39.487  30.526  31.715  1.00  0.00     0.043 C 
HETATM    3  C4  UNL     1      38.830  30.261  33.069  1.00  0.00     0.003 C 
HETATM    4  C5  UNL     1      38.805  28.822  33.436  1.00  0.00     0.000 C 
HETATM    5  C6  UNL     1      40.056  28.230  33.960  1.00  0.00     0.004 C 
HETATM    6  C7  UNL     1      41.202  29.156  34.179  1.00  0.00     0.037 C 
HETATM    7  C8  UNL     1      41.349  30.196  33.160  1.00  0.00    -0.048 C 
HETATM    8  C9  UNL     1      41.870  31.394  33.376  1.00  0.00    -0.015 C 
HETATM    9  C10 UNL     1      41.841  32.180  32.104  1.00  0.00     0.026 C 
HETATM   10  C11 UNL     1      43.004  33.133  32.001  1.00  0.00     0.019 C 
HETATM   11  C12 UNL     1      42.848  34.198  33.058  1.00  0.00     0.013 C 
HETATM   12  C13 UNL     1      44.265  32.337  32.166  1.00  0.00     0.136 C 
HETATM   13  C17 UNL     1      44.362  31.415  30.959  1.00  0.00     0.034 C 
HETATM   14  C18 UNL     1      43.236  30.416  31.092  1.00  0.00     0.016 C 
HETATM   15  C19 UNL     1      41.874  31.072  31.085  1.00  0.00    -0.001 C 
HETATM   16  C20 UNL     1      41.454  31.498  29.724  1.00  0.00     0.019 C 
ENDROOT
BRANCH  12  17
HETATM   17  O2  UNL     1      45.416  33.129  32.316  1.00  0.00    -0.315 OA
BRANCH  17  18
HETATM   18  C14 UNL     1      45.796  34.136  31.442  1.00  0.00     0.269 C 
HETATM   19  O3  UNL     1      45.539  35.307  31.754  1.00  0.00    -0.265 OA
BRANCH  18  20
HETATM   20  C15 UNL     1      46.487  33.720  30.195  1.00  0.00     0.224 C 
BRANCH  20  21
HETATM   21  C16 UNL     1      47.826  34.358  30.055  1.00  0.00     0.182 C 
HETATM   22  O4  UNL     1      48.183  35.012  29.052  1.00  0.00    -0.648 OA
HETATM   23  O5  UNL     1      48.697  34.194  31.123  1.00  0.00    -0.648 OA
ENDBRANCH  20  21
ENDBRANCH  18  20
ENDBRANCH  17  18
ENDBRANCH  12  17
BRANCH   1  24
HETATM   24  O1  UNL     1      41.139  28.791  31.292  1.00  0.00    -0.380 OA
HETATM   25  C1  UNL     1      42.395  28.283  31.371  1.00  0.00     0.203 C 
ENDBRANCH   1  24
TORSDOF 5
ENDMDL
MODEL 5
REMARK VINA RESULT: -6.475635128      2.274      7.025
REMARK  5 active torsions:
REMARK  status: ('A' for Active; 'I' for Inactive)
REMARK    1  A    between atoms: O1_2  and  C2_3 
REMARK    2  A    between atoms: C13_14  and  O2_15 
REMARK    3  A    between atoms: O2_15  and  C14_16 
REMARK    4  A    between atoms: C14_16  and  C15_18 
REMARK    5  A    between atoms: C15_18  and  C16_19 
ROOT
HETATM    1  C2  UNL     1      43.997  32.478  30.951  1.00  0.00     0.091 C 
HETATM    2  C3  UNL     1      45.321  32.012  31.488  1.00  0.00     0.043 C 
HETATM    3  C4  UNL     1      45.903  33.026  32.470  1.00  0.00     0.003 C 
HETATM    4  C5  UNL     1      46.149  34.358  31.860  1.00  0.00     0.000 C 
HETATM    5  C6  UNL     1      44.982  35.249  31.675  1.00  0.00     0.004 C 
HETATM    6  C7  UNL     1      43.678  34.778  32.220  1.00  0.00     0.037 C 
HETATM    7  C8  UNL     1      43.435  33.344  32.064  1.00  0.00    -0.048 C 
HETATM    8  C9  UNL     1      42.697  32.611  32.885  1.00  0.00    -0.015 C 
HETATM    9  C10 UNL     1      42.692  31.194  32.408  1.00  0.00     0.026 C 
HETATM   10  C11 UNL     1      41.392  30.497  32.721  1.00  0.00     0.019 C 
HETATM   11  C12 UNL     1      41.274  30.348  34.217  1.00  0.00     0.013 C 
HETATM   12  C13 UNL     1      40.280  31.315  32.134  1.00  0.00     0.136 C 
HETATM   13  C17 UNL     1      40.442  31.253  30.622  1.00  0.00     0.034 C 
HETATM   14  C18 UNL     1      41.710  32.007  30.296  1.00  0.00     0.016 C 
HETATM   15  C19 UNL     1      42.934  31.389  30.934  1.00  0.00    -0.001 C 
HETATM   16  C20 UNL     1      43.381  30.157  30.233  1.00  0.00     0.019 C 
ENDROOT
BRANCH  12  17
HETATM   17  O2  UNL     1      39.000  30.902  32.542  1.00  0.00    -0.315 OA
BRANCH  17  18
HETATM   18  C14 UNL     1      38.506  29.615  32.396  1.00  0.00     0.269 C 
HETATM   19  O3  UNL     1      38.271  29.205  31.251  1.00  0.00    -0.265 OA
BRANCH  18  20
HETATM   20  C15 UNL     1      38.301  28.829  33.639  1.00  0.00     0.224 C 
BRANCH  20  21
HETATM   21  C16 UNL     1      39.374  27.816  33.848  1.00  0.00     0.182 C 
HETATM   22  O4  UNL     1      40.104  27.378  32.935  1.00  0.00    -0.648 OA
HETATM   23  O5  UNL     1      39.539  27.360  35.149  1.00  0.00    -0.648 OA
ENDBRANCH  20  21
ENDBRANCH  18  20
ENDBRANCH  17  18
ENDBRANCH  12  17
BRANCH   1  24
HETATM   24  O1  UNL     1      44.035  33.202  29.800  1.00  0.00    -0.380 OA
HETATM   25  C1  UNL     1      45.034  32.969  28.912  1.00  0.00     0.203 C 
ENDBRANCH   1  24
TORSDOF 5
ENDMDL
