MODEL 1
REMARK VINA RESULT: -8.081957180      0.000      0.000
REMARK  7 active torsions:
REMARK  status: ('A' for Active; 'I' for Inactive)
REMARK    1  A    between atoms: C2_2  and  C5_5 
REMARK    2  A    between atoms: C5_5  and  C6_6 
REMARK       I    between atoms: C6_6  and  N1_8 
REMARK    3  A    between atoms: C20_24  and  O2_25 
REMARK    4  A    between atoms: C23_29  and  C24_30 
REMARK    5  A    between atoms: C24_30  and  C25_31 
REMARK    6  A    between atoms: C25_31  and  C26_33 
REMARK    7  A    between atoms: C26_33  and  C27_34 
ROOT
HETATM    1  C6  UNL     1      42.305  32.588  31.447  1.00  0.00     0.243 C 
HETATM    2  O1  UNL     1      41.885  33.574  32.146  1.00  0.00    -0.271 OA
HETATM    3  N1  UNL     1      43.624  32.689  30.963  1.00  0.00    -0.222 N 
HETATM    4  N2  UNL     1      44.509  31.926  30.199  1.00  0.00    -0.292 N 
ATOM      5  H2  UNL     1      44.400  31.012  29.758  1.00  0.00     0.187 HD
HETATM    6  C7  UNL     1      45.512  32.746  30.227  1.00  0.00     0.059 A 
HETATM    7  C8  UNL     1      44.699  33.631  31.028  1.00  0.00     0.080 A 
HETATM    8  C9  UNL     1      45.123  34.777  31.454  1.00  0.00     0.008 C 
HETATM    9  C10 UNL     1      46.475  35.253  31.171  1.00  0.00     0.040 C 
HETATM   10  C11 UNL     1      47.127  34.611  29.994  1.00  0.00    -0.027 C 
HETATM   11  C12 UNL     1      46.393  35.279  28.786  1.00  0.00     0.016 C 
HETATM   12  C13 UNL     1      46.892  33.156  29.876  1.00  0.00     0.048 C 
HETATM   13  C14 UNL     1      47.865  32.363  30.677  1.00  0.00     0.012 C 
HETATM   14  C15 UNL     1      49.324  32.676  30.316  1.00  0.00     0.011 C 
HETATM   15  C16 UNL     1      49.561  34.107  30.575  1.00  0.00    -0.035 C 
HETATM   16  C17 UNL     1      49.493  34.313  32.086  1.00  0.00     0.016 C 
HETATM   17  C18 UNL     1      48.564  35.001  29.828  1.00  0.00     0.005 C 
HETATM   18  C19 UNL     1      48.935  35.065  28.391  1.00  0.00     0.038 C 
HETATM   19  C20 UNL     1      50.344  35.635  28.121  1.00  0.00     0.127 C 
HETATM   20  C21 UNL     1      51.280  34.728  28.810  1.00  0.00    -0.010 C 
HETATM   21  C22 UNL     1      51.501  33.474  28.065  1.00  0.00     0.018 C 
HETATM   22  C23 UNL     1      52.584  35.181  29.395  1.00  0.00     0.004 C 
HETATM   23  C28 UNL     1      52.174  34.365  30.615  1.00  0.00     0.012 C 
HETATM   24  C29 UNL     1      50.836  34.730  30.218  1.00  0.00     0.005 C 
ENDROOT
BRANCH   1  25
HETATM   25  C5  UNL     1      41.450  31.420  31.171  1.00  0.00     0.113 C 
BRANCH  25  26
HETATM   26  C2  UNL     1      41.694  30.358  32.240  1.00  0.00    -0.043 C 
HETATM   27  C1  UNL     1      42.592  30.899  33.314  1.00  0.00     0.015 C 
HETATM   28  C3  UNL     1      40.338  30.073  32.883  1.00  0.00     0.015 C 
HETATM   29  C4  UNL     1      42.295  29.120  31.665  1.00  0.00     0.015 C 
ENDBRANCH  25  26
ENDBRANCH   1  25
BRANCH  19  30
HETATM   30  O2  UNL     1      50.518  35.481  26.737  1.00  0.00    -0.395 OA
ATOM     31  H2  UNL     1      51.399  35.135  26.649  1.00  0.00     0.210 HD
ENDBRANCH  19  30
BRANCH  22  32
HETATM   32  C24 UNL     1      52.811  36.620  29.569  1.00  0.00     0.084 C 
BRANCH  32  33
HETATM   33  C25 UNL     1      54.174  36.978  30.035  1.00  0.00     0.135 C 
HETATM   34  O3  UNL     1      55.084  37.220  29.249  1.00  0.00    -0.298 OA
BRANCH  33  35
HETATM   35  C26 UNL     1      54.493  37.058  31.480  1.00  0.00     0.177 C 
BRANCH  35  36
HETATM   36  C27 UNL     1      54.846  38.474  31.852  1.00  0.00     0.238 C 
HETATM   37  N3  UNL     1      53.819  39.436  31.819  1.00  0.00    -0.062 NA
HETATM   38  O4  UNL     1      56.037  38.719  32.172  1.00  0.00    -0.276 OA
ENDBRANCH  35  36
ENDBRANCH  33  35
ENDBRANCH  32  33
ENDBRANCH  22  32
TORSDOF 7
ENDMDL
MODEL 2
REMARK VINA RESULT: -7.992774835      1.459      1.517
REMARK  7 active torsions:
REMARK  status: ('A' for Active; 'I' for Inactive)
REMARK    1  A    between atoms: C2_2  and  C5_5 
REMARK    2  A    between atoms: C5_5  and  C6_6 
REMARK       I    between atoms: C6_6  and  N1_8 
REMARK    3  A    between atoms: C20_24  and  O2_25 
REMARK    4  A    between atoms: C23_29  and  C24_30 
REMARK    5  A    between atoms: C24_30  and  C25_31 
REMARK    6  A    between atoms: C25_31  and  C26_33 
REMARK    7  A    between atoms: C26_33  and  C27_34 
ROOT
HETATM    1  C6  UNL     1      42.396  32.831  31.470  1.00  0.00     0.243 C 
HETATM    2  O1  UNL     1      42.097  33.821  32.224  1.00  0.00    -0.271 OA
HETATM    3  N1  UNL     1      43.704  32.821  30.949  1.00  0.00    -0.222 N 
HETATM    4  N2  UNL     1      44.486  32.010  30.126  1.00  0.00    -0.292 N 
ATOM      5  H2  UNL     1      44.273  31.133  29.649  1.00  0.00     0.187 HD
HETATM    6  C7  UNL     1      45.568  32.722  30.157  1.00  0.00     0.059 A 
HETATM    7  C8  UNL     1      44.871  33.647  31.022  1.00  0.00     0.080 A 
HETATM    8  C9  UNL     1      45.422  34.723  31.484  1.00  0.00     0.008 C 
HETATM    9  C10 UNL     1      46.807  35.074  31.179  1.00  0.00     0.040 C 
HETATM   10  C11 UNL     1      47.358  34.424  29.955  1.00  0.00    -0.027 C 
HETATM   11  C12 UNL     1      46.663  35.219  28.801  1.00  0.00     0.016 C 
HETATM   12  C13 UNL     1      46.972  33.007  29.782  1.00  0.00     0.048 C 
HETATM   13  C14 UNL     1      47.881  32.084  30.516  1.00  0.00     0.012 C 
HETATM   14  C15 UNL     1      49.354  32.266  30.123  1.00  0.00     0.011 C 
HETATM   15  C16 UNL     1      49.742  33.652  30.436  1.00  0.00    -0.035 C 
HETATM   16  C17 UNL     1      49.736  33.793  31.956  1.00  0.00     0.016 C 
HETATM   17  C18 UNL     1      48.821  34.675  29.761  1.00  0.00     0.005 C 
HETATM   18  C19 UNL     1      49.158  34.769  28.317  1.00  0.00     0.038 C 
HETATM   19  C20 UNL     1      50.610  35.206  28.027  1.00  0.00     0.127 C 
HETATM   20  C21 UNL     1      51.467  34.178  28.646  1.00  0.00    -0.010 C 
HETATM   21  C22 UNL     1      51.540  32.944  27.841  1.00  0.00     0.018 C 
HETATM   22  C23 UNL     1      52.826  34.470  29.209  1.00  0.00     0.004 C 
HETATM   23  C28 UNL     1      52.368  33.644  30.405  1.00  0.00     0.012 C 
HETATM   24  C29 UNL     1      51.064  34.160  30.067  1.00  0.00     0.005 C 
ENDROOT
BRANCH   1  25
HETATM   25  C5  UNL     1      41.419  31.769  31.171  1.00  0.00     0.113 C 
BRANCH  25  26
HETATM   26  C2  UNL     1      41.629  30.608  32.140  1.00  0.00    -0.043 C 
HETATM   27  C1  UNL     1      42.526  31.030  33.267  1.00  0.00     0.015 C 
HETATM   28  C3  UNL     1      40.261  30.293  32.741  1.00  0.00     0.015 C 
HETATM   29  C4  UNL     1      42.213  29.416  31.459  1.00  0.00     0.015 C 
ENDBRANCH  25  26
ENDBRANCH   1  25
BRANCH  19  30
HETATM   30  O2  UNL     1      50.731  35.100  26.633  1.00  0.00    -0.395 OA
ATOM     31  H2  UNL     1      50.642  35.993  26.323  1.00  0.00     0.210 HD
ENDBRANCH  19  30
BRANCH  22  32
HETATM   32  C24 UNL     1      53.203  35.870  29.438  1.00  0.00     0.084 C 
BRANCH  32  33
HETATM   33  C25 UNL     1      54.564  36.227  28.969  1.00  0.00     0.135 C 
HETATM   34  O3  UNL     1      54.832  37.349  28.550  1.00  0.00    -0.298 OA
BRANCH  33  35
HETATM   35  C26 UNL     1      55.665  35.235  28.986  1.00  0.00     0.177 C 
BRANCH  35  36
HETATM   36  C27 UNL     1      56.159  35.038  30.396  1.00  0.00     0.238 C 
HETATM   37  N3  UNL     1      56.249  33.719  30.879  1.00  0.00    -0.062 NA
HETATM   38  O4  UNL     1      56.461  36.060  31.062  1.00  0.00    -0.276 OA
ENDBRANCH  35  36
ENDBRANCH  33  35
ENDBRANCH  32  33
ENDBRANCH  22  32
TORSDOF 7
ENDMDL
MODEL 3
REMARK VINA RESULT: -7.892850314      1.484      1.986
REMARK  7 active torsions:
REMARK  status: ('A' for Active; 'I' for Inactive)
REMARK    1  A    between atoms: C2_2  and  C5_5 
REMARK    2  A    between atoms: C5_5  and  C6_6 
REMARK       I    between atoms: C6_6  and  N1_8 
REMARK    3  A    between atoms: C20_24  and  O2_25 
REMARK    4  A    between atoms: C23_29  and  C24_30 
REMARK    5  A    between atoms: C24_30  and  C25_31 
REMARK    6  A    between atoms: C25_31  and  C26_33 
REMARK    7  A    between atoms: C26_33  and  C27_34 
ROOT
HETATM    1  C6  UNL     1      42.308  32.622  31.476  1.00  0.00     0.243 C 
HETATM    2  O1  UNL     1      41.912  33.607  32.191  1.00  0.00    -0.271 OA
HETATM    3  N1  UNL     1      43.624  32.707  30.980  1.00  0.00    -0.222 N 
HETATM    4  N2  UNL     1      44.488  31.938  30.198  1.00  0.00    -0.292 N 
ATOM      5  H2  UNL     1      44.359  31.032  29.748  1.00  0.00     0.187 HD
HETATM    6  C7  UNL     1      45.505  32.741  30.225  1.00  0.00     0.059 A 
HETATM    7  C8  UNL     1      44.715  33.630  31.045  1.00  0.00     0.080 A 
HETATM    8  C9  UNL     1      45.163  34.764  31.480  1.00  0.00     0.008 C 
HETATM    9  C10 UNL     1      46.520  35.220  31.189  1.00  0.00     0.040 C 
HETATM   10  C11 UNL     1      47.149  34.581  29.997  1.00  0.00    -0.027 C 
HETATM   11  C12 UNL     1      46.414  35.276  28.805  1.00  0.00     0.016 C 
HETATM   12  C13 UNL     1      46.888  33.132  29.865  1.00  0.00     0.048 C 
HETATM   13  C14 UNL     1      47.855  32.313  30.647  1.00  0.00     0.012 C 
HETATM   14  C15 UNL     1      49.316  32.606  30.274  1.00  0.00     0.011 C 
HETATM   15  C16 UNL     1      49.580  34.029  30.548  1.00  0.00    -0.035 C 
HETATM   16  C17 UNL     1      49.530  34.218  32.061  1.00  0.00     0.016 C 
HETATM   17  C18 UNL     1      48.590  34.949  29.821  1.00  0.00     0.005 C 
HETATM   18  C19 UNL     1      48.948  35.024  28.381  1.00  0.00     0.038 C 
HETATM   19  C20 UNL     1      50.364  35.573  28.103  1.00  0.00     0.127 C 
HETATM   20  C21 UNL     1      51.291  34.642  28.772  1.00  0.00    -0.010 C 
HETATM   21  C22 UNL     1      51.484  33.393  28.010  1.00  0.00     0.018 C 
HETATM   22  C23 UNL     1      52.608  35.066  29.349  1.00  0.00     0.004 C 
HETATM   23  C28 UNL     1      52.197  34.243  30.563  1.00  0.00     0.012 C 
HETATM   24  C29 UNL     1      50.862  34.636  30.185  1.00  0.00     0.005 C 
ENDROOT
BRANCH   1  25
HETATM   25  C5  UNL     1      41.431  31.472  31.196  1.00  0.00     0.113 C 
BRANCH  25  26
HETATM   26  C2  UNL     1      41.699  30.376  32.223  1.00  0.00    -0.043 C 
HETATM   27  C1  UNL     1      42.599  30.891  33.309  1.00  0.00     0.015 C 
HETATM   28  C3  UNL     1      40.353  30.048  32.867  1.00  0.00     0.015 C 
HETATM   29  C4  UNL     1      42.313  29.168  31.599  1.00  0.00     0.015 C 
ENDBRANCH  25  26
ENDBRANCH   1  25
BRANCH  19  30
HETATM   30  O2  UNL     1      50.521  35.433  26.716  1.00  0.00    -0.395 OA
ATOM     31  H2  UNL     1      49.656  35.193  26.406  1.00  0.00     0.210 HD
ENDBRANCH  19  30
BRANCH  22  32
HETATM   32  C24 UNL     1      52.861  36.499  29.537  1.00  0.00     0.084 C 
BRANCH  32  33
HETATM   33  C25 UNL     1      54.052  37.016  28.818  1.00  0.00     0.135 C 
HETATM   34  O3  UNL     1      55.183  36.602  29.056  1.00  0.00    -0.298 OA
BRANCH  33  35
HETATM   35  C26 UNL     1      53.924  38.061  27.776  1.00  0.00     0.177 C 
BRANCH  35  36
HETATM   36  C27 UNL     1      53.071  37.557  26.642  1.00  0.00     0.238 C 
HETATM   37  N3  UNL     1      53.501  36.402  25.962  1.00  0.00    -0.062 NA
HETATM   38  O4  UNL     1      52.023  38.194  26.365  1.00  0.00    -0.276 OA
ENDBRANCH  35  36
ENDBRANCH  33  35
ENDBRANCH  32  33
ENDBRANCH  22  32
TORSDOF 7
ENDMDL
MODEL 4
REMARK VINA RESULT: -7.854220226      9.550     17.558
REMARK  7 active torsions:
REMARK  status: ('A' for Active; 'I' for Inactive)
REMARK    1  A    between atoms: C2_2  and  C5_5 
REMARK    2  A    between atoms: C5_5  and  C6_6 
REMARK       I    between atoms: C6_6  and  N1_8 
REMARK    3  A    between atoms: C20_24  and  O2_25 
REMARK    4  A    between atoms: C23_29  and  C24_30 
REMARK    5  A    between atoms: C24_30  and  C25_31 
REMARK    6  A    between atoms: C25_31  and  C26_33 
REMARK    7  A    between atoms: C26_33  and  C27_34 
ROOT
HETATM    1  C6  UNL     1      39.394  30.399  33.960  1.00  0.00     0.243 C 
HETATM    2  O1  UNL     1      38.537  31.240  34.404  1.00  0.00    -0.271 OA
HETATM    3  N1  UNL     1      39.514  29.197  34.684  1.00  0.00    -0.222 N 
HETATM    4  N2  UNL     1      40.258  28.017  34.617  1.00  0.00    -0.292 N 
ATOM      5  H2  UNL     1      40.972  27.710  33.956  1.00  0.00     0.187 HD
HETATM    6  C7  UNL     1      39.754  27.436  35.660  1.00  0.00     0.059 A 
HETATM    7  C8  UNL     1      38.922  28.603  35.844  1.00  0.00     0.080 A 
HETATM    8  C9  UNL     1      38.079  28.715  36.819  1.00  0.00     0.008 C 
HETATM    9  C10 UNL     1      37.891  27.651  37.803  1.00  0.00     0.040 C 
HETATM   10  C11 UNL     1      39.032  26.697  37.912  1.00  0.00    -0.027 C 
HETATM   11  C12 UNL     1      40.106  27.532  38.683  1.00  0.00     0.016 C 
HETATM   12  C13 UNL     1      39.643  26.315  36.622  1.00  0.00     0.048 C 
HETATM   13  C14 UNL     1      38.930  25.177  35.978  1.00  0.00     0.012 C 
HETATM   14  C15 UNL     1      38.840  23.944  36.887  1.00  0.00     0.011 C 
HETATM   15  C16 UNL     1      38.106  24.327  38.105  1.00  0.00    -0.035 C 
HETATM   16  C17 UNL     1      36.661  24.602  37.697  1.00  0.00     0.016 C 
HETATM   17  C18 UNL     1      38.743  25.532  38.808  1.00  0.00     0.005 C 
HETATM   18  C19 UNL     1      39.968  25.097  39.526  1.00  0.00     0.038 C 
HETATM   19  C20 UNL     1      39.727  24.019  40.605  1.00  0.00     0.127 C 
HETATM   20  C21 UNL     1      39.160  22.860  39.892  1.00  0.00    -0.010 C 
HETATM   21  C22 UNL     1      40.187  22.088  39.165  1.00  0.00     0.018 C 
HETATM   22  C23 UNL     1      38.188  21.904  40.516  1.00  0.00     0.004 C 
HETATM   23  C28 UNL     1      37.404  22.054  39.217  1.00  0.00     0.012 C 
HETATM   24  C29 UNL     1      37.957  23.386  39.217  1.00  0.00     0.005 C 
ENDROOT
BRANCH   1  25
HETATM   25  C5  UNL     1      40.201  30.683  32.761  1.00  0.00     0.113 C 
BRANCH  25  26
HETATM   26  C2  UNL     1      41.474  31.416  33.176  1.00  0.00    -0.043 C 
HETATM   27  C1  UNL     1      42.566  30.430  33.473  1.00  0.00     0.015 C 
HETATM   28  C3  UNL     1      41.918  32.233  31.964  1.00  0.00     0.015 C 
HETATM   29  C4  UNL     1      41.250  32.286  34.367  1.00  0.00     0.015 C 
ENDBRANCH  25  26
ENDBRANCH   1  25
BRANCH  19  30
HETATM   30  O2  UNL     1      41.015  23.679  41.048  1.00  0.00    -0.395 OA
ATOM     31  H2  UNL     1      41.364  23.134  40.353  1.00  0.00     0.210 HD
ENDBRANCH  19  30
BRANCH  22  32
HETATM   32  C24 UNL     1      37.531  22.293  41.769  1.00  0.00     0.084 C 
BRANCH  32  33
HETATM   33  C25 UNL     1      36.197  21.680  41.983  1.00  0.00     0.135 C 
HETATM   34  O3  UNL     1      35.159  22.312  41.814  1.00  0.00    -0.298 OA
BRANCH  33  35
HETATM   35  C26 UNL     1      36.063  20.269  42.414  1.00  0.00     0.177 C 
BRANCH  35  36
HETATM   36  C27 UNL     1      35.611  20.209  43.850  1.00  0.00     0.238 C 
HETATM   37  N3  UNL     1      36.455  20.767  44.827  1.00  0.00    -0.062 NA
HETATM   38  O4  UNL     1      34.505  19.663  44.096  1.00  0.00    -0.276 OA
ENDBRANCH  35  36
ENDBRANCH  33  35
ENDBRANCH  32  33
ENDBRANCH  22  32
TORSDOF 7
ENDMDL
MODEL 5
REMARK VINA RESULT: -7.691677609      7.623     11.216
REMARK  7 active torsions:
REMARK  status: ('A' for Active; 'I' for Inactive)
REMARK    1  A    between atoms: C2_2  and  C5_5 
REMARK    2  A    between atoms: C5_5  and  C6_6 
REMARK       I    between atoms: C6_6  and  N1_8 
REMARK    3  A    between atoms: C20_24  and  O2_25 
REMARK    4  A    between atoms: C23_29  and  C24_30 
REMARK    5  A    between atoms: C24_30  and  C25_31 
REMARK    6  A    between atoms: C25_31  and  C26_33 
REMARK    7  A    between atoms: C26_33  and  C27_34 
ROOT
HETATM    1  C6  UNL     1      50.079  33.342  29.856  1.00  0.00     0.243 C 
HETATM    2  O1  UNL     1      50.871  33.374  28.851  1.00  0.00    -0.271 OA
HETATM    3  N1  UNL     1      49.844  32.072  30.419  1.00  0.00    -0.222 N 
HETATM    4  N2  UNL     1      49.107  31.525  31.470  1.00  0.00    -0.292 N 
ATOM      5  H2  UNL     1      48.492  31.961  32.158  1.00  0.00     0.187 HD
HETATM    6  C7  UNL     1      49.451  30.287  31.296  1.00  0.00     0.059 A 
HETATM    7  C8  UNL     1      50.259  30.723  30.180  1.00  0.00     0.080 A 
HETATM    8  C9  UNL     1      50.954  29.905  29.458  1.00  0.00     0.008 C 
HETATM    9  C10 UNL     1      50.989  28.470  29.734  1.00  0.00     0.040 C 
HETATM   10  C11 UNL     1      49.835  27.962  30.530  1.00  0.00    -0.027 C 
HETATM   11  C12 UNL     1      48.670  27.964  29.489  1.00  0.00     0.016 C 
HETATM   12  C13 UNL     1      49.413  28.846  31.637  1.00  0.00     0.048 C 
HETATM   13  C14 UNL     1      50.200  28.609  32.879  1.00  0.00     0.012 C 
HETATM   14  C15 UNL     1      50.147  27.146  33.343  1.00  0.00     0.011 C 
HETATM   15  C16 UNL     1      50.702  26.306  32.269  1.00  0.00    -0.035 C 
HETATM   16  C17 UNL     1      52.193  26.618  32.172  1.00  0.00     0.016 C 
HETATM   17  C18 UNL     1      49.982  26.527  30.933  1.00  0.00     0.005 C 
HETATM   18  C19 UNL     1      48.662  25.845  30.962  1.00  0.00     0.038 C 
HETATM   19  C20 UNL     1      48.737  24.320  31.189  1.00  0.00     0.127 C 
HETATM   20  C21 UNL     1      49.389  24.143  32.499  1.00  0.00    -0.010 C 
HETATM   21  C22 UNL     1      48.469  24.398  33.625  1.00  0.00     0.018 C 
HETATM   22  C23 UNL     1      50.253  22.965  32.836  1.00  0.00     0.004 C 
HETATM   23  C28 UNL     1      51.216  23.997  33.410  1.00  0.00     0.012 C 
HETATM   24  C29 UNL     1      50.681  24.846  32.374  1.00  0.00     0.005 C 
ENDROOT
BRANCH   1  25
HETATM   25  C5  UNL     1      49.455  34.567  30.384  1.00  0.00     0.113 C 
BRANCH  25  26
HETATM   26  C2  UNL     1      48.120  34.794  29.680  1.00  0.00    -0.043 C 
HETATM   27  C1  UNL     1      47.043  35.078  30.687  1.00  0.00     0.015 C 
HETATM   28  C3  UNL     1      48.287  36.050  28.828  1.00  0.00     0.015 C 
HETATM   29  C4  UNL     1      47.726  33.620  28.847  1.00  0.00     0.015 C 
ENDBRANCH  25  26
ENDBRANCH   1  25
BRANCH  19  30
HETATM   30  O2  UNL     1      47.396  23.923  31.305  1.00  0.00    -0.395 OA
ATOM     31  H2  UNL     1      47.437  23.097  31.772  1.00  0.00     0.210 HD
ENDBRANCH  19  30
BRANCH  22  32
HETATM   32  C24 UNL     1      50.726  22.109  31.742  1.00  0.00     0.084 C 
BRANCH  32  33
HETATM   33  C25 UNL     1      50.336  20.682  31.862  1.00  0.00     0.135 C 
HETATM   34  O3  UNL     1      51.064  19.776  31.470  1.00  0.00    -0.298 OA
BRANCH  33  35
HETATM   35  C26 UNL     1      49.040  20.291  32.465  1.00  0.00     0.177 C 
BRANCH  35  36
HETATM   36  C27 UNL     1      47.932  20.453  31.457  1.00  0.00     0.238 C 
HETATM   37  N3  UNL     1      46.804  21.203  31.838  1.00  0.00    -0.062 NA
HETATM   38  O4  UNL     1      48.077  19.911  30.332  1.00  0.00    -0.276 OA
ENDBRANCH  35  36
ENDBRANCH  33  35
ENDBRANCH  32  33
ENDBRANCH  22  32
TORSDOF 7
ENDMDL
