MODEL 1
REMARK VINA RESULT: -7.231533971      0.000      0.000
REMARK  7 active torsions:
REMARK  status: ('A' for Active; 'I' for Inactive)
REMARK    1  A    between atoms: C15_18  and  O2_19 
REMARK    2  A    between atoms: C16_21  and  O3_22 
REMARK    3  A    between atoms: C17_26  and  C18_27 
REMARK    4  A    between atoms: C18_27  and  O4_28 
REMARK    5  A    between atoms: C18_27  and  C22_33 
REMARK    6  A    between atoms: O4_28  and  C19_29 
REMARK    7  A    between atoms: C19_29  and  C20_31 
ROOT
HETATM    1  C1  UNL     1      49.998  26.790  32.157  1.00  0.00     0.015 C 
HETATM    2  C2  UNL     1      49.705  26.435  30.942  1.00  0.00    -0.080 C 
HETATM    3  C3  UNL     1      49.782  24.987  30.588  1.00  0.00     0.034 C 
HETATM    4  C4  UNL     1      48.375  24.603  30.184  1.00  0.00     0.004 C 
HETATM    5  C5  UNL     1      47.698  25.608  29.321  1.00  0.00     0.001 C 
HETATM    6  C6  UNL     1      47.819  27.053  29.784  1.00  0.00     0.014 C 
HETATM    7  C7  UNL     1      49.256  27.433  29.943  1.00  0.00    -0.013 C 
HETATM    8  C8  UNL     1      49.848  26.943  28.598  1.00  0.00     0.015 C 
HETATM    9  C9  UNL     1      51.237  27.363  28.777  1.00  0.00     0.010 C 
HETATM   10  C10 UNL     1      51.060  28.824  29.278  1.00  0.00    -0.038 C 
HETATM   11  C11 UNL     1      50.984  29.544  28.013  1.00  0.00     0.015 C 
HETATM   12  C12 UNL     1      52.299  29.034  30.091  1.00  0.00     0.018 C 
HETATM   13  C13 UNL     1      53.111  30.265  29.809  1.00  0.00     0.104 C 
HETATM   14  C14 UNL     1      53.550  30.786  31.154  1.00  0.00     0.223 C 
HETATM   15  O1  UNL     1      53.919  29.847  31.955  1.00  0.00    -0.273 OA
HETATM   16  N1  UNL     1      53.601  32.116  31.612  1.00  0.00    -0.304 N 
ATOM     17  H1  UNL     1      54.551  32.433  31.806  1.00  0.00     0.171 HD
HETATM   18  C15 UNL     1      52.642  33.092  31.859  1.00  0.00     0.194 C 
HETATM   19  C16 UNL     1      51.381  33.202  32.559  1.00  0.00     0.188 C 
HETATM   20  N2  UNL     1      50.180  32.495  32.539  1.00  0.00    -0.360 N 
ATOM     21  H2  UNL     1      49.920  32.096  33.441  1.00  0.00     0.162 HD
HETATM   22  C17 UNL     1      49.212  32.215  31.461  1.00  0.00     0.114 C 
HETATM   23  C25 UNL     1      49.760  31.144  30.645  1.00  0.00     0.037 C 
HETATM   24  C26 UNL     1      48.965  30.015  30.060  1.00  0.00    -0.033 A 
HETATM   25  C27 UNL     1      47.520  30.100  30.205  1.00  0.00     0.011 A 
HETATM   26  C28 UNL     1      48.083  30.230  28.884  1.00  0.00     0.011 A 
HETATM   27  C29 UNL     1      49.765  28.737  30.113  1.00  0.00     0.015 C 
ENDROOT
BRANCH  22  28
HETATM   28  C18 UNL     1      48.635  33.444  30.883  1.00  0.00     0.158 C 
BRANCH  28  29
HETATM   29  O4  UNL     1      49.227  33.542  29.591  1.00  0.00    -0.314 OA
BRANCH  29  30
HETATM   30  C19 UNL     1      50.214  34.418  29.230  1.00  0.00     0.258 C 
HETATM   31  O5  UNL     1      51.298  33.953  28.789  1.00  0.00    -0.265 OA
BRANCH  30  32
HETATM   32  C20 UNL     1      50.022  35.903  29.357  1.00  0.00     0.106 C 
HETATM   33  C21 UNL     1      49.016  36.406  28.360  1.00  0.00     0.015 C 
ENDBRANCH  30  32
ENDBRANCH  29  30
ENDBRANCH  28  29
BRANCH  28  34
HETATM   34  C22 UNL     1      47.196  33.658  30.711  1.00  0.00     0.009 C 
HETATM   35  C23 UNL     1      46.625  34.981  31.107  1.00  0.00     0.012 C 
HETATM   36  C24 UNL     1      46.935  33.564  29.194  1.00  0.00     0.012 C 
ENDBRANCH  28  34
ENDBRANCH  22  28
BRANCH  19  37
HETATM   37  O3  UNL     1      51.265  34.191  33.453  1.00  0.00    -0.343 OA
ATOM     38  H3  UNL     1      51.542  34.004  34.343  1.00  0.00     0.219 HD
ENDBRANCH  19  37
BRANCH  18  39
HETATM   39  O2  UNL     1      52.969  34.237  31.308  1.00  0.00    -0.343 OA
ATOM     40  H2  UNL     1      52.204  34.773  31.138  1.00  0.00     0.219 HD
ENDBRANCH  18  39
TORSDOF 7
ENDMDL
MODEL 2
REMARK VINA RESULT: -7.223135504      4.521      8.927
REMARK  7 active torsions:
REMARK  status: ('A' for Active; 'I' for Inactive)
REMARK    1  A    between atoms: C15_18  and  O2_19 
REMARK    2  A    between atoms: C16_21  and  O3_22 
REMARK    3  A    between atoms: C17_26  and  C18_27 
REMARK    4  A    between atoms: C18_27  and  O4_28 
REMARK    5  A    between atoms: C18_27  and  C22_33 
REMARK    6  A    between atoms: O4_28  and  C19_29 
REMARK    7  A    between atoms: C19_29  and  C20_31 
ROOT
HETATM    1  C1  UNL     1      47.719  30.126  30.362  1.00  0.00     0.015 C 
HETATM    2  C2  UNL     1      48.898  30.633  30.568  1.00  0.00    -0.080 C 
HETATM    3  C3  UNL     1      49.110  32.079  30.263  1.00  0.00     0.034 C 
HETATM    4  C4  UNL     1      49.491  32.710  31.585  1.00  0.00     0.004 C 
HETATM    5  C5  UNL     1      50.454  31.905  32.384  1.00  0.00     0.001 C 
HETATM    6  C6  UNL     1      50.130  30.421  32.495  1.00  0.00     0.014 C 
HETATM    7  C7  UNL     1      49.993  29.814  31.136  1.00  0.00    -0.013 C 
HETATM    8  C8  UNL     1      51.278  30.330  30.442  1.00  0.00     0.015 C 
HETATM    9  C9  UNL     1      51.125  29.688  29.138  1.00  0.00     0.010 C 
HETATM   10  C10 UNL     1      50.768  28.231  29.547  1.00  0.00    -0.038 C 
HETATM   11  C11 UNL     1      52.097  27.652  29.698  1.00  0.00     0.015 C 
HETATM   12  C12 UNL     1      49.965  27.759  28.375  1.00  0.00     0.018 C 
HETATM   13  C13 UNL     1      50.355  26.450  27.752  1.00  0.00     0.104 C 
HETATM   14  C14 UNL     1      49.062  25.745  27.431  1.00  0.00     0.223 C 
HETATM   15  O1  UNL     1      48.170  26.538  26.946  1.00  0.00    -0.273 OA
HETATM   16  N1  UNL     1      48.733  24.387  27.594  1.00  0.00    -0.304 N 
ATOM     17  H1  UNL     1      48.560  23.911  26.708  1.00  0.00     0.171 HD
HETATM   18  C15 UNL     1      48.592  23.549  28.695  1.00  0.00     0.194 C 
HETATM   19  C16 UNL     1      47.920  23.569  29.975  1.00  0.00     0.188 C 
HETATM   20  N2  UNL     1      47.885  24.450  31.055  1.00  0.00    -0.360 N 
ATOM     21  H2  UNL     1      46.951  24.798  31.275  1.00  0.00     0.162 HD
HETATM   22  C17 UNL     1      48.942  24.974  31.942  1.00  0.00     0.114 C 
HETATM   23  C25 UNL     1      49.645  26.019  31.217  1.00  0.00     0.037 C 
HETATM   24  C26 UNL     1      50.127  27.307  31.817  1.00  0.00    -0.033 A 
HETATM   25  C27 UNL     1      50.008  27.431  33.261  1.00  0.00     0.011 A 
HETATM   26  C28 UNL     1      51.329  27.339  32.691  1.00  0.00     0.011 A 
HETATM   27  C29 UNL     1      49.943  28.437  30.835  1.00  0.00     0.015 C 
ENDROOT
BRANCH  22  28
HETATM   28  C18 UNL     1      49.641  23.907  32.683  1.00  0.00     0.158 C 
BRANCH  28  29
HETATM   29  O4  UNL     1      48.683  22.858  32.786  1.00  0.00    -0.314 OA
BRANCH  29  30
HETATM   30  C19 UNL     1      48.030  22.484  33.929  1.00  0.00     0.258 C 
HETATM   31  O5  UNL     1      47.910  23.327  34.856  1.00  0.00    -0.265 OA
BRANCH  30  32
HETATM   32  C20 UNL     1      47.465  21.100  34.086  1.00  0.00     0.106 C 
HETATM   33  C21 UNL     1      48.552  20.100  34.365  1.00  0.00     0.015 C 
ENDBRANCH  30  32
ENDBRANCH  29  30
ENDBRANCH  28  29
BRANCH  28  34
HETATM   34  C22 UNL     1      50.895  23.299  32.233  1.00  0.00     0.009 C 
HETATM   35  C23 UNL     1      51.979  23.084  33.239  1.00  0.00     0.012 C 
HETATM   36  C24 UNL     1      50.526  21.878  31.756  1.00  0.00     0.012 C 
ENDBRANCH  28  34
ENDBRANCH  22  28
BRANCH  19  37
HETATM   37  O3  UNL     1      47.126  22.530  30.263  1.00  0.00    -0.343 OA
ATOM     38  H3  UNL     1      46.531  22.631  30.997  1.00  0.00     0.219 HD
ENDBRANCH  19  37
BRANCH  18  39
HETATM   39  O2  UNL     1      49.246  22.425  28.531  1.00  0.00    -0.343 OA
ATOM     40  H2  UNL     1      49.995  22.369  29.113  1.00  0.00     0.219 HD
ENDBRANCH  18  39
TORSDOF 7
ENDMDL
MODEL 3
REMARK VINA RESULT: -6.962729167      4.177      8.408
REMARK  7 active torsions:
REMARK  status: ('A' for Active; 'I' for Inactive)
REMARK    1  A    between atoms: C15_18  and  O2_19 
REMARK    2  A    between atoms: C16_21  and  O3_22 
REMARK    3  A    between atoms: C17_26  and  C18_27 
REMARK    4  A    between atoms: C18_27  and  O4_28 
REMARK    5  A    between atoms: C18_27  and  C22_33 
REMARK    6  A    between atoms: O4_28  and  C19_29 
REMARK    7  A    between atoms: C19_29  and  C20_31 
ROOT
HETATM    1  C1  UNL     1      47.928  30.323  30.188  1.00  0.00     0.015 C 
HETATM    2  C2  UNL     1      49.096  30.789  30.517  1.00  0.00    -0.080 C 
HETATM    3  C3  UNL     1      49.374  32.236  30.279  1.00  0.00     0.034 C 
HETATM    4  C4  UNL     1      49.648  32.817  31.650  1.00  0.00     0.004 C 
HETATM    5  C5  UNL     1      50.510  31.960  32.508  1.00  0.00     0.001 C 
HETATM    6  C6  UNL     1      50.138  30.484  32.541  1.00  0.00     0.014 C 
HETATM    7  C7  UNL     1      50.111  29.921  31.157  1.00  0.00    -0.013 C 
HETATM    8  C8  UNL     1      51.468  30.419  30.601  1.00  0.00     0.015 C 
HETATM    9  C9  UNL     1      51.419  29.821  29.267  1.00  0.00     0.010 C 
HETATM   10  C10 UNL     1      50.988  28.363  29.595  1.00  0.00    -0.038 C 
HETATM   11  C11 UNL     1      52.281  27.741  29.849  1.00  0.00     0.015 C 
HETATM   12  C12 UNL     1      50.284  27.951  28.340  1.00  0.00     0.018 C 
HETATM   13  C13 UNL     1      50.694  26.649  27.713  1.00  0.00     0.104 C 
HETATM   14  C14 UNL     1      49.418  25.993  27.253  1.00  0.00     0.223 C 
HETATM   15  O1  UNL     1      48.597  26.826  26.713  1.00  0.00    -0.273 OA
HETATM   16  N1  UNL     1      49.039  24.641  27.341  1.00  0.00    -0.304 N 
ATOM     17  H1  UNL     1      48.936  24.197  26.428  1.00  0.00     0.171 HD
HETATM   18  C15 UNL     1      48.774  23.776  28.397  1.00  0.00     0.194 C 
HETATM   19  C16 UNL     1      47.987  23.778  29.610  1.00  0.00     0.188 C 
HETATM   20  N2  UNL     1      47.876  24.627  30.710  1.00  0.00    -0.360 N 
ATOM     21  H2  UNL     1      46.936  24.996  30.854  1.00  0.00     0.162 HD
HETATM   22  C17 UNL     1      48.860  25.093  31.706  1.00  0.00     0.114 C 
HETATM   23  C25 UNL     1      49.655  26.138  31.083  1.00  0.00     0.037 C 
HETATM   24  C26 UNL     1      50.114  27.392  31.766  1.00  0.00    -0.033 A 
HETATM   25  C27 UNL     1      49.865  27.477  33.197  1.00  0.00     0.011 A 
HETATM   26  C28 UNL     1      51.230  27.363  32.748  1.00  0.00     0.011 A 
HETATM   27  C29 UNL     1      50.053  28.556  30.808  1.00  0.00     0.015 C 
ENDROOT
BRANCH  22  28
HETATM   28  C18 UNL     1      49.459  23.985  32.474  1.00  0.00     0.158 C 
BRANCH  28  29
HETATM   29  O4  UNL     1      50.842  24.316  32.559  1.00  0.00    -0.314 OA
BRANCH  29  30
HETATM   30  C19 UNL     1      51.747  23.751  33.416  1.00  0.00     0.258 C 
HETATM   31  O5  UNL     1      52.007  24.347  34.494  1.00  0.00    -0.265 OA
BRANCH  30  32
HETATM   32  C20 UNL     1      52.423  22.450  33.087  1.00  0.00     0.106 C 
HETATM   33  C21 UNL     1      52.577  22.280  31.601  1.00  0.00     0.015 C 
ENDBRANCH  30  32
ENDBRANCH  29  30
ENDBRANCH  28  29
BRANCH  28  34
HETATM   34  C22 UNL     1      49.027  23.609  33.822  1.00  0.00     0.009 C 
HETATM   35  C23 UNL     1      48.173  24.569  34.586  1.00  0.00     0.012 C 
HETATM   36  C24 UNL     1      48.138  22.360  33.646  1.00  0.00     0.012 C 
ENDBRANCH  28  34
ENDBRANCH  22  28
BRANCH  19  37
HETATM   37  O3  UNL     1      47.142  22.755  29.790  1.00  0.00    -0.343 OA
ATOM     38  H3  UNL     1      46.500  22.842  30.485  1.00  0.00     0.219 HD
ENDBRANCH  19  37
BRANCH  18  39
HETATM   39  O2  UNL     1      49.411  22.638  28.258  1.00  0.00    -0.343 OA
ATOM     40  H2  UNL     1      50.165  22.727  27.687  1.00  0.00     0.219 HD
ENDBRANCH  18  39
TORSDOF 7
ENDMDL
MODEL 4
REMARK VINA RESULT: -6.876885873      2.555      6.910
REMARK  7 active torsions:
REMARK  status: ('A' for Active; 'I' for Inactive)
REMARK    1  A    between atoms: C15_18  and  O2_19 
REMARK    2  A    between atoms: C16_21  and  O3_22 
REMARK    3  A    between atoms: C17_26  and  C18_27 
REMARK    4  A    between atoms: C18_27  and  O4_28 
REMARK    5  A    between atoms: C18_27  and  C22_33 
REMARK    6  A    between atoms: O4_28  and  C19_29 
REMARK    7  A    between atoms: C19_29  and  C20_31 
ROOT
HETATM    1  C1  UNL     1      50.923  35.236  26.304  1.00  0.00     0.015 C 
HETATM    2  C2  UNL     1      50.616  36.049  27.270  1.00  0.00    -0.080 C 
HETATM    3  C3  UNL     1      50.906  37.502  27.093  1.00  0.00     0.034 C 
HETATM    4  C4  UNL     1      49.557  38.187  27.166  1.00  0.00     0.004 C 
HETATM    5  C5  UNL     1      48.674  37.666  28.244  1.00  0.00     0.001 C 
HETATM    6  C6  UNL     1      48.586  36.150  28.342  1.00  0.00     0.014 C 
HETATM    7  C7  UNL     1      49.949  35.557  28.498  1.00  0.00    -0.013 C 
HETATM    8  C8  UNL     1      50.529  36.427  29.642  1.00  0.00     0.015 C 
HETATM    9  C9  UNL     1      51.839  35.796  29.788  1.00  0.00     0.010 C 
HETATM   10  C10 UNL     1      51.458  34.289  29.821  1.00  0.00    -0.038 C 
HETATM   11  C11 UNL     1      51.188  34.103  31.241  1.00  0.00     0.015 C 
HETATM   12  C12 UNL     1      52.695  33.637  29.287  1.00  0.00     0.018 C 
HETATM   13  C13 UNL     1      53.276  32.502  30.081  1.00  0.00     0.104 C 
HETATM   14  C14 UNL     1      53.707  31.471  29.071  1.00  0.00     0.223 C 
HETATM   15  O1  UNL     1      54.273  31.992  28.037  1.00  0.00    -0.273 OA
HETATM   16  N1  UNL     1      53.569  30.071  29.124  1.00  0.00    -0.304 N 
ATOM     17  H1  UNL     1      54.465  29.585  29.168  1.00  0.00     0.171 HD
HETATM   18  C15 UNL     1      52.482  29.204  29.130  1.00  0.00     0.194 C 
HETATM   19  C16 UNL     1      51.266  29.008  28.372  1.00  0.00     0.188 C 
HETATM   20  N2  UNL     1      50.197  29.820  27.998  1.00  0.00    -0.360 N 
ATOM     21  H2  UNL     1      50.062  29.888  26.989  1.00  0.00     0.162 HD
HETATM   22  C17 UNL     1      49.222  30.601  28.784  1.00  0.00     0.114 C 
HETATM   23  C25 UNL     1      49.886  31.816  29.225  1.00  0.00     0.037 C 
HETATM   24  C26 UNL     1      49.250  33.174  29.273  1.00  0.00    -0.033 A 
HETATM   25  C27 UNL     1      47.822  33.229  28.999  1.00  0.00     0.011 A 
HETATM   26  C28 UNL     1      48.273  33.524  30.337  1.00  0.00     0.011 A 
HETATM   27  C29 UNL     1      50.249  34.228  28.864  1.00  0.00     0.015 C 
ENDROOT
BRANCH  22  28
HETATM   28  C18 UNL     1      48.418  29.757  29.689  1.00  0.00     0.158 C 
BRANCH  28  29
HETATM   29  O4  UNL     1      48.921  30.048  30.990  1.00  0.00    -0.314 OA
BRANCH  29  30
HETATM   30  C19 UNL     1      49.746  29.241  31.725  1.00  0.00     0.258 C 
HETATM   31  O5  UNL     1      49.787  28.013  31.449  1.00  0.00    -0.265 OA
BRANCH  30  32
HETATM   32  C20 UNL     1      50.587  29.795  32.840  1.00  0.00     0.106 C 
HETATM   33  C21 UNL     1      50.502  31.295  32.888  1.00  0.00     0.015 C 
ENDBRANCH  30  32
ENDBRANCH  29  30
ENDBRANCH  28  29
BRANCH  28  34
HETATM   34  C22 UNL     1      46.957  29.825  29.772  1.00  0.00     0.009 C 
HETATM   35  C23 UNL     1      46.202  30.307  28.576  1.00  0.00     0.012 C 
HETATM   36  C24 UNL     1      46.479  28.371  29.968  1.00  0.00     0.012 C 
ENDBRANCH  28  34
ENDBRANCH  22  28
BRANCH  19  37
HETATM   37  O3  UNL     1      51.046  27.782  27.880  1.00  0.00    -0.343 OA
ATOM     38  H3  UNL     1      51.460  27.055  28.329  1.00  0.00     0.219 HD
ENDBRANCH  19  37
BRANCH  18  39
HETATM   39  O2  UNL     1      52.583  28.312  30.085  1.00  0.00    -0.343 OA
ATOM     40  H2  UNL     1      52.645  27.431  29.735  1.00  0.00     0.219 HD
ENDBRANCH  18  39
TORSDOF 7
ENDMDL
MODEL 5
REMARK VINA RESULT: -6.577610792      2.409      4.870
REMARK  7 active torsions:
REMARK  status: ('A' for Active; 'I' for Inactive)
REMARK    1  A    between atoms: C15_18  and  O2_19 
REMARK    2  A    between atoms: C16_21  and  O3_22 
REMARK    3  A    between atoms: C17_26  and  C18_27 
REMARK    4  A    between atoms: C18_27  and  O4_28 
REMARK    5  A    between atoms: C18_27  and  C22_33 
REMARK    6  A    between atoms: O4_28  and  C19_29 
REMARK    7  A    between atoms: C19_29  and  C20_31 
ROOT
HETATM    1  C1  UNL     1      47.241  30.107  28.847  1.00  0.00     0.015 C 
HETATM    2  C2  UNL     1      47.983  29.201  29.412  1.00  0.00    -0.080 C 
HETATM    3  C3  UNL     1      47.318  27.985  29.965  1.00  0.00     0.034 C 
HETATM    4  C4  UNL     1      47.900  26.826  29.185  1.00  0.00     0.004 C 
HETATM    5  C5  UNL     1      49.371  26.917  28.976  1.00  0.00     0.001 C 
HETATM    6  C6  UNL     1      49.882  28.274  28.512  1.00  0.00     0.014 C 
HETATM    7  C7  UNL     1      49.456  29.345  29.463  1.00  0.00    -0.013 C 
HETATM    8  C8  UNL     1      49.870  28.726  30.822  1.00  0.00     0.015 C 
HETATM    9  C9  UNL     1      49.472  29.813  31.715  1.00  0.00     0.010 C 
HETATM   10  C10 UNL     1      50.081  31.049  30.993  1.00  0.00    -0.038 C 
HETATM   11  C11 UNL     1      51.428  31.058  31.547  1.00  0.00     0.015 C 
HETATM   12  C12 UNL     1      49.171  32.153  31.433  1.00  0.00     0.018 C 
HETATM   13  C13 UNL     1      49.808  33.392  31.993  1.00  0.00     0.104 C 
HETATM   14  C14 UNL     1      49.022  34.549  31.432  1.00  0.00     0.223 C 
HETATM   15  O1  UNL     1      47.752  34.331  31.425  1.00  0.00    -0.273 OA
HETATM   16  N1  UNL     1      49.493  35.780  30.939  1.00  0.00    -0.304 N 
ATOM     17  H1  UNL     1      49.190  36.575  31.502  1.00  0.00     0.171 HD
HETATM   18  C15 UNL     1      50.280  36.152  29.855  1.00  0.00     0.194 C 
HETATM   19  C16 UNL     1      50.339  35.887  28.434  1.00  0.00     0.188 C 
HETATM   20  N2  UNL     1      50.380  34.737  27.648  1.00  0.00    -0.360 N 
ATOM     21  H2  UNL     1      49.607  34.662  26.986  1.00  0.00     0.162 HD
HETATM   22  C17 UNL     1      51.327  33.608  27.591  1.00  0.00     0.114 C 
HETATM   23  C25 UNL     1      51.035  32.732  28.713  1.00  0.00     0.037 C 
HETATM   24  C26 UNL     1      51.057  31.233  28.663  1.00  0.00    -0.033 A 
HETATM   25  C27 UNL     1      51.557  30.635  27.434  1.00  0.00     0.011 A 
HETATM   26  C28 UNL     1      52.343  30.488  28.634  1.00  0.00     0.011 A 
HETATM   27  C29 UNL     1      49.938  30.670  29.504  1.00  0.00     0.015 C 
ENDROOT
BRANCH  22  28
HETATM   28  C18 UNL     1      52.697  34.034  27.246  1.00  0.00     0.158 C 
BRANCH  28  29
HETATM   29  O4  UNL     1      53.479  33.675  28.382  1.00  0.00    -0.314 OA
BRANCH  29  30
HETATM   30  C19 UNL     1      53.717  34.471  29.469  1.00  0.00     0.258 C 
HETATM   31  O5  UNL     1      53.810  35.715  29.294  1.00  0.00    -0.265 OA
BRANCH  30  32
HETATM   32  C20 UNL     1      53.869  33.886  30.844  1.00  0.00     0.106 C 
HETATM   33  C21 UNL     1      54.689  32.627  30.810  1.00  0.00     0.015 C 
ENDBRANCH  30  32
ENDBRANCH  29  30
ENDBRANCH  28  29
BRANCH  28  34
HETATM   34  C22 UNL     1      53.418  33.557  26.064  1.00  0.00     0.009 C 
HETATM   35  C23 UNL     1      54.373  32.418  26.228  1.00  0.00     0.012 C 
HETATM   36  C24 UNL     1      52.339  33.018  25.101  1.00  0.00     0.012 C 
ENDBRANCH  28  34
ENDBRANCH  22  28
BRANCH  19  37
HETATM   37  O3  UNL     1      50.362  36.948  27.617  1.00  0.00    -0.343 OA
ATOM     38  H3  UNL     1      49.850  36.891  26.819  1.00  0.00     0.219 HD
ENDBRANCH  19  37
BRANCH  18  39
HETATM   39  O2  UNL     1      51.236  36.975  30.214  1.00  0.00    -0.343 OA
ATOM     40  H2  UNL     1      51.925  37.016  29.561  1.00  0.00     0.219 HD
ENDBRANCH  18  39
TORSDOF 7
ENDMDL
