MODEL 1
REMARK VINA RESULT: -6.799593143      0.000      0.000
REMARK  9 active torsions:
REMARK  status: ('A' for Active; 'I' for Inactive)
REMARK    1  A    between atoms: C2_2  and  C3_3 
REMARK    2  A    between atoms: C3_3  and  C4_4 
REMARK    3  A    between atoms: C4_4  and  C5_5 
REMARK    4  A    between atoms: C5_5  and  N1_6 
REMARK    5  A    between atoms: C8_9  and  O1_10 
REMARK    6  A    between atoms: C15_18  and  O2_19 
REMARK    7  A    between atoms: C27_32  and  O3_33 
REMARK    8  A    between atoms: C27_32  and  N2_35 
REMARK    9  A    between atoms: N2_35  and  C29_37 
ROOT
HETATM    1  C29 UNL     1      45.844  34.556  29.494  1.00  0.00     0.186 C 
HETATM    2  C30 UNL     1      45.287  35.045  30.798  1.00  0.00     0.105 C 
HETATM    3  N3  UNL     1      44.847  35.404  31.794  1.00  0.00    -0.191 NA
ENDROOT
BRANCH   1   4
HETATM    4  N2  UNL     1      46.105  33.180  29.627  1.00  0.00    -0.333 N 
HETATM    5  C28 UNL     1      44.884  32.407  30.107  1.00  0.00     0.158 C 
BRANCH   4   6
HETATM    6  C27 UNL     1      47.268  32.444  29.445  1.00  0.00     0.147 C 
HETATM    7  C2  UNL     1      48.516  32.349  30.123  1.00  0.00    -0.014 C 
HETATM    8  C1  UNL     1      48.650  33.421  31.234  1.00  0.00     0.052 C 
BRANCH   7   9
HETATM    9  C3  UNL     1      49.522  31.607  29.917  1.00  0.00    -0.002 C 
BRANCH   9  10
HETATM   10  C4  UNL     1      50.617  30.774  30.339  1.00  0.00     0.035 C 
HETATM   11  C8  UNL     1      51.097  30.634  31.725  1.00  0.00     0.132 C 
HETATM   12  C9  UNL     1      50.566  29.549  32.587  1.00  0.00     0.034 C 
HETATM   13  C10 UNL     1      49.808  28.451  31.986  1.00  0.00     0.012 C 
HETATM   14  C11 UNL     1      49.441  28.509  30.540  1.00  0.00    -0.035 C 
HETATM   15  C12 UNL     1      48.017  29.027  30.516  1.00  0.00     0.016 C 
HETATM   16  C13 UNL     1      49.335  27.113  29.959  1.00  0.00     0.001 C 
HETATM   17  C26 UNL     1      50.405  29.331  29.782  1.00  0.00     0.011 C 
HETATM   18  C14 UNL     1      48.014  26.756  29.366  1.00  0.00     0.038 C 
HETATM   19  C23 UNL     1      50.368  26.796  28.900  1.00  0.00    -0.004 C 
HETATM   20  C15 UNL     1      48.052  25.739  28.256  1.00  0.00     0.127 C 
HETATM   21  C16 UNL     1      49.076  24.685  28.479  1.00  0.00    -0.014 C 
HETATM   22  C17 UNL     1      48.554  23.767  29.584  1.00  0.00     0.018 C 
HETATM   23  C18 UNL     1      49.355  23.841  27.285  1.00  0.00     0.012 C 
HETATM   24  C22 UNL     1      50.402  25.286  28.804  1.00  0.00     0.004 C 
HETATM   25  C19 UNL     1      50.784  23.355  27.566  1.00  0.00     0.005 C 
HETATM   26  C20 UNL     1      51.428  24.706  27.921  1.00  0.00    -0.013 C 
HETATM   27  C21 UNL     1      51.729  25.390  26.648  1.00  0.00     0.010 C 
HETATM   28  C24 UNL     1      51.698  27.207  29.372  1.00  0.00     0.006 C 
HETATM   29  C25 UNL     1      51.716  28.720  29.534  1.00  0.00     0.007 C 
BRANCH  10  30
HETATM   30  C5  UNL     1      51.840  31.259  29.479  1.00  0.00     0.287 C 
BRANCH  30  31
HETATM   31  N1  UNL     1      51.683  32.486  28.810  1.00  0.00     0.081 N 
HETATM   32  C6  UNL     1      52.714  33.380  29.458  1.00  0.00     0.309 C 
HETATM   33  C7  UNL     1      51.976  32.618  27.433  1.00  0.00     0.309 C 
ENDBRANCH  30  31
ENDBRANCH  10  30
BRANCH  11  34
HETATM   34  O1  UNL     1      51.451  31.804  32.399  1.00  0.00    -0.394 OA
ATOM     35  H1  UNL     1      50.760  32.269  32.856  1.00  0.00     0.210 HD
ENDBRANCH  11  34
BRANCH  20  36
HETATM   36  O2  UNL     1      48.120  26.330  26.982  1.00  0.00    -0.395 OA
ATOM     37  H2  UNL     1      47.533  25.922  26.356  1.00  0.00     0.210 HD
ENDBRANCH  20  36
ENDBRANCH   9  10
ENDBRANCH   7   9
BRANCH   6  38
HETATM   38  O3  UNL     1      47.165  31.659  28.391  1.00  0.00    -0.346 OA
ATOM     39  H3  UNL     1      47.023  32.122  27.574  1.00  0.00     0.219 HD
ENDBRANCH   6  38
ENDBRANCH   4   6
ENDBRANCH   1   4
TORSDOF 9
ENDMDL
MODEL 2
REMARK VINA RESULT: -6.713083348      2.511      4.292
REMARK  9 active torsions:
REMARK  status: ('A' for Active; 'I' for Inactive)
REMARK    1  A    between atoms: C2_2  and  C3_3 
REMARK    2  A    between atoms: C3_3  and  C4_4 
REMARK    3  A    between atoms: C4_4  and  C5_5 
REMARK    4  A    between atoms: C5_5  and  N1_6 
REMARK    5  A    between atoms: C8_9  and  O1_10 
REMARK    6  A    between atoms: C15_18  and  O2_19 
REMARK    7  A    between atoms: C27_32  and  O3_33 
REMARK    8  A    between atoms: C27_32  and  N2_35 
REMARK    9  A    between atoms: N2_35  and  C29_37 
ROOT
HETATM    1  C29 UNL     1      50.223  37.202  27.713  1.00  0.00     0.186 C 
HETATM    2  C30 UNL     1      48.968  36.510  28.153  1.00  0.00     0.105 C 
HETATM    3  N3  UNL     1      48.019  35.964  28.491  1.00  0.00    -0.191 NA
ENDROOT
BRANCH   1   4
HETATM    4  N2  UNL     1      51.211  36.961  28.686  1.00  0.00    -0.333 N 
HETATM    5  C28 UNL     1      52.112  38.169  28.902  1.00  0.00     0.158 C 
BRANCH   4   6
HETATM    6  C27 UNL     1      51.516  35.824  29.422  1.00  0.00     0.147 C 
HETATM    7  C2  UNL     1      52.163  34.587  29.144  1.00  0.00    -0.014 C 
HETATM    8  C1  UNL     1      52.465  34.425  27.632  1.00  0.00     0.052 C 
BRANCH   7   9
HETATM    9  C3  UNL     1      52.448  33.608  29.895  1.00  0.00    -0.002 C 
BRANCH   9  10
HETATM   10  C4  UNL     1      52.293  32.806  31.080  1.00  0.00     0.035 C 
HETATM   11  C8  UNL     1      51.878  33.308  32.402  1.00  0.00     0.132 C 
HETATM   12  C9  UNL     1      50.443  33.293  32.783  1.00  0.00     0.034 C 
HETATM   13  C10 UNL     1      49.491  32.516  31.990  1.00  0.00     0.012 C 
HETATM   14  C11 UNL     1      49.937  31.873  30.718  1.00  0.00    -0.035 C 
HETATM   15  C12 UNL     1      49.515  32.832  29.623  1.00  0.00     0.016 C 
HETATM   16  C13 UNL     1      49.131  30.620  30.441  1.00  0.00     0.001 C 
HETATM   17  C26 UNL     1      51.384  31.580  30.752  1.00  0.00     0.011 C 
HETATM   18  C14 UNL     1      48.385  30.601  29.150  1.00  0.00     0.038 C 
HETATM   19  C23 UNL     1      49.934  29.338  30.478  1.00  0.00    -0.004 C 
HETATM   20  C15 UNL     1      48.153  29.239  28.551  1.00  0.00     0.127 C 
HETATM   21  C16 UNL     1      47.884  28.200  29.579  1.00  0.00    -0.014 C 
HETATM   22  C17 UNL     1      46.472  28.437  30.112  1.00  0.00     0.018 C 
HETATM   23  C18 UNL     1      47.947  26.803  29.067  1.00  0.00     0.012 C 
HETATM   24  C22 UNL     1      48.920  28.228  30.652  1.00  0.00     0.004 C 
HETATM   25  C19 UNL     1      48.285  26.012  30.339  1.00  0.00     0.005 C 
HETATM   26  C20 UNL     1      49.458  26.871  30.845  1.00  0.00    -0.013 C 
HETATM   27  C21 UNL     1      50.652  26.471  30.074  1.00  0.00     0.010 C 
HETATM   28  C24 UNL     1      50.774  29.320  31.683  1.00  0.00     0.006 C 
HETATM   29  C25 UNL     1      51.791  30.448  31.591  1.00  0.00     0.007 C 
BRANCH  10  30
HETATM   30  C5  UNL     1      53.690  32.110  31.275  1.00  0.00     0.287 C 
BRANCH  30  31
HETATM   31  N1  UNL     1      54.528  32.071  30.146  1.00  0.00     0.081 N 
HETATM   32  C6  UNL     1      55.823  32.665  30.644  1.00  0.00     0.309 C 
HETATM   33  C7  UNL     1      54.943  30.844  29.580  1.00  0.00     0.309 C 
ENDBRANCH  30  31
ENDBRANCH  10  30
BRANCH  11  34
HETATM   34  O1  UNL     1      52.624  34.353  32.952  1.00  0.00    -0.394 OA
ATOM     35  H1  UNL     1      52.481  34.553  33.869  1.00  0.00     0.210 HD
ENDBRANCH  11  34
BRANCH  20  36
HETATM   36  O2  UNL     1      49.149  28.876  27.628  1.00  0.00    -0.395 OA
ATOM     37  H2  UNL     1      48.838  28.259  26.976  1.00  0.00     0.210 HD
ENDBRANCH  20  36
ENDBRANCH   9  10
ENDBRANCH   7   9
BRANCH   6  38
HETATM   38  O3  UNL     1      51.097  35.946  30.667  1.00  0.00    -0.346 OA
ATOM     39  H3  UNL     1      50.588  36.730  30.831  1.00  0.00     0.219 HD
ENDBRANCH   6  38
ENDBRANCH   4   6
ENDBRANCH   1   4
TORSDOF 9
ENDMDL
MODEL 3
REMARK VINA RESULT: -6.656720524      1.433      1.746
REMARK  9 active torsions:
REMARK  status: ('A' for Active; 'I' for Inactive)
REMARK    1  A    between atoms: C2_2  and  C3_3 
REMARK    2  A    between atoms: C3_3  and  C4_4 
REMARK    3  A    between atoms: C4_4  and  C5_5 
REMARK    4  A    between atoms: C5_5  and  N1_6 
REMARK    5  A    between atoms: C8_9  and  O1_10 
REMARK    6  A    between atoms: C15_18  and  O2_19 
REMARK    7  A    between atoms: C27_32  and  O3_33 
REMARK    8  A    between atoms: C27_32  and  N2_35 
REMARK    9  A    between atoms: N2_35  and  C29_37 
ROOT
HETATM    1  C29 UNL     1      45.868  34.124  29.555  1.00  0.00     0.186 C 
HETATM    2  C30 UNL     1      45.366  34.927  30.718  1.00  0.00     0.105 C 
HETATM    3  N3  UNL     1      44.991  35.527  31.620  1.00  0.00    -0.191 NA
ENDROOT
BRANCH   1   4
HETATM    4  N2  UNL     1      47.257  33.963  29.711  1.00  0.00    -0.333 N 
HETATM    5  C28 UNL     1      48.048  34.987  28.908  1.00  0.00     0.158 C 
BRANCH   4   6
HETATM    6  C27 UNL     1      47.999  33.026  30.417  1.00  0.00     0.147 C 
HETATM    7  C2  UNL     1      48.280  31.639  30.260  1.00  0.00    -0.014 C 
HETATM    8  C1  UNL     1      47.445  31.009  29.118  1.00  0.00     0.052 C 
BRANCH   7   9
HETATM    9  C3  UNL     1      49.017  30.858  30.932  1.00  0.00    -0.002 C 
BRANCH   9  10
HETATM   10  C4  UNL     1      50.239  30.143  31.190  1.00  0.00     0.035 C 
HETATM   11  C8  UNL     1      50.707  29.702  32.516  1.00  0.00     0.132 C 
HETATM   12  C9  UNL     1      50.369  28.343  33.006  1.00  0.00     0.034 C 
HETATM   13  C10 UNL     1      49.844  27.345  32.073  1.00  0.00     0.012 C 
HETATM   14  C11 UNL     1      49.505  27.745  30.675  1.00  0.00    -0.035 C 
HETATM   15  C12 UNL     1      48.010  27.993  30.688  1.00  0.00     0.016 C 
HETATM   16  C13 UNL     1      49.676  26.575  29.728  1.00  0.00     0.001 C 
HETATM   17  C26 UNL     1      50.314  28.903  30.244  1.00  0.00     0.011 C 
HETATM   18  C14 UNL     1      48.458  26.176  28.963  1.00  0.00     0.038 C 
HETATM   19  C23 UNL     1      50.773  26.755  28.701  1.00  0.00    -0.004 C 
HETATM   20  C15 UNL     1      48.711  25.538  27.623  1.00  0.00     0.127 C 
HETATM   21  C16 UNL     1      49.909  24.658  27.624  1.00  0.00    -0.014 C 
HETATM   22  C17 UNL     1      49.544  23.389  28.393  1.00  0.00     0.018 C 
HETATM   23  C18 UNL     1      50.368  24.249  26.268  1.00  0.00     0.012 C 
HETATM   24  C22 UNL     1      51.091  25.364  28.198  1.00  0.00     0.004 C 
HETATM   25  C19 UNL     1      51.856  23.959  26.509  1.00  0.00     0.005 C 
HETATM   26  C20 UNL     1      52.227  25.245  27.268  1.00  0.00    -0.013 C 
HETATM   27  C21 UNL     1      52.422  26.303  26.257  1.00  0.00     0.010 C 
HETATM   28  C24 UNL     1      51.991  27.240  29.365  1.00  0.00     0.006 C 
HETATM   29  C25 UNL     1      51.722  28.624  29.936  1.00  0.00     0.007 C 
BRANCH  10  30
HETATM   30  C5  UNL     1      51.369  31.057  30.589  1.00  0.00     0.287 C 
BRANCH  30  31
HETATM   31  N1  UNL     1      52.029  31.906  31.494  1.00  0.00     0.081 N 
HETATM   32  C6  UNL     1      53.491  31.684  31.189  1.00  0.00     0.309 C 
HETATM   33  C7  UNL     1      51.902  33.312  31.412  1.00  0.00     0.309 C 
ENDBRANCH  30  31
ENDBRANCH  10  30
BRANCH  11  34
HETATM   34  O1  UNL     1      50.820  30.677  33.510  1.00  0.00    -0.394 OA
ATOM     35  H1  UNL     1      50.327  30.541  34.310  1.00  0.00     0.210 HD
ENDBRANCH  11  34
BRANCH  20  36
HETATM   36  O2  UNL     1      48.694  26.468  26.568  1.00  0.00    -0.395 OA
ATOM     37  H2  UNL     1      48.047  26.259  25.905  1.00  0.00     0.210 HD
ENDBRANCH  20  36
ENDBRANCH   9  10
ENDBRANCH   7   9
BRANCH   6  38
HETATM   38  O3  UNL     1      48.565  33.575  31.473  1.00  0.00    -0.346 OA
ATOM     39  H3  UNL     1      49.147  32.995  31.948  1.00  0.00     0.219 HD
ENDBRANCH   6  38
ENDBRANCH   4   6
ENDBRANCH   1   4
TORSDOF 9
ENDMDL
MODEL 4
REMARK VINA RESULT: -6.558522123      1.076      1.302
REMARK  9 active torsions:
REMARK  status: ('A' for Active; 'I' for Inactive)
REMARK    1  A    between atoms: C2_2  and  C3_3 
REMARK    2  A    between atoms: C3_3  and  C4_4 
REMARK    3  A    between atoms: C4_4  and  C5_5 
REMARK    4  A    between atoms: C5_5  and  N1_6 
REMARK    5  A    between atoms: C8_9  and  O1_10 
REMARK    6  A    between atoms: C15_18  and  O2_19 
REMARK    7  A    between atoms: C27_32  and  O3_33 
REMARK    8  A    between atoms: C27_32  and  N2_35 
REMARK    9  A    between atoms: N2_35  and  C29_37 
ROOT
HETATM    1  C29 UNL     1      46.526  34.697  29.030  1.00  0.00     0.186 C 
HETATM    2  C30 UNL     1      46.098  35.119  30.404  1.00  0.00     0.105 C 
HETATM    3  N3  UNL     1      45.783  35.425  31.463  1.00  0.00    -0.191 NA
ENDROOT
BRANCH   1   4
HETATM    4  N2  UNL     1      47.933  34.717  28.993  1.00  0.00    -0.333 N 
HETATM    5  C28 UNL     1      48.486  36.134  28.915  1.00  0.00     0.158 C 
BRANCH   4   6
HETATM    6  C27 UNL     1      48.865  33.689  28.969  1.00  0.00     0.147 C 
HETATM    7  C2  UNL     1      49.355  32.751  29.922  1.00  0.00    -0.014 C 
HETATM    8  C1  UNL     1      48.825  33.050  31.347  1.00  0.00     0.052 C 
BRANCH   7   9
HETATM    9  C3  UNL     1      50.184  31.800  29.804  1.00  0.00    -0.002 C 
BRANCH   9  10
HETATM   10  C4  UNL     1      51.116  30.833  30.320  1.00  0.00     0.035 C 
HETATM   11  C8  UNL     1      51.534  30.716  31.728  1.00  0.00     0.132 C 
HETATM   12  C9  UNL     1      50.810  29.796  32.641  1.00  0.00     0.034 C 
HETATM   13  C10 UNL     1      49.896  28.796  32.088  1.00  0.00     0.012 C 
HETATM   14  C11 UNL     1      49.579  28.809  30.629  1.00  0.00    -0.035 C 
HETATM   15  C12 UNL     1      48.261  29.549  30.520  1.00  0.00     0.016 C 
HETATM   16  C13 UNL     1      49.259  27.411  30.139  1.00  0.00     0.001 C 
HETATM   17  C26 UNL     1      50.683  29.407  29.853  1.00  0.00     0.011 C 
HETATM   18  C14 UNL     1      47.912  27.232  29.525  1.00  0.00     0.038 C 
HETATM   19  C23 UNL     1      50.251  26.856  29.140  1.00  0.00    -0.004 C 
HETATM   20  C15 UNL     1      47.808  26.147  28.486  1.00  0.00     0.127 C 
HETATM   21  C16 UNL     1      48.639  24.958  28.815  1.00  0.00    -0.014 C 
HETATM   22  C17 UNL     1      47.947  24.219  29.959  1.00  0.00     0.018 C 
HETATM   23  C18 UNL     1      48.805  23.998  27.690  1.00  0.00     0.012 C 
HETATM   24  C22 UNL     1      50.038  25.358  29.146  1.00  0.00     0.004 C 
HETATM   25  C19 UNL     1      50.126  23.306  28.053  1.00  0.00     0.005 C 
HETATM   26  C20 UNL     1      50.975  24.557  28.341  1.00  0.00    -0.013 C 
HETATM   27  C21 UNL     1      51.416  25.091  27.036  1.00  0.00     0.010 C 
HETATM   28  C24 UNL     1      51.618  27.078  29.630  1.00  0.00     0.006 C 
HETATM   29  C25 UNL     1      51.881  28.575  29.692  1.00  0.00     0.007 C 
BRANCH  10  30
HETATM   30  C5  UNL     1      52.423  31.050  29.473  1.00  0.00     0.287 C 
BRANCH  30  31
HETATM   31  N1  UNL     1      52.538  32.286  28.813  1.00  0.00     0.081 N 
HETATM   32  C6  UNL     1      53.762  32.912  29.438  1.00  0.00     0.309 C 
HETATM   33  C7  UNL     1      52.822  32.358  27.429  1.00  0.00     0.309 C 
ENDBRANCH  30  31
ENDBRANCH  10  30
BRANCH  11  34
HETATM   34  O1  UNL     1      52.059  31.858  32.336  1.00  0.00    -0.394 OA
ATOM     35  H1  UNL     1      52.116  32.645  31.807  1.00  0.00     0.210 HD
ENDBRANCH  11  34
BRANCH  20  36
HETATM   36  O2  UNL     1      48.003  26.626  27.179  1.00  0.00    -0.395 OA
ATOM     37  H2  UNL     1      47.209  26.981  26.796  1.00  0.00     0.210 HD
ENDBRANCH  20  36
ENDBRANCH   9  10
ENDBRANCH   7   9
BRANCH   6  38
HETATM   38  O3  UNL     1      49.407  33.575  27.773  1.00  0.00    -0.346 OA
ATOM     39  H3  UNL     1      49.980  32.825  27.675  1.00  0.00     0.219 HD
ENDBRANCH   6  38
ENDBRANCH   4   6
ENDBRANCH   1   4
TORSDOF 9
ENDMDL
MODEL 5
REMARK VINA RESULT: -6.505008482      2.655      4.300
REMARK  9 active torsions:
REMARK  status: ('A' for Active; 'I' for Inactive)
REMARK    1  A    between atoms: C2_2  and  C3_3 
REMARK    2  A    between atoms: C3_3  and  C4_4 
REMARK    3  A    between atoms: C4_4  and  C5_5 
REMARK    4  A    between atoms: C5_5  and  N1_6 
REMARK    5  A    between atoms: C8_9  and  O1_10 
REMARK    6  A    between atoms: C15_18  and  O2_19 
REMARK    7  A    between atoms: C27_32  and  O3_33 
REMARK    8  A    between atoms: C27_32  and  N2_35 
REMARK    9  A    between atoms: N2_35  and  C29_37 
ROOT
HETATM    1  C29 UNL     1      48.681  34.602  31.814  1.00  0.00     0.186 C 
HETATM    2  C30 UNL     1      47.276  34.700  31.298  1.00  0.00     0.105 C 
HETATM    3  N3  UNL     1      46.210  34.783  30.886  1.00  0.00    -0.191 NA
ENDROOT
BRANCH   1   4
HETATM    4  N2  UNL     1      49.434  33.875  30.873  1.00  0.00    -0.333 N 
HETATM    5  C28 UNL     1      50.529  34.722  30.237  1.00  0.00     0.158 C 
BRANCH   4   6
HETATM    6  C27 UNL     1      49.316  32.572  30.411  1.00  0.00     0.147 C 
HETATM    7  C2  UNL     1      49.478  31.280  30.988  1.00  0.00    -0.014 C 
HETATM    8  C1  UNL     1      50.061  31.361  32.421  1.00  0.00     0.052 C 
BRANCH   7   9
HETATM    9  C3  UNL     1      49.301  30.123  30.503  1.00  0.00    -0.002 C 
BRANCH   9  10
HETATM   10  C4  UNL     1      49.440  29.120  29.481  1.00  0.00     0.035 C 
HETATM   11  C8  UNL     1      50.407  29.161  28.370  1.00  0.00     0.132 C 
HETATM   12  C9  UNL     1      51.733  28.510  28.518  1.00  0.00     0.034 C 
HETATM   13  C10 UNL     1      51.966  27.583  29.626  1.00  0.00     0.012 C 
HETATM   14  C11 UNL     1      50.926  27.418  30.684  1.00  0.00    -0.035 C 
HETATM   15  C12 UNL     1      51.372  28.318  31.819  1.00  0.00     0.016 C 
HETATM   16  C13 UNL     1      50.982  26.024  31.276  1.00  0.00     0.001 C 
HETATM   17  C26 UNL     1      49.580  27.719  30.156  1.00  0.00     0.011 C 
HETATM   18  C14 UNL     1      51.219  25.953  32.747  1.00  0.00     0.038 C 
HETATM   19  C23 UNL     1      49.754  25.181  31.010  1.00  0.00    -0.004 C 
HETATM   20  C15 UNL     1      50.644  24.748  33.443  1.00  0.00     0.127 C 
HETATM   21  C16 UNL     1      50.728  23.515  32.616  1.00  0.00    -0.014 C 
HETATM   22  C17 UNL     1      52.191  23.071  32.605  1.00  0.00     0.018 C 
HETATM   23  C18 UNL     1      49.914  22.379  33.128  1.00  0.00     0.012 C 
HETATM   24  C22 UNL     1      50.184  23.749  31.248  1.00  0.00     0.004 C 
HETATM   25  C19 UNL     1      49.665  21.564  31.851  1.00  0.00     0.005 C 
HETATM   26  C20 UNL     1      49.196  22.705  30.932  1.00  0.00    -0.013 C 
HETATM   27  C21 UNL     1      47.776  22.960  31.249  1.00  0.00     0.010 C 
HETATM   28  C24 UNL     1      49.394  25.272  29.588  1.00  0.00     0.006 C 
HETATM   29  C25 UNL     1      48.994  26.705  29.273  1.00  0.00     0.007 C 
BRANCH  10  30
HETATM   30  C5  UNL     1      48.010  29.009  28.835  1.00  0.00     0.287 C 
BRANCH  30  31
HETATM   31  N1  UNL     1      46.949  29.560  29.576  1.00  0.00     0.081 N 
HETATM   32  C6  UNL     1      46.323  30.548  28.621  1.00  0.00     0.309 C 
HETATM   33  C7  UNL     1      45.846  28.773  29.980  1.00  0.00     0.309 C 
ENDBRANCH  30  31
ENDBRANCH  10  30
BRANCH  11  34
HETATM   34  O1  UNL     1      50.394  30.293  27.552  1.00  0.00    -0.394 OA
ATOM     35  H1  UNL     1      50.916  31.036  27.830  1.00  0.00     0.210 HD
ENDBRANCH  11  34
BRANCH  20  36
HETATM   36  O2  UNL     1      49.362  24.986  33.970  1.00  0.00    -0.395 OA
ATOM     37  H2  UNL     1      48.970  24.208  34.348  1.00  0.00     0.210 HD
ENDBRANCH  20  36
ENDBRANCH   9  10
ENDBRANCH   7   9
BRANCH   6  38
HETATM   38  O3  UNL     1      48.971  32.555  29.139  1.00  0.00    -0.346 OA
ATOM     39  H3  UNL     1      49.701  32.469  28.539  1.00  0.00     0.219 HD
ENDBRANCH   6  38
ENDBRANCH   4   6
ENDBRANCH   1   4
TORSDOF 9
ENDMDL
