MODEL 1
REMARK VINA RESULT: -7.329769649      0.000      0.000
REMARK  15 active torsions:
REMARK  status: ('A' for Active; 'I' for Inactive)
REMARK    1  A    between atoms: C2_2  and  C3_3 
REMARK    2  A    between atoms: N1_4  and  C4_5 
REMARK    3  A    between atoms: N1_4  and  C17_20 
REMARK    4  A    between atoms: C4_5  and  C5_6 
REMARK    5  A    between atoms: C17_20  and  C18_21 
REMARK    6  A    between atoms: C18_21  and  C20_23 
REMARK    7  A    between atoms: C18_21  and  N2_25 
REMARK    8  A    between atoms: N2_25  and  C22_26 
REMARK    9  A    between atoms: N2_25  and  S2_38 
REMARK   10  A    between atoms: C22_26  and  O3_27 
REMARK   11  A    between atoms: C22_26  and  N3_29 
REMARK   12  A    between atoms: N3_29  and  C23_30 
REMARK   13  A    between atoms: N3_29  and  S1_34 
REMARK   14  A    between atoms: C23_30  and  C24_31 
REMARK   15  A    between atoms: S2_38  and  C28_41 
ROOT
HETATM    1  C18 UNL     1      40.942  15.813  66.505  1.00  0.00     0.064 C 
HETATM    2  C19 UNL     1      40.115  14.637  66.901  1.00  0.00     0.041 C 
ENDROOT
BRANCH   1   3
HETATM    3  C17 UNL     1      42.358  15.472  66.782  1.00  0.00     0.154 C 
BRANCH   3   4
HETATM    4  N1  UNL     1      42.671  14.802  67.994  1.00  0.00    -0.387 N 
HETATM    5  C3  UNL     1      42.604  15.331  69.246  1.00  0.00     0.058 C 
BRANCH   5   6
HETATM    6  C2  UNL     1      43.946  15.830  69.826  1.00  0.00     0.040 C 
HETATM    7  C1  UNL     1      43.754  15.882  71.328  1.00  0.00     0.010 C 
ENDBRANCH   5   6
BRANCH   4   8
HETATM    8  C4  UNL     1      43.352  13.582  67.724  1.00  0.00     0.156 C 
BRANCH   8   9
HETATM    9  C5  UNL     1      42.969  12.402  68.525  1.00  0.00    -0.058 C 
HETATM   10  C6  UNL     1      43.719  12.063  69.601  1.00  0.00    -0.013 C 
HETATM   11  C7  UNL     1      43.312  10.889  70.372  1.00  0.00     0.058 C 
HETATM   12  C8  UNL     1      43.709  10.988  71.855  1.00  0.00     0.030 C 
HETATM   13  C11 UNL     1      41.806  11.056  70.673  1.00  0.00     0.129 C 
HETATM   14  C9  UNL     1      43.201  12.370  72.150  1.00  0.00     0.012 C 
HETATM   15  C12 UNL     1      42.719   9.989  72.404  1.00  0.00     0.059 C 
HETATM   16  C10 UNL     1      41.838  12.338  71.460  1.00  0.00     0.047 C 
HETATM   17  O1  UNL     1      41.621   9.980  71.509  1.00  0.00    -0.361 OA
HETATM   18  C13 UNL     1      42.283  10.254  73.805  1.00  0.00     0.046 C 
HETATM   19  C14 UNL     1      43.413   8.622  72.330  1.00  0.00     0.046 C 
HETATM   20  C15 UNL     1      41.080  11.085  69.442  1.00  0.00     0.166 C 
HETATM   21  O2  UNL     1      39.929  10.719  69.327  1.00  0.00    -0.294 OA
HETATM   22  C16 UNL     1      41.765  11.598  68.195  1.00  0.00     0.117 C 
ENDBRANCH   8   9
ENDBRANCH   4   8
ENDBRANCH   3   4
ENDBRANCH   1   3
BRANCH   1  23
HETATM   23  C20 UNL     1      40.907  15.436  64.888  1.00  0.00     0.029 C 
HETATM   24  C21 UNL     1      42.250  15.311  64.344  1.00  0.00     0.007 C 
ENDBRANCH   1  23
BRANCH   1  25
HETATM   25  N2  UNL     1      40.401  17.093  66.519  1.00  0.00    -0.224 N 
BRANCH  25  26
HETATM   26  C22 UNL     1      39.075  17.439  66.674  1.00  0.00     0.246 C 
BRANCH  26  27
HETATM   27  O3  UNL     1      38.577  17.561  65.394  1.00  0.00    -0.331 OA
ATOM     28  H3  UNL     1      37.712  17.942  65.495  1.00  0.00     0.221 HD
ENDBRANCH  26  27
BRANCH  26  29
HETATM   29  N3  UNL     1      38.012  17.722  67.507  1.00  0.00    -0.240 N 
BRANCH  29  30
HETATM   30  C23 UNL     1      37.685  16.761  68.645  1.00  0.00     0.149 C 
BRANCH  30  31
HETATM   31  C24 UNL     1      38.710  16.830  69.720  1.00  0.00    -0.003 C 
HETATM   32  C25 UNL     1      39.052  15.516  70.374  1.00  0.00     0.011 C 
HETATM   33  C26 UNL     1      38.264  17.752  70.856  1.00  0.00     0.011 C 
ENDBRANCH  30  31
ENDBRANCH  29  30
BRANCH  29  34
HETATM   34  S1  UNL     1      36.770  18.905  67.364  1.00  0.00     0.231 S 
HETATM   35  C27 UNL     1      35.437  18.650  68.533  1.00  0.00     0.186 C 
HETATM   36  O4  UNL     1      37.338  20.274  67.895  1.00  0.00    -0.206 OA
HETATM   37  O5  UNL     1      36.350  19.271  66.008  1.00  0.00    -0.206 OA
ENDBRANCH  29  34
ENDBRANCH  26  29
ENDBRANCH  25  26
BRANCH  25  38
HETATM   38  S2  UNL     1      41.370  18.559  66.400  1.00  0.00     0.270 S 
HETATM   39  O6  UNL     1      40.342  19.682  66.245  1.00  0.00    -0.200 OA
HETATM   40  O7  UNL     1      42.329  18.688  65.348  1.00  0.00    -0.200 OA
BRANCH  38  41
HETATM   41  C28 UNL     1      42.226  18.896  67.881  1.00  0.00     0.104 A 
HETATM   42  C29 UNL     1      41.691  18.985  69.147  1.00  0.00     0.052 A 
HETATM   43  C30 UNL     1      42.710  19.265  70.044  1.00  0.00     0.143 A 
HETATM   44  O8  UNL     1      43.777  19.332  69.318  1.00  0.00    -0.333 OA
HETATM   45  C31 UNL     1      43.567  19.126  68.046  1.00  0.00     0.166 A 
ENDBRANCH  38  41
ENDBRANCH  25  38
ENDBRANCH   1  25
TORSDOF 15
ENDMDL
MODEL 2
REMARK VINA RESULT: -6.956094593      1.929      3.417
REMARK  15 active torsions:
REMARK  status: ('A' for Active; 'I' for Inactive)
REMARK    1  A    between atoms: C2_2  and  C3_3 
REMARK    2  A    between atoms: N1_4  and  C4_5 
REMARK    3  A    between atoms: N1_4  and  C17_20 
REMARK    4  A    between atoms: C4_5  and  C5_6 
REMARK    5  A    between atoms: C17_20  and  C18_21 
REMARK    6  A    between atoms: C18_21  and  C20_23 
REMARK    7  A    between atoms: C18_21  and  N2_25 
REMARK    8  A    between atoms: N2_25  and  C22_26 
REMARK    9  A    between atoms: N2_25  and  S2_38 
REMARK   10  A    between atoms: C22_26  and  O3_27 
REMARK   11  A    between atoms: C22_26  and  N3_29 
REMARK   12  A    between atoms: N3_29  and  C23_30 
REMARK   13  A    between atoms: N3_29  and  S1_34 
REMARK   14  A    between atoms: C23_30  and  C24_31 
REMARK   15  A    between atoms: S2_38  and  C28_41 
ROOT
HETATM    1  C18 UNL     1      40.149  16.972  68.490  1.00  0.00     0.064 C 
HETATM    2  C19 UNL     1      40.141  16.422  69.877  1.00  0.00     0.041 C 
ENDROOT
BRANCH   1   3
HETATM    3  C17 UNL     1      41.429  16.566  67.862  1.00  0.00     0.154 C 
BRANCH   3   4
HETATM    4  N1  UNL     1      42.640  16.835  68.552  1.00  0.00    -0.387 N 
HETATM    5  C3  UNL     1      42.893  17.912  69.344  1.00  0.00     0.058 C 
BRANCH   5   6
HETATM    6  C2  UNL     1      43.674  19.063  68.669  1.00  0.00     0.040 C 
HETATM    7  C1  UNL     1      43.359  20.306  69.475  1.00  0.00     0.010 C 
ENDBRANCH   5   6
BRANCH   4   8
HETATM    8  C4  UNL     1      43.679  15.983  68.081  1.00  0.00     0.156 C 
BRANCH   8   9
HETATM    9  C5  UNL     1      43.586  14.550  68.426  1.00  0.00    -0.058 C 
HETATM   10  C6  UNL     1      43.713  14.174  69.722  1.00  0.00    -0.013 C 
HETATM   11  C7  UNL     1      43.616  12.748  70.029  1.00  0.00     0.058 C 
HETATM   12  C8  UNL     1      43.067  12.483  71.441  1.00  0.00     0.030 C 
HETATM   13  C11 UNL     1      42.335  12.231  69.338  1.00  0.00     0.129 C 
HETATM   14  C9  UNL     1      41.871  13.390  71.411  1.00  0.00     0.012 C 
HETATM   15  C12 UNL     1      42.596  11.065  71.220  1.00  0.00     0.059 C 
HETATM   16  C10 UNL     1      41.305  13.087  70.024  1.00  0.00     0.047 C 
HETATM   17  O1  UNL     1      42.309  10.949  69.837  1.00  0.00    -0.361 OA
HETATM   18  C13 UNL     1      41.432  10.661  72.059  1.00  0.00     0.046 C 
HETATM   19  C14 UNL     1      43.799  10.166  71.540  1.00  0.00     0.046 C 
HETATM   20  C15 UNL     1      42.461  12.399  67.925  1.00  0.00     0.166 C 
HETATM   21  O2  UNL     1      41.909  11.693  67.107  1.00  0.00    -0.294 OA
HETATM   22  C16 UNL     1      43.329  13.517  67.391  1.00  0.00     0.117 C 
ENDBRANCH   8   9
ENDBRANCH   4   8
ENDBRANCH   3   4
ENDBRANCH   1   3
BRANCH   1  23
HETATM   23  C20 UNL     1      39.182  15.766  67.885  1.00  0.00     0.029 C 
HETATM   24  C21 UNL     1      39.926  14.884  67.000  1.00  0.00     0.007 C 
ENDBRANCH   1  23
BRANCH   1  25
HETATM   25  N2  UNL     1      39.423  18.115  68.180  1.00  0.00    -0.224 N 
BRANCH  25  26
HETATM   26  C22 UNL     1      38.347  18.635  68.870  1.00  0.00     0.246 C 
BRANCH  26  27
HETATM   27  O3  UNL     1      38.749  19.889  69.281  1.00  0.00    -0.331 OA
ATOM     28  H3  UNL     1      39.091  20.312  68.503  1.00  0.00     0.221 HD
ENDBRANCH  26  27
BRANCH  26  29
HETATM   29  N3  UNL     1      37.060  18.490  69.345  1.00  0.00    -0.240 N 
BRANCH  29  30
HETATM   30  C23 UNL     1      35.991  17.914  68.424  1.00  0.00     0.149 C 
BRANCH  30  31
HETATM   31  C24 UNL     1      35.211  18.993  67.763  1.00  0.00    -0.003 C 
HETATM   32  C25 UNL     1      33.720  18.941  67.981  1.00  0.00     0.011 C 
HETATM   33  C26 UNL     1      35.406  18.972  66.246  1.00  0.00     0.011 C 
ENDBRANCH  30  31
ENDBRANCH  29  30
BRANCH  29  34
HETATM   34  S1  UNL     1      36.334  19.081  70.789  1.00  0.00     0.231 S 
HETATM   35  C27 UNL     1      35.195  17.906  71.519  1.00  0.00     0.186 C 
HETATM   36  O4  UNL     1      37.440  19.117  71.910  1.00  0.00    -0.206 OA
HETATM   37  O5  UNL     1      35.878  20.473  70.787  1.00  0.00    -0.206 OA
ENDBRANCH  29  34
ENDBRANCH  26  29
ENDBRANCH  25  26
BRANCH  25  38
HETATM   38  S2  UNL     1      39.809  19.174  66.827  1.00  0.00     0.270 S 
HETATM   39  O6  UNL     1      40.843  20.150  67.392  1.00  0.00    -0.200 OA
HETATM   40  O7  UNL     1      38.770  19.937  66.209  1.00  0.00    -0.200 OA
BRANCH  38  41
HETATM   41  C28 UNL     1      40.613  18.317  65.539  1.00  0.00     0.104 A 
HETATM   42  C29 UNL     1      41.970  18.246  65.310  1.00  0.00     0.052 A 
HETATM   43  C30 UNL     1      42.193  17.464  64.188  1.00  0.00     0.143 A 
HETATM   44  O8  UNL     1      41.014  17.107  63.797  1.00  0.00    -0.333 OA
HETATM   45  C31 UNL     1      40.046  17.570  64.540  1.00  0.00     0.166 A 
ENDBRANCH  38  41
ENDBRANCH  25  38
ENDBRANCH   1  25
TORSDOF 15
ENDMDL
MODEL 3
REMARK VINA RESULT: -6.909931660      1.769      2.883
REMARK  15 active torsions:
REMARK  status: ('A' for Active; 'I' for Inactive)
REMARK    1  A    between atoms: C2_2  and  C3_3 
REMARK    2  A    between atoms: N1_4  and  C4_5 
REMARK    3  A    between atoms: N1_4  and  C17_20 
REMARK    4  A    between atoms: C4_5  and  C5_6 
REMARK    5  A    between atoms: C17_20  and  C18_21 
REMARK    6  A    between atoms: C18_21  and  C20_23 
REMARK    7  A    between atoms: C18_21  and  N2_25 
REMARK    8  A    between atoms: N2_25  and  C22_26 
REMARK    9  A    between atoms: N2_25  and  S2_38 
REMARK   10  A    between atoms: C22_26  and  O3_27 
REMARK   11  A    between atoms: C22_26  and  N3_29 
REMARK   12  A    between atoms: N3_29  and  C23_30 
REMARK   13  A    between atoms: N3_29  and  S1_34 
REMARK   14  A    between atoms: C23_30  and  C24_31 
REMARK   15  A    between atoms: S2_38  and  C28_41 
ROOT
HETATM    1  C18 UNL     1      40.994  15.798  66.438  1.00  0.00     0.064 C 
HETATM    2  C19 UNL     1      40.192  14.614  66.859  1.00  0.00     0.041 C 
ENDROOT
BRANCH   1   3
HETATM    3  C17 UNL     1      42.422  15.470  66.672  1.00  0.00     0.154 C 
BRANCH   3   4
HETATM    4  N1  UNL     1      42.767  14.731  67.834  1.00  0.00    -0.387 N 
HETATM    5  C3  UNL     1      43.371  13.512  67.862  1.00  0.00     0.058 C 
BRANCH   5   6
HETATM    6  C2  UNL     1      42.422  12.308  68.058  1.00  0.00     0.040 C 
HETATM    7  C1  UNL     1      43.312  11.132  68.406  1.00  0.00     0.010 C 
ENDBRANCH   5   6
BRANCH   4   8
HETATM    8  C4  UNL     1      42.137  15.290  68.981  1.00  0.00     0.156 C 
BRANCH   8   9
HETATM    9  C5  UNL     1      42.888  15.247  70.252  1.00  0.00    -0.058 C 
HETATM   10  C6  UNL     1      42.390  14.532  71.290  1.00  0.00    -0.013 C 
HETATM   11  C7  UNL     1      43.158  14.511  72.534  1.00  0.00     0.058 C 
HETATM   12  C8  UNL     1      42.953  13.214  73.334  1.00  0.00     0.030 C 
HETATM   13  C11 UNL     1      44.610  14.151  72.152  1.00  0.00     0.129 C 
HETATM   14  C9  UNL     1      43.163  12.214  72.233  1.00  0.00     0.012 C 
HETATM   15  C12 UNL     1      44.213  13.279  74.165  1.00  0.00     0.059 C 
HETATM   16  C10 UNL     1      44.390  12.797  71.533  1.00  0.00     0.047 C 
HETATM   17  O1  UNL     1      45.151  14.025  73.411  1.00  0.00    -0.361 OA
HETATM   18  C13 UNL     1      44.760  11.951  74.565  1.00  0.00     0.046 C 
HETATM   19  C14 UNL     1      43.849  14.086  75.419  1.00  0.00     0.046 C 
HETATM   20  C15 UNL     1      45.136  15.163  71.292  1.00  0.00     0.166 C 
HETATM   21  O2  UNL     1      46.315  15.445  71.220  1.00  0.00    -0.294 OA
HETATM   22  C16 UNL     1      44.189  15.945  70.409  1.00  0.00     0.117 C 
ENDBRANCH   8   9
ENDBRANCH   4   8
ENDBRANCH   3   4
ENDBRANCH   1   3
BRANCH   1  23
HETATM   23  C20 UNL     1      40.914  15.421  64.823  1.00  0.00     0.029 C 
HETATM   24  C21 UNL     1      42.240  15.338  64.232  1.00  0.00     0.007 C 
ENDBRANCH   1  23
BRANCH   1  25
HETATM   25  N2  UNL     1      40.443  17.073  66.470  1.00  0.00    -0.224 N 
BRANCH  25  26
HETATM   26  C22 UNL     1      39.112  17.404  66.618  1.00  0.00     0.246 C 
BRANCH  26  27
HETATM   27  O3  UNL     1      38.625  17.544  65.336  1.00  0.00    -0.331 OA
ATOM     28  H3  UNL     1      39.072  16.881  64.822  1.00  0.00     0.221 HD
ENDBRANCH  26  27
BRANCH  26  29
HETATM   29  N3  UNL     1      38.039  17.664  67.446  1.00  0.00    -0.240 N 
BRANCH  29  30
HETATM   30  C23 UNL     1      37.685  16.662  68.539  1.00  0.00     0.149 C 
BRANCH  30  31
HETATM   31  C24 UNL     1      38.704  16.664  69.622  1.00  0.00    -0.003 C 
HETATM   32  C25 UNL     1      38.785  15.399  70.438  1.00  0.00     0.011 C 
HETATM   33  C26 UNL     1      38.445  17.787  70.627  1.00  0.00     0.011 C 
ENDBRANCH  30  31
ENDBRANCH  29  30
BRANCH  29  34
HETATM   34  S1  UNL     1      36.810  18.863  67.330  1.00  0.00     0.231 S 
HETATM   35  C27 UNL     1      35.463  18.583  68.478  1.00  0.00     0.186 C 
HETATM   36  O4  UNL     1      37.386  20.208  67.913  1.00  0.00    -0.206 OA
HETATM   37  O5  UNL     1      36.406  19.280  65.984  1.00  0.00    -0.206 OA
ENDBRANCH  29  34
ENDBRANCH  26  29
ENDBRANCH  25  26
BRANCH  25  38
HETATM   38  S2  UNL     1      41.400  18.549  66.386  1.00  0.00     0.270 S 
HETATM   39  O6  UNL     1      40.363  19.665  66.239  1.00  0.00    -0.200 OA
HETATM   40  O7  UNL     1      42.368  18.704  65.347  1.00  0.00    -0.200 OA
BRANCH  38  41
HETATM   41  C28 UNL     1      42.236  18.868  67.882  1.00  0.00     0.104 A 
HETATM   42  C29 UNL     1      41.675  19.018  69.131  1.00  0.00     0.052 A 
HETATM   43  C30 UNL     1      42.686  19.257  70.049  1.00  0.00     0.143 A 
HETATM   44  O8  UNL     1      43.773  19.243  69.351  1.00  0.00    -0.333 OA
HETATM   45  C31 UNL     1      43.584  19.020  68.078  1.00  0.00     0.166 A 
ENDBRANCH  38  41
ENDBRANCH  25  38
ENDBRANCH   1  25
TORSDOF 15
ENDMDL
MODEL 4
REMARK VINA RESULT: -6.887628720      1.178      1.882
REMARK  15 active torsions:
REMARK  status: ('A' for Active; 'I' for Inactive)
REMARK    1  A    between atoms: C2_2  and  C3_3 
REMARK    2  A    between atoms: N1_4  and  C4_5 
REMARK    3  A    between atoms: N1_4  and  C17_20 
REMARK    4  A    between atoms: C4_5  and  C5_6 
REMARK    5  A    between atoms: C17_20  and  C18_21 
REMARK    6  A    between atoms: C18_21  and  C20_23 
REMARK    7  A    between atoms: C18_21  and  N2_25 
REMARK    8  A    between atoms: N2_25  and  C22_26 
REMARK    9  A    between atoms: N2_25  and  S2_38 
REMARK   10  A    between atoms: C22_26  and  O3_27 
REMARK   11  A    between atoms: C22_26  and  N3_29 
REMARK   12  A    between atoms: N3_29  and  C23_30 
REMARK   13  A    between atoms: N3_29  and  S1_34 
REMARK   14  A    between atoms: C23_30  and  C24_31 
REMARK   15  A    between atoms: S2_38  and  C28_41 
ROOT
HETATM    1  C18 UNL     1      40.810  15.799  66.645  1.00  0.00     0.064 C 
HETATM    2  C19 UNL     1      39.983  14.656  67.130  1.00  0.00     0.041 C 
ENDROOT
BRANCH   1   3
HETATM    3  C17 UNL     1      42.233  15.398  66.768  1.00  0.00     0.154 C 
BRANCH   3   4
HETATM    4  N1  UNL     1      42.684  14.864  68.004  1.00  0.00    -0.387 N 
HETATM    5  C3  UNL     1      42.690  15.506  69.203  1.00  0.00     0.058 C 
BRANCH   5   6
HETATM    6  C2  UNL     1      44.044  16.126  69.615  1.00  0.00     0.040 C 
HETATM    7  C1  UNL     1      44.422  15.463  70.924  1.00  0.00     0.010 C 
ENDBRANCH   5   6
BRANCH   4   8
HETATM    8  C4  UNL     1      43.411  13.660  67.787  1.00  0.00     0.156 C 
BRANCH   8   9
HETATM    9  C5  UNL     1      42.988  12.468  68.549  1.00  0.00    -0.058 C 
HETATM   10  C6  UNL     1      43.680  12.114  69.659  1.00  0.00    -0.013 C 
HETATM   11  C7  UNL     1      43.234  10.929  70.390  1.00  0.00     0.058 C 
HETATM   12  C8  UNL     1      43.551  11.008  71.893  1.00  0.00     0.030 C 
HETATM   13  C11 UNL     1      41.714  11.089  70.611  1.00  0.00     0.129 C 
HETATM   14  C9  UNL     1      43.024  12.384  72.180  1.00  0.00     0.012 C 
HETATM   15  C12 UNL     1      42.534   9.998  72.374  1.00  0.00     0.059 C 
HETATM   16  C10 UNL     1      41.700  12.360  71.417  1.00  0.00     0.047 C 
HETATM   17  O1  UNL     1      41.487  10.001  71.420  1.00  0.00    -0.361 OA
HETATM   18  C13 UNL     1      42.023  10.243  73.753  1.00  0.00     0.046 C 
HETATM   19  C14 UNL     1      43.236   8.635  72.318  1.00  0.00     0.046 C 
HETATM   20  C15 UNL     1      41.056  11.134  69.344  1.00  0.00     0.166 C 
HETATM   21  O2  UNL     1      39.914  10.768  69.161  1.00  0.00    -0.294 OA
HETATM   22  C16 UNL     1      41.806  11.666  68.143  1.00  0.00     0.117 C 
ENDBRANCH   8   9
ENDBRANCH   4   8
ENDBRANCH   3   4
ENDBRANCH   1   3
BRANCH   1  23
HETATM   23  C20 UNL     1      40.586  15.428  65.042  1.00  0.00     0.029 C 
HETATM   24  C21 UNL     1      41.823  14.983  64.423  1.00  0.00     0.007 C 
ENDBRANCH   1  23
BRANCH   1  25
HETATM   25  N2  UNL     1      40.328  17.100  66.717  1.00  0.00    -0.224 N 
BRANCH  25  26
HETATM   26  C22 UNL     1      39.070  17.504  67.114  1.00  0.00     0.246 C 
BRANCH  26  27
HETATM   27  O3  UNL     1      38.315  17.537  65.962  1.00  0.00    -0.331 OA
ATOM     28  H3  UNL     1      37.413  17.452  66.248  1.00  0.00     0.221 HD
ENDBRANCH  26  27
BRANCH  26  29
HETATM   29  N3  UNL     1      38.214  17.895  68.123  1.00  0.00    -0.240 N 
BRANCH  29  30
HETATM   30  C23 UNL     1      37.267  19.065  67.880  1.00  0.00     0.149 C 
BRANCH  30  31
HETATM   31  C24 UNL     1      35.878  18.592  67.641  1.00  0.00    -0.003 C 
HETATM   32  C25 UNL     1      35.222  19.115  66.388  1.00  0.00     0.011 C 
HETATM   33  C26 UNL     1      34.948  18.991  68.788  1.00  0.00     0.011 C 
ENDBRANCH  30  31
ENDBRANCH  29  30
BRANCH  29  34
HETATM   34  S1  UNL     1      38.164  17.434  69.781  1.00  0.00     0.231 S 
HETATM   35  C27 UNL     1      37.058  16.058  70.082  1.00  0.00     0.186 C 
HETATM   36  O4  UNL     1      39.540  16.759  70.139  1.00  0.00    -0.206 OA
HETATM   37  O5  UNL     1      38.103  18.512  70.772  1.00  0.00    -0.206 OA
ENDBRANCH  29  34
ENDBRANCH  26  29
ENDBRANCH  25  26
BRANCH  25  38
HETATM   38  S2  UNL     1      41.304  18.520  66.354  1.00  0.00     0.270 S 
HETATM   39  O6  UNL     1      40.281  19.631  66.108  1.00  0.00    -0.200 OA
HETATM   40  O7  UNL     1      42.206  18.494  65.246  1.00  0.00    -0.200 OA
BRANCH  38  41
HETATM   41  C28 UNL     1      42.243  19.032  67.731  1.00  0.00     0.104 A 
HETATM   42  C29 UNL     1      41.771  19.351  68.986  1.00  0.00     0.052 A 
HETATM   43  C30 UNL     1      42.843  19.706  69.789  1.00  0.00     0.143 A 
HETATM   44  O8  UNL     1      43.878  19.593  69.025  1.00  0.00    -0.333 OA
HETATM   45  C31 UNL     1      43.601  19.203  67.810  1.00  0.00     0.166 A 
ENDBRANCH  38  41
ENDBRANCH  25  38
ENDBRANCH   1  25
TORSDOF 15
ENDMDL
MODEL 5
REMARK VINA RESULT: -6.808949969      1.435      1.779
REMARK  15 active torsions:
REMARK  status: ('A' for Active; 'I' for Inactive)
REMARK    1  A    between atoms: C2_2  and  C3_3 
REMARK    2  A    between atoms: N1_4  and  C4_5 
REMARK    3  A    between atoms: N1_4  and  C17_20 
REMARK    4  A    between atoms: C4_5  and  C5_6 
REMARK    5  A    between atoms: C17_20  and  C18_21 
REMARK    6  A    between atoms: C18_21  and  C20_23 
REMARK    7  A    between atoms: C18_21  and  N2_25 
REMARK    8  A    between atoms: N2_25  and  C22_26 
REMARK    9  A    between atoms: N2_25  and  S2_38 
REMARK   10  A    between atoms: C22_26  and  O3_27 
REMARK   11  A    between atoms: C22_26  and  N3_29 
REMARK   12  A    between atoms: N3_29  and  C23_30 
REMARK   13  A    between atoms: N3_29  and  S1_34 
REMARK   14  A    between atoms: C23_30  and  C24_31 
REMARK   15  A    between atoms: S2_38  and  C28_41 
ROOT
HETATM    1  C18 UNL     1      42.360  16.036  66.549  1.00  0.00     0.064 C 
HETATM    2  C19 UNL     1      41.385  14.961  66.204  1.00  0.00     0.041 C 
ENDROOT
BRANCH   1   3
HETATM    3  C17 UNL     1      43.534  15.382  67.176  1.00  0.00     0.154 C 
BRANCH   3   4
HETATM    4  N1  UNL     1      43.326  14.554  68.311  1.00  0.00    -0.387 N 
HETATM    5  C3  UNL     1      43.174  14.975  69.596  1.00  0.00     0.058 C 
BRANCH   5   6
HETATM    6  C2  UNL     1      44.446  14.902  70.472  1.00  0.00     0.040 C 
HETATM    7  C1  UNL     1      44.028  15.376  71.849  1.00  0.00     0.010 C 
ENDBRANCH   5   6
BRANCH   4   8
HETATM    8  C4  UNL     1      43.588  13.194  67.987  1.00  0.00     0.156 C 
BRANCH   8   9
HETATM    9  C5  UNL     1      42.875  12.164  68.769  1.00  0.00    -0.058 C 
HETATM   10  C6  UNL     1      43.536  11.508  69.754  1.00  0.00    -0.013 C 
HETATM   11  C7  UNL     1      42.801  10.494  70.508  1.00  0.00     0.058 C 
HETATM   12  C8  UNL     1      43.315  10.341  71.950  1.00  0.00     0.030 C 
HETATM   13  C11 UNL     1      41.475  11.148  70.956  1.00  0.00     0.129 C 
HETATM   14  C9  UNL     1      43.346  11.788  72.351  1.00  0.00     0.012 C 
HETATM   15  C12 UNL     1      42.080   9.707  72.546  1.00  0.00     0.059 C 
HETATM   16  C10 UNL     1      42.011  12.279  71.791  1.00  0.00     0.047 C 
HETATM   17  O1  UNL     1      40.986  10.144  71.758  1.00  0.00    -0.361 OA
HETATM   18  C13 UNL     1      41.869  10.003  73.992  1.00  0.00     0.046 C 
HETATM   19  C14 UNL     1      42.245   8.195  72.348  1.00  0.00     0.046 C 
HETATM   20  C15 UNL     1      40.718  11.515  69.802  1.00  0.00     0.166 C 
HETATM   21  O2  UNL     1      39.506  11.579  69.780  1.00  0.00    -0.294 OA
HETATM   22  C16 UNL     1      41.446  11.850  68.519  1.00  0.00     0.117 C 
ENDBRANCH   8   9
ENDBRANCH   4   8
ENDBRANCH   3   4
ENDBRANCH   1   3
BRANCH   1  23
HETATM   23  C20 UNL     1      42.944  16.161  65.000  1.00  0.00     0.029 C 
HETATM   24  C21 UNL     1      42.182  15.334  64.078  1.00  0.00     0.007 C 
ENDBRANCH   1  23
BRANCH   1  25
HETATM   25  N2  UNL     1      41.923  17.330  66.805  1.00  0.00    -0.224 N 
BRANCH  25  26
HETATM   26  C22 UNL     1      40.815  17.958  66.274  1.00  0.00     0.246 C 
BRANCH  26  27
HETATM   27  O3  UNL     1      41.295  18.737  65.243  1.00  0.00    -0.331 OA
ATOM     28  H3  UNL     1      42.059  18.277  64.914  1.00  0.00     0.221 HD
ENDBRANCH  26  27
BRANCH  26  29
HETATM   29  N3  UNL     1      39.453  18.176  66.293  1.00  0.00    -0.240 N 
BRANCH  29  30
HETATM   30  C23 UNL     1      38.515  16.991  66.496  1.00  0.00     0.149 C 
BRANCH  30  31
HETATM   31  C24 UNL     1      38.596  16.473  67.887  1.00  0.00    -0.003 C 
HETATM   32  C25 UNL     1      38.471  14.978  68.030  1.00  0.00     0.011 C 
HETATM   33  C26 UNL     1      37.493  17.064  68.766  1.00  0.00     0.011 C 
ENDBRANCH  30  31
ENDBRANCH  29  30
BRANCH  29  34
HETATM   34  S1  UNL     1      38.545  19.578  65.878  1.00  0.00     0.231 S 
HETATM   35  C27 UNL     1      36.933  19.611  66.659  1.00  0.00     0.186 C 
HETATM   36  O4  UNL     1      39.213  20.816  66.583  1.00  0.00    -0.206 OA
HETATM   37  O5  UNL     1      38.567  19.997  64.474  1.00  0.00    -0.206 OA
ENDBRANCH  29  34
ENDBRANCH  26  29
ENDBRANCH  25  26
BRANCH  25  38
HETATM   38  S2  UNL     1      42.710  18.414  67.948  1.00  0.00     0.270 S 
HETATM   39  O6  UNL     1      42.230  19.808  67.541  1.00  0.00    -0.200 OA
HETATM   40  O7  UNL     1      44.137  18.442  68.027  1.00  0.00    -0.200 OA
BRANCH  38  41
HETATM   41  C28 UNL     1      42.138  18.168  69.576  1.00  0.00     0.104 A 
HETATM   42  C29 UNL     1      41.016  17.471  69.966  1.00  0.00     0.052 A 
HETATM   43  C30 UNL     1      40.921  17.513  71.348  1.00  0.00     0.143 A 
HETATM   44  O8  UNL     1      41.946  18.203  71.726  1.00  0.00    -0.333 OA
HETATM   45  C31 UNL     1      42.699  18.617  70.744  1.00  0.00     0.166 A 
ENDBRANCH  38  41
ENDBRANCH  25  38
ENDBRANCH   1  25
TORSDOF 15
ENDMDL
