MODEL 1
REMARK VINA RESULT: -7.357782415      0.000      0.000
REMARK  14 active torsions:
REMARK  status: ('A' for Active; 'I' for Inactive)
REMARK    1  A    between atoms: C2_2  and  C4_4 
REMARK    2  A    between atoms: C6_6  and  C7_7 
REMARK    3  A    between atoms: C7_7  and  C9_9 
REMARK    4  A    between atoms: C9_9  and  C10_10 
REMARK    5  A    between atoms: C10_10  and  C11_11 
REMARK    6  A    between atoms: C11_11  and  N1_12 
REMARK    7  A    between atoms: C14_15  and  N2_16 
REMARK    8  A    between atoms: N3_21  and  C19_22 
REMARK    9  A    between atoms: C19_22  and  C20_23 
REMARK   10  A    between atoms: C20_23  and  C21_24 
REMARK   11  A    between atoms: N4_27  and  C24_28 
REMARK   12  A    between atoms: C24_28  and  C25_29 
REMARK   13  A    between atoms: C25_29  and  C26_30 
REMARK   14  A    between atoms: C26_30  and  S1_31 
ROOT
HETATM    1  N2  UNL     1      41.268  13.826  67.766  1.00  0.00    -0.212 N 
HETATM    2  C15 UNL     1      42.641  14.017  68.147  1.00  0.00     0.141 C 
HETATM    3  C16 UNL     1      43.324  12.668  68.083  1.00  0.00     0.022 C 
HETATM    4  C17 UNL     1      43.091  11.941  69.377  1.00  0.00     0.022 C 
HETATM    5  C18 UNL     1      41.829  11.150  69.432  1.00  0.00     0.141 C 
HETATM    6  N3  UNL     1      40.620  11.982  69.457  1.00  0.00    -0.217 N 
HETATM    7  C30 UNL     1      40.305  12.996  68.520  1.00  0.00     0.687 C 
HETATM    8  N5  UNL     1      39.117  13.234  68.293  1.00  0.00    -0.126 N 
ATOM      9  H5  UNL     1      39.102  13.986  67.604  1.00  0.00     0.197 HD
HETATM   10  C31 UNL     1      37.856  12.942  68.548  1.00  0.00     0.196 C 
HETATM   11  N6  UNL     1      36.764  12.695  68.743  1.00  0.00    -0.171 NA
ENDROOT
BRANCH   1  12
HETATM   12  C14 UNL     1      40.716  14.435  66.594  1.00  0.00     0.105 C 
HETATM   13  C13 UNL     1      41.545  14.336  65.362  1.00  0.00     0.056 C 
HETATM   14  C12 UNL     1      42.275  15.596  64.971  1.00  0.00     0.274 C 
HETATM   15  N1  UNL     1      41.327  16.629  64.722  1.00  0.00     0.088 N 
HETATM   16  C33 UNL     1      40.102  16.488  65.462  1.00  0.00     0.274 C 
HETATM   17  C32 UNL     1      40.392  15.918  66.840  1.00  0.00     0.056 C 
BRANCH  15  18
HETATM   18  C11 UNL     1      41.828  17.963  64.948  1.00  0.00     0.272 C 
BRANCH  18  19
HETATM   19  C10 UNL     1      42.911  18.055  65.947  1.00  0.00     0.031 C 
BRANCH  19  20
HETATM   20  C9  UNL     1      42.852  19.213  66.854  1.00  0.00     0.008 C 
BRANCH  20  21
HETATM   21  C7  UNL     1      42.545  19.024  68.289  1.00  0.00     0.011 C 
HETATM   22  C8  UNL     1      42.859  17.674  68.865  1.00  0.00     0.012 C 
BRANCH  21  23
HETATM   23  C6  UNL     1      41.233  19.575  68.767  1.00  0.00     0.136 C 
HETATM   24  C5  UNL     1      40.172  19.785  67.759  1.00  0.00     0.048 C 
HETATM   25  C4  UNL     1      38.852  19.383  68.457  1.00  0.00     0.091 C 
HETATM   26  C34 UNL     1      39.369  18.318  69.344  1.00  0.00     0.263 C 
HETATM   27  O3  UNL     1      40.635  18.717  69.729  1.00  0.00    -0.315 OA
HETATM   28  O4  UNL     1      38.820  17.264  69.702  1.00  0.00    -0.265 OA
BRANCH  25  29
HETATM   29  C2  UNL     1      37.864  18.887  67.433  1.00  0.00    -0.009 C 
HETATM   30  C1  UNL     1      36.444  19.142  67.811  1.00  0.00     0.010 C 
HETATM   31  C3  UNL     1      38.113  19.590  66.117  1.00  0.00     0.010 C 
ENDBRANCH  25  29
ENDBRANCH  21  23
ENDBRANCH  20  21
ENDBRANCH  19  20
ENDBRANCH  18  19
ENDBRANCH  15  18
ENDBRANCH   1  12
BRANCH   6  32
HETATM   32  C19 UNL     1      39.769  11.687  70.588  1.00  0.00     0.141 C 
BRANCH  32  33
HETATM   33  C20 UNL     1      39.706  10.223  70.938  1.00  0.00     0.025 C 
BRANCH  33  34
HETATM   34  C21 UNL     1      38.663   9.452  70.207  1.00  0.00    -0.007 C 
HETATM   35  C22 UNL     1      38.934   7.957  70.236  1.00  0.00     0.024 C 
HETATM   36  C23 UNL     1      38.092   7.354  69.144  1.00  0.00     0.122 C 
HETATM   37  N4  UNL     1      36.690   7.520  69.492  1.00  0.00    -0.393 N 
HETATM   38  C28 UNL     1      36.480   8.331  70.623  1.00  0.00     0.058 C 
HETATM   39  C29 UNL     1      37.255   9.652  70.625  1.00  0.00     0.049 C 
BRANCH  37  40
HETATM   40  C24 UNL     1      35.849   7.647  68.366  1.00  0.00     0.122 C 
BRANCH  40  41
HETATM   41  C25 UNL     1      36.485   8.439  67.267  1.00  0.00     0.035 C 
BRANCH  41  42
HETATM   42  C26 UNL     1      35.486   8.589  66.119  1.00  0.00     0.141 C 
BRANCH  42  43
HETATM   43  S1  UNL     1      36.259   7.816  64.714  1.00  0.00     0.140 S 
HETATM   44  C27 UNL     1      35.658   6.165  64.507  1.00  0.00     0.161 C 
HETATM   45  O1  UNL     1      37.762   7.766  64.922  1.00  0.00    -0.228 OA
HETATM   46  O2  UNL     1      35.895   8.621  63.502  1.00  0.00    -0.228 OA
ENDBRANCH  42  43
ENDBRANCH  41  42
ENDBRANCH  40  41
ENDBRANCH  37  40
ENDBRANCH  33  34
ENDBRANCH  32  33
ENDBRANCH   6  32
TORSDOF 14
ENDMDL
MODEL 2
REMARK VINA RESULT: -7.204770201      2.446      9.699
REMARK  14 active torsions:
REMARK  status: ('A' for Active; 'I' for Inactive)
REMARK    1  A    between atoms: C2_2  and  C4_4 
REMARK    2  A    between atoms: C6_6  and  C7_7 
REMARK    3  A    between atoms: C7_7  and  C9_9 
REMARK    4  A    between atoms: C9_9  and  C10_10 
REMARK    5  A    between atoms: C10_10  and  C11_11 
REMARK    6  A    between atoms: C11_11  and  N1_12 
REMARK    7  A    between atoms: C14_15  and  N2_16 
REMARK    8  A    between atoms: N3_21  and  C19_22 
REMARK    9  A    between atoms: C19_22  and  C20_23 
REMARK   10  A    between atoms: C20_23  and  C21_24 
REMARK   11  A    between atoms: N4_27  and  C24_28 
REMARK   12  A    between atoms: C24_28  and  C25_29 
REMARK   13  A    between atoms: C25_29  and  C26_30 
REMARK   14  A    between atoms: C26_30  and  S1_31 
ROOT
HETATM    1  N2  UNL     1      40.519  14.141  68.895  1.00  0.00    -0.212 N 
HETATM    2  C15 UNL     1      40.833  13.341  67.742  1.00  0.00     0.141 C 
HETATM    3  C16 UNL     1      41.873  12.323  68.164  1.00  0.00     0.022 C 
HETATM    4  C17 UNL     1      43.234  12.951  68.068  1.00  0.00     0.022 C 
HETATM    5  C18 UNL     1      43.667  13.697  69.284  1.00  0.00     0.141 C 
HETATM    6  N3  UNL     1      42.902  14.928  69.515  1.00  0.00    -0.217 N 
HETATM    7  C30 UNL     1      41.490  15.014  69.588  1.00  0.00     0.687 C 
HETATM    8  N5  UNL     1      40.994  15.896  70.291  1.00  0.00    -0.126 N 
ATOM      9  H5  UNL     1      39.982  15.793  70.209  1.00  0.00     0.197 HD
HETATM   10  C31 UNL     1      41.195  16.915  71.105  1.00  0.00     0.196 C 
HETATM   11  N6  UNL     1      41.348  17.785  71.819  1.00  0.00    -0.171 NA
ENDROOT
BRANCH   1  12
HETATM   12  C14 UNL     1      39.212  14.151  69.477  1.00  0.00     0.105 C 
HETATM   13  C13 UNL     1      38.976  13.147  70.551  1.00  0.00     0.056 C 
HETATM   14  C12 UNL     1      38.157  11.948  70.146  1.00  0.00     0.274 C 
HETATM   15  N1  UNL     1      36.867  12.380  69.724  1.00  0.00     0.088 N 
HETATM   16  C33 UNL     1      36.846  13.712  69.182  1.00  0.00     0.274 C 
HETATM   17  C32 UNL     1      38.125  13.974  68.404  1.00  0.00     0.056 C 
BRANCH  15  18
HETATM   18  C11 UNL     1      36.229  11.506  68.771  1.00  0.00     0.272 C 
BRANCH  18  19
HETATM   19  C10 UNL     1      36.807  10.149  68.693  1.00  0.00     0.031 C 
BRANCH  19  20
HETATM   20  C9  UNL     1      35.864   9.036  68.886  1.00  0.00     0.008 C 
BRANCH  20  21
HETATM   21  C7  UNL     1      35.701   8.004  67.838  1.00  0.00     0.011 C 
HETATM   22  C8  UNL     1      35.359   6.622  68.312  1.00  0.00     0.012 C 
BRANCH  21  23
HETATM   23  C6  UNL     1      36.716   8.011  66.733  1.00  0.00     0.136 C 
HETATM   24  C5  UNL     1      37.065   6.712  66.118  1.00  0.00     0.048 C 
HETATM   25  C4  UNL     1      37.236   7.002  64.608  1.00  0.00     0.091 C 
HETATM   26  C34 UNL     1      36.243   8.088  64.463  1.00  0.00     0.263 C 
HETATM   27  O3  UNL     1      36.282   8.809  65.641  1.00  0.00    -0.315 OA
HETATM   28  O4  UNL     1      35.500   8.344  63.501  1.00  0.00    -0.265 OA
BRANCH  25  29
HETATM   29  C2  UNL     1      36.903   5.768  63.811  1.00  0.00    -0.009 C 
HETATM   30  C1  UNL     1      38.037   4.805  63.711  1.00  0.00     0.010 C 
HETATM   31  C3  UNL     1      35.752   5.043  64.471  1.00  0.00     0.010 C 
ENDBRANCH  25  29
ENDBRANCH  21  23
ENDBRANCH  20  21
ENDBRANCH  19  20
ENDBRANCH  18  19
ENDBRANCH  15  18
ENDBRANCH   1  12
BRANCH   6  32
HETATM   32  C19 UNL     1      43.751  16.094  69.625  1.00  0.00     0.141 C 
BRANCH  32  33
HETATM   33  C20 UNL     1      44.149  16.685  68.297  1.00  0.00     0.025 C 
BRANCH  33  34
HETATM   34  C21 UNL     1      43.026  16.876  67.338  1.00  0.00    -0.007 C 
HETATM   35  C22 UNL     1      42.904  18.322  66.886  1.00  0.00     0.024 C 
HETATM   36  C23 UNL     1      41.528  18.463  66.291  1.00  0.00     0.122 C 
HETATM   37  N4  UNL     1      41.456  17.651  65.087  1.00  0.00    -0.393 N 
HETATM   38  C28 UNL     1      42.581  16.830  64.890  1.00  0.00     0.058 C 
HETATM   39  C29 UNL     1      43.023  16.032  66.120  1.00  0.00     0.049 C 
BRANCH  37  40
HETATM   40  C24 UNL     1      40.162  17.150  64.831  1.00  0.00     0.122 C 
BRANCH  40  41
HETATM   41  C25 UNL     1      39.567  16.474  66.025  1.00  0.00     0.035 C 
BRANCH  41  42
HETATM   42  C26 UNL     1      38.084  16.837  66.117  1.00  0.00     0.141 C 
BRANCH  42  43
HETATM   43  S1  UNL     1      37.937  17.865  67.564  1.00  0.00     0.140 S 
HETATM   44  C27 UNL     1      38.041  19.575  67.122  1.00  0.00     0.161 C 
HETATM   45  O1  UNL     1      39.058  17.541  68.535  1.00  0.00    -0.228 OA
HETATM   46  O2  UNL     1      36.590  17.600  68.166  1.00  0.00    -0.228 OA
ENDBRANCH  42  43
ENDBRANCH  41  42
ENDBRANCH  40  41
ENDBRANCH  37  40
ENDBRANCH  33  34
ENDBRANCH  32  33
ENDBRANCH   6  32
TORSDOF 14
ENDMDL
MODEL 3
REMARK VINA RESULT: -7.087789131      5.385      9.476
REMARK  14 active torsions:
REMARK  status: ('A' for Active; 'I' for Inactive)
REMARK    1  A    between atoms: C2_2  and  C4_4 
REMARK    2  A    between atoms: C6_6  and  C7_7 
REMARK    3  A    between atoms: C7_7  and  C9_9 
REMARK    4  A    between atoms: C9_9  and  C10_10 
REMARK    5  A    between atoms: C10_10  and  C11_11 
REMARK    6  A    between atoms: C11_11  and  N1_12 
REMARK    7  A    between atoms: C14_15  and  N2_16 
REMARK    8  A    between atoms: N3_21  and  C19_22 
REMARK    9  A    between atoms: C19_22  and  C20_23 
REMARK   10  A    between atoms: C20_23  and  C21_24 
REMARK   11  A    between atoms: N4_27  and  C24_28 
REMARK   12  A    between atoms: C24_28  and  C25_29 
REMARK   13  A    between atoms: C25_29  and  C26_30 
REMARK   14  A    between atoms: C26_30  and  S1_31 
ROOT
HETATM    1  N2  UNL     1      42.629  13.139  71.573  1.00  0.00    -0.212 N 
HETATM    2  C15 UNL     1      43.028  11.793  71.883  1.00  0.00     0.141 C 
HETATM    3  C16 UNL     1      44.157  11.425  70.943  1.00  0.00     0.022 C 
HETATM    4  C17 UNL     1      43.572  10.927  69.651  1.00  0.00     0.022 C 
HETATM    5  C18 UNL     1      43.266  11.990  68.652  1.00  0.00     0.141 C 
HETATM    6  N3  UNL     1      42.151  12.859  69.048  1.00  0.00    -0.217 N 
HETATM    7  C30 UNL     1      42.052  13.556  70.277  1.00  0.00     0.687 C 
HETATM    8  N5  UNL     1      41.426  14.617  70.299  1.00  0.00    -0.126 N 
ATOM      9  H5  UNL     1      41.468  14.955  71.260  1.00  0.00     0.197 HD
HETATM   10  C31 UNL     1      40.726  15.510  69.625  1.00  0.00     0.196 C 
HETATM   11  N6  UNL     1      40.135  16.297  69.058  1.00  0.00    -0.171 NA
ENDROOT
BRANCH   1  12
HETATM   12  C14 UNL     1      42.767  14.206  72.516  1.00  0.00     0.105 C 
HETATM   13  C13 UNL     1      43.930  15.110  72.302  1.00  0.00     0.056 C 
HETATM   14  C12 UNL     1      45.092  14.902  73.240  1.00  0.00     0.274 C 
HETATM   15  N1  UNL     1      44.662  15.129  74.578  1.00  0.00     0.088 N 
HETATM   16  C33 UNL     1      43.266  14.859  74.796  1.00  0.00     0.274 C 
HETATM   17  C32 UNL     1      42.831  13.670  73.956  1.00  0.00     0.056 C 
BRANCH  15  18
HETATM   18  C11 UNL     1      45.412  14.405  75.575  1.00  0.00     0.272 C 
BRANCH  18  19
HETATM   19  C10 UNL     1      46.364  15.226  76.350  1.00  0.00     0.031 C 
BRANCH  19  20
HETATM   20  C9  UNL     1      47.682  15.439  75.731  1.00  0.00     0.008 C 
BRANCH  20  21
HETATM   21  C7  UNL     1      48.033  16.755  75.152  1.00  0.00     0.011 C 
HETATM   22  C8  UNL     1      46.908  17.737  75.001  1.00  0.00     0.012 C 
BRANCH  21  23
HETATM   23  C6  UNL     1      48.958  16.737  73.971  1.00  0.00     0.136 C 
HETATM   24  C5  UNL     1      49.594  15.449  73.620  1.00  0.00     0.048 C 
HETATM   25  C4  UNL     1      49.612  15.403  72.074  1.00  0.00     0.091 C 
HETATM   26  C34 UNL     1      48.369  16.158  71.802  1.00  0.00     0.263 C 
HETATM   27  O3  UNL     1      48.283  17.127  72.783  1.00  0.00    -0.315 OA
HETATM   28  O4  UNL     1      47.540  15.996  70.892  1.00  0.00    -0.265 OA
BRANCH  25  29
HETATM   29  C2  UNL     1      49.563  13.971  71.606  1.00  0.00    -0.009 C 
HETATM   30  C1  UNL     1      50.885  13.454  71.152  1.00  0.00     0.010 C 
HETATM   31  C3  UNL     1      49.098  13.090  72.743  1.00  0.00     0.010 C 
ENDBRANCH  25  29
ENDBRANCH  21  23
ENDBRANCH  20  21
ENDBRANCH  19  20
ENDBRANCH  18  19
ENDBRANCH  15  18
ENDBRANCH   1  12
BRANCH   6  32
HETATM   32  C19 UNL     1      41.107  12.908  68.049  1.00  0.00     0.141 C 
BRANCH  32  33
HETATM   33  C20 UNL     1      41.616  13.110  66.645  1.00  0.00     0.025 C 
BRANCH  33  34
HETATM   34  C21 UNL     1      41.714  14.532  66.216  1.00  0.00    -0.007 C 
HETATM   35  C22 UNL     1      43.014  15.176  66.671  1.00  0.00     0.024 C 
HETATM   36  C23 UNL     1      42.809  16.663  66.562  1.00  0.00     0.122 C 
HETATM   37  N4  UNL     1      42.651  17.010  65.159  1.00  0.00    -0.393 N 
HETATM   38  C28 UNL     1      42.550  15.894  64.308  1.00  0.00     0.058 C 
HETATM   39  C29 UNL     1      41.565  14.816  64.769  1.00  0.00     0.049 C 
BRANCH  37  40
HETATM   40  C24 UNL     1      41.821  18.132  64.954  1.00  0.00     0.122 C 
BRANCH  40  41
HETATM   41  C25 UNL     1      40.440  17.925  65.494  1.00  0.00     0.035 C 
BRANCH  41  42
HETATM   42  C26 UNL     1      40.157  18.987  66.558  1.00  0.00     0.141 C 
BRANCH  42  43
HETATM   43  S1  UNL     1      38.804  19.950  65.916  1.00  0.00     0.140 S 
HETATM   44  C27 UNL     1      37.274  19.420  66.628  1.00  0.00     0.161 C 
HETATM   45  O1  UNL     1      38.727  19.781  64.409  1.00  0.00    -0.228 OA
HETATM   46  O2  UNL     1      39.049  21.379  66.300  1.00  0.00    -0.228 OA
ENDBRANCH  42  43
ENDBRANCH  41  42
ENDBRANCH  40  41
ENDBRANCH  37  40
ENDBRANCH  33  34
ENDBRANCH  32  33
ENDBRANCH   6  32
TORSDOF 14
ENDMDL
MODEL 4
REMARK VINA RESULT: -7.078568253      4.734      7.958
REMARK  14 active torsions:
REMARK  status: ('A' for Active; 'I' for Inactive)
REMARK    1  A    between atoms: C2_2  and  C4_4 
REMARK    2  A    between atoms: C6_6  and  C7_7 
REMARK    3  A    between atoms: C7_7  and  C9_9 
REMARK    4  A    between atoms: C9_9  and  C10_10 
REMARK    5  A    between atoms: C10_10  and  C11_11 
REMARK    6  A    between atoms: C11_11  and  N1_12 
REMARK    7  A    between atoms: C14_15  and  N2_16 
REMARK    8  A    between atoms: N3_21  and  C19_22 
REMARK    9  A    between atoms: C19_22  and  C20_23 
REMARK   10  A    between atoms: C20_23  and  C21_24 
REMARK   11  A    between atoms: N4_27  and  C24_28 
REMARK   12  A    between atoms: C24_28  and  C25_29 
REMARK   13  A    between atoms: C25_29  and  C26_30 
REMARK   14  A    between atoms: C26_30  and  S1_31 
ROOT
HETATM    1  N2  UNL     1      40.697  14.158  71.314  1.00  0.00    -0.212 N 
HETATM    2  C15 UNL     1      39.517  13.437  70.922  1.00  0.00     0.141 C 
HETATM    3  C16 UNL     1      39.640  12.030  71.469  1.00  0.00     0.022 C 
HETATM    4  C17 UNL     1      40.437  11.201  70.503  1.00  0.00     0.022 C 
HETATM    5  C18 UNL     1      41.913  11.261  70.696  1.00  0.00     0.141 C 
HETATM    6  N3  UNL     1      42.493  12.565  70.354  1.00  0.00    -0.217 N 
HETATM    7  C30 UNL     1      42.065  13.812  70.872  1.00  0.00     0.687 C 
HETATM    8  N5  UNL     1      42.894  14.719  70.974  1.00  0.00    -0.126 N 
ATOM      9  H5  UNL     1      42.395  15.522  71.357  1.00  0.00     0.197 HD
HETATM   10  C31 UNL     1      44.144  15.107  70.805  1.00  0.00     0.196 C 
HETATM   11  N6  UNL     1      45.218  15.456  70.682  1.00  0.00    -0.171 NA
ENDROOT
BRANCH   1  12
HETATM   12  C14 UNL     1      40.639  15.291  72.186  1.00  0.00     0.105 C 
HETATM   13  C13 UNL     1      40.342  14.992  73.614  1.00  0.00     0.056 C 
HETATM   14  C12 UNL     1      38.936  15.302  74.060  1.00  0.00     0.274 C 
HETATM   15  N1  UNL     1      38.686  16.694  73.892  1.00  0.00     0.088 N 
HETATM   16  C33 UNL     1      39.453  17.302  72.838  1.00  0.00     0.274 C 
HETATM   17  C32 UNL     1      39.616  16.324  71.686  1.00  0.00     0.056 C 
BRANCH  15  18
HETATM   18  C11 UNL     1      37.299  17.028  73.677  1.00  0.00     0.272 C 
BRANCH  18  19
HETATM   19  C10 UNL     1      37.025  18.472  73.542  1.00  0.00     0.031 C 
BRANCH  19  20
HETATM   20  C9  UNL     1      35.833  18.830  72.756  1.00  0.00     0.008 C 
BRANCH  20  21
HETATM   21  C7  UNL     1      35.976  19.447  71.419  1.00  0.00     0.011 C 
HETATM   22  C8  UNL     1      34.722  19.568  70.604  1.00  0.00     0.012 C 
BRANCH  21  23
HETATM   23  C6  UNL     1      37.163  19.013  70.609  1.00  0.00     0.136 C 
HETATM   24  C5  UNL     1      36.920  18.089  69.481  1.00  0.00     0.048 C 
HETATM   25  C4  UNL     1      37.873  18.550  68.354  1.00  0.00     0.091 C 
HETATM   26  C34 UNL     1      37.889  20.001  68.639  1.00  0.00     0.263 C 
HETATM   27  O3  UNL     1      37.814  20.127  70.013  1.00  0.00    -0.315 OA
HETATM   28  O4  UNL     1      37.957  20.953  67.844  1.00  0.00    -0.265 OA
BRANCH  25  29
HETATM   29  C2  UNL     1      37.281  18.205  67.012  1.00  0.00    -0.009 C 
HETATM   30  C1  UNL     1      37.430  16.766  66.654  1.00  0.00     0.010 C 
HETATM   31  C3  UNL     1      35.801  18.517  67.024  1.00  0.00     0.010 C 
ENDBRANCH  25  29
ENDBRANCH  21  23
ENDBRANCH  20  21
ENDBRANCH  19  20
ENDBRANCH  18  19
ENDBRANCH  15  18
ENDBRANCH   1  12
BRANCH   6  32
HETATM   32  C19 UNL     1      43.553  12.460  69.376  1.00  0.00     0.141 C 
BRANCH  32  33
HETATM   33  C20 UNL     1      43.066  12.444  67.950  1.00  0.00     0.025 C 
BRANCH  33  34
HETATM   34  C21 UNL     1      42.569  13.755  67.446  1.00  0.00    -0.007 C 
HETATM   35  C22 UNL     1      43.706  14.679  67.045  1.00  0.00     0.024 C 
HETATM   36  C23 UNL     1      43.119  16.063  66.971  1.00  0.00     0.122 C 
HETATM   37  N4  UNL     1      42.157  16.103  65.882  1.00  0.00    -0.393 N 
HETATM   38  C28 UNL     1      41.894  14.844  65.313  1.00  0.00     0.058 C 
HETATM   39  C29 UNL     1      41.606  13.726  66.320  1.00  0.00     0.049 C 
BRANCH  37  40
HETATM   40  C24 UNL     1      41.102  17.013  66.106  1.00  0.00     0.122 C 
BRANCH  40  41
HETATM   41  C25 UNL     1      41.566  18.435  66.101  1.00  0.00     0.035 C 
BRANCH  41  42
HETATM   42  C26 UNL     1      41.104  19.115  67.391  1.00  0.00     0.141 C 
BRANCH  42  43
HETATM   43  S1  UNL     1      42.597  19.599  68.231  1.00  0.00     0.140 S 
HETATM   44  C27 UNL     1      42.790  18.680  69.730  1.00  0.00     0.161 C 
HETATM   45  O1  UNL     1      42.535  21.078  68.569  1.00  0.00    -0.228 OA
HETATM   46  O2  UNL     1      43.746  19.288  67.319  1.00  0.00    -0.228 OA
ENDBRANCH  42  43
ENDBRANCH  41  42
ENDBRANCH  40  41
ENDBRANCH  37  40
ENDBRANCH  33  34
ENDBRANCH  32  33
ENDBRANCH   6  32
TORSDOF 14
ENDMDL
MODEL 5
REMARK VINA RESULT: -7.034216837      4.081      6.470
REMARK  14 active torsions:
REMARK  status: ('A' for Active; 'I' for Inactive)
REMARK    1  A    between atoms: C2_2  and  C4_4 
REMARK    2  A    between atoms: C6_6  and  C7_7 
REMARK    3  A    between atoms: C7_7  and  C9_9 
REMARK    4  A    between atoms: C9_9  and  C10_10 
REMARK    5  A    between atoms: C10_10  and  C11_11 
REMARK    6  A    between atoms: C11_11  and  N1_12 
REMARK    7  A    between atoms: C14_15  and  N2_16 
REMARK    8  A    between atoms: N3_21  and  C19_22 
REMARK    9  A    between atoms: C19_22  and  C20_23 
REMARK   10  A    between atoms: C20_23  and  C21_24 
REMARK   11  A    between atoms: N4_27  and  C24_28 
REMARK   12  A    between atoms: C24_28  and  C25_29 
REMARK   13  A    between atoms: C25_29  and  C26_30 
REMARK   14  A    between atoms: C26_30  and  S1_31 
ROOT
HETATM    1  N2  UNL     1      41.306  13.858  67.615  1.00  0.00    -0.212 N 
HETATM    2  C15 UNL     1      42.698  14.008  67.943  1.00  0.00     0.141 C 
HETATM    3  C16 UNL     1      43.330  12.633  67.883  1.00  0.00     0.022 C 
HETATM    4  C17 UNL     1      43.119  11.943  69.201  1.00  0.00     0.022 C 
HETATM    5  C18 UNL     1      41.833  11.199  69.319  1.00  0.00     0.141 C 
HETATM    6  N3  UNL     1      40.656  12.074  69.369  1.00  0.00    -0.217 N 
HETATM    7  C30 UNL     1      40.343  13.080  68.422  1.00  0.00     0.687 C 
HETATM    8  N5  UNL     1      39.156  13.355  68.233  1.00  0.00    -0.126 N 
ATOM      9  H5  UNL     1      39.143  14.093  67.529  1.00  0.00     0.197 HD
HETATM   10  C31 UNL     1      37.896  13.115  68.540  1.00  0.00     0.196 C 
HETATM   11  N6  UNL     1      36.804  12.912  68.780  1.00  0.00    -0.171 NA
ENDROOT
BRANCH   1  12
HETATM   12  C14 UNL     1      40.733  14.463  66.452  1.00  0.00     0.105 C 
HETATM   13  C13 UNL     1      41.531  14.341  65.201  1.00  0.00     0.056 C 
HETATM   14  C12 UNL     1      42.266  15.589  64.780  1.00  0.00     0.274 C 
HETATM   15  N1  UNL     1      41.325  16.631  64.543  1.00  0.00     0.088 N 
HETATM   16  C33 UNL     1      40.116  16.512  65.314  1.00  0.00     0.274 C 
HETATM   17  C32 UNL     1      40.433  15.952  66.691  1.00  0.00     0.056 C 
BRANCH  15  18
HETATM   18  C11 UNL     1      41.847  17.961  64.744  1.00  0.00     0.272 C 
BRANCH  18  19
HETATM   19  C10 UNL     1      42.955  18.050  65.716  1.00  0.00     0.031 C 
BRANCH  19  20
HETATM   20  C9  UNL     1      42.926  19.211  66.620  1.00  0.00     0.008 C 
BRANCH  20  21
HETATM   21  C7  UNL     1      42.697  19.024  68.070  1.00  0.00     0.011 C 
HETATM   22  C8  UNL     1      43.040  17.675  68.629  1.00  0.00     0.012 C 
BRANCH  21  23
HETATM   23  C6  UNL     1      41.414  19.577  68.618  1.00  0.00     0.136 C 
HETATM   24  C5  UNL     1      40.304  19.799  67.668  1.00  0.00     0.048 C 
HETATM   25  C4  UNL     1      39.019  19.398  68.430  1.00  0.00     0.091 C 
HETATM   26  C34 UNL     1      39.577  18.325  69.282  1.00  0.00     0.263 C 
HETATM   27  O3  UNL     1      40.862  18.715  69.604  1.00  0.00    -0.315 OA
HETATM   28  O4  UNL     1      39.042  17.270  69.661  1.00  0.00    -0.265 OA
BRANCH  25  29
HETATM   29  C2  UNL     1      37.977  18.914  67.454  1.00  0.00    -0.009 C 
HETATM   30  C1  UNL     1      36.582  19.213  67.886  1.00  0.00     0.010 C 
HETATM   31  C3  UNL     1      38.192  19.589  66.118  1.00  0.00     0.010 C 
ENDBRANCH  25  29
ENDBRANCH  21  23
ENDBRANCH  20  21
ENDBRANCH  19  20
ENDBRANCH  18  19
ENDBRANCH  15  18
ENDBRANCH   1  12
BRANCH   6  32
HETATM   32  C19 UNL     1      39.837  11.834  70.537  1.00  0.00     0.141 C 
BRANCH  32  33
HETATM   33  C20 UNL     1      39.782  12.998  71.492  1.00  0.00     0.025 C 
BRANCH  33  34
HETATM   34  C21 UNL     1      41.106  13.450  72.001  1.00  0.00    -0.007 C 
HETATM   35  C22 UNL     1      41.505  14.801  71.431  1.00  0.00     0.024 C 
HETATM   36  C23 UNL     1      42.986  14.938  71.667  1.00  0.00     0.122 C 
HETATM   37  N4  UNL     1      43.224  15.013  73.099  1.00  0.00    -0.393 N 
HETATM   38  C28 UNL     1      42.078  14.766  73.877  1.00  0.00     0.058 C 
HETATM   39  C29 UNL     1      41.276  13.525  73.472  1.00  0.00     0.049 C 
BRANCH  37  40
HETATM   40  C24 UNL     1      44.470  14.475  73.484  1.00  0.00     0.122 C 
BRANCH  40  41
HETATM   41  C25 UNL     1      45.239  13.933  72.321  1.00  0.00     0.035 C 
BRANCH  41  42
HETATM   42  C26 UNL     1      46.730  13.946  72.660  1.00  0.00     0.141 C 
BRANCH  42  43
HETATM   43  S1  UNL     1      47.359  15.464  71.972  1.00  0.00     0.140 S 
HETATM   44  C27 UNL     1      49.007  15.236  71.372  1.00  0.00     0.161 C 
HETATM   45  O1  UNL     1      47.371  16.542  73.041  1.00  0.00    -0.228 OA
HETATM   46  O2  UNL     1      46.470  15.836  70.823  1.00  0.00    -0.228 OA
ENDBRANCH  42  43
ENDBRANCH  41  42
ENDBRANCH  40  41
ENDBRANCH  37  40
ENDBRANCH  33  34
ENDBRANCH  32  33
ENDBRANCH   6  32
TORSDOF 14
ENDMDL
