MODEL 1
REMARK VINA RESULT: -6.515780108      0.000      0.000
REMARK  17 active torsions:
REMARK  status: ('A' for Active; 'I' for Inactive)
REMARK    1  A    between atoms: C2_2  and  O1_3 
REMARK    2  A    between atoms: O1_3  and  C3_4 
REMARK    3  A    between atoms: C3_4  and  C4_6 
REMARK    4  A    between atoms: C5_7  and  C6_8 
REMARK    5  A    between atoms: C6_8  and  C7_9 
REMARK    6  A    between atoms: C7_9  and  C8_10 
REMARK       I    between atoms: C8_10  and  N1_12 
REMARK    7  A    between atoms: N1_12  and  C9_13 
REMARK    8  A    between atoms: N1_12  and  C11_15 
REMARK    9  A    between atoms: N2_20  and  C15_21 
REMARK   10  A    between atoms: C15_21  and  C16_22 
REMARK   11  A    between atoms: C16_22  and  C17_23 
REMARK   12  A    between atoms: C17_23  and  C18_24 
REMARK   13  A    between atoms: C19_25  and  S2_26 
REMARK       I    between atoms: N3_30  and  C22_32 
REMARK   14  A    between atoms: C22_32  and  C23_34 
REMARK   15  A    between atoms: C26_37  and  C27_38 
REMARK   16  A    between atoms: C27_38  and  O7_40 
REMARK   17  A    between atoms: O7_40  and  C28_41 
ROOT
HETATM    1  C4  UNL     1      40.560  17.951  66.695  1.00  0.00     0.121 C 
HETATM    2  C5  UNL     1      39.803  18.864  67.222  1.00  0.00     0.013 C 
HETATM    3  S1  UNL     1      40.192  18.858  69.006  1.00  0.00    -0.104 SA
HETATM    4  C13 UNL     1      41.839  18.032  68.702  1.00  0.00     0.171 C 
HETATM    5  C14 UNL     1      42.322  17.405  69.937  1.00  0.00     0.160 C 
HETATM    6  N2  UNL     1      43.007  16.136  69.695  1.00  0.00    -0.366 N 
HETATM    7  C21 UNL     1      42.321  15.263  68.811  1.00  0.00     0.115 C 
HETATM    8  N3  UNL     1      42.192  14.029  68.969  1.00  0.00    -0.314 N 
ATOM      9  H3  UNL     1      41.659  13.632  68.196  1.00  0.00     0.170 HD
HETATM   10  C22 UNL     1      42.540  13.048  69.849  1.00  0.00     0.226 C 
HETATM   11  O5  UNL     1      42.015  12.922  71.007  1.00  0.00    -0.273 OA
HETATM   12  C26 UNL     1      41.670  15.811  67.554  1.00  0.00     0.254 C 
HETATM   13  N4  UNL     1      41.367  17.192  67.640  1.00  0.00    -0.339 N 
ENDROOT
BRANCH   2  14
HETATM   14  C6  UNL     1      38.829  19.833  66.709  1.00  0.00     0.058 C 
BRANCH  14  15
HETATM   15  C7  UNL     1      37.891  20.318  67.813  1.00  0.00     0.108 C 
BRANCH  15  16
HETATM   16  C8  UNL     1      36.674  19.486  67.875  1.00  0.00     0.220 C 
HETATM   17  O3  UNL     1      36.174  19.070  66.798  1.00  0.00    -0.273 OA
HETATM   18  N1  UNL     1      36.039  19.133  69.092  1.00  0.00    -0.353 N 
BRANCH  18  19
HETATM   19  C9  UNL     1      36.623  19.599  70.329  1.00  0.00     0.121 C 
HETATM   20  C10 UNL     1      37.016  18.338  71.111  1.00  0.00     0.026 C 
ENDBRANCH  18  19
BRANCH  18  21
HETATM   21  C11 UNL     1      34.834  18.337  69.154  1.00  0.00     0.121 C 
HETATM   22  C12 UNL     1      33.595  19.195  69.230  1.00  0.00     0.026 C 
ENDBRANCH  18  21
ENDBRANCH  15  16
ENDBRANCH  14  15
ENDBRANCH   2  14
BRANCH   1  23
HETATM   23  C3  UNL     1      40.602  17.659  65.241  1.00  0.00     0.311 C 
HETATM   24  O2  UNL     1      39.703  16.968  64.682  1.00  0.00    -0.258 OA
BRANCH  23  25
HETATM   25  O1  UNL     1      41.622  18.136  64.473  1.00  0.00    -0.317 OA
BRANCH  25  26
HETATM   26  C2  UNL     1      42.946  17.717  64.543  1.00  0.00     0.175 C 
HETATM   27  C1  UNL     1      42.998  16.213  64.382  1.00  0.00     0.034 C 
ENDBRANCH  25  26
ENDBRANCH  23  25
ENDBRANCH   1  23
BRANCH  12  28
HETATM   28  C27 UNL     1      40.528  14.931  67.190  1.00  0.00     0.290 C 
HETATM   29  O6  UNL     1      40.714  13.900  66.478  1.00  0.00    -0.262 OA
BRANCH  28  30
HETATM   30  O7  UNL     1      39.216  15.150  67.580  1.00  0.00    -0.309 OA
BRANCH  30  31
HETATM   31  C28 UNL     1      38.642  14.615  68.760  1.00  0.00     0.060 C 
HETATM   32  C29 UNL     1      38.926  13.147  68.924  1.00  0.00     0.045 C 
HETATM   33  C30 UNL     1      37.120  14.732  68.595  1.00  0.00     0.045 C 
HETATM   34  C31 UNL     1      39.071  15.330  70.003  1.00  0.00     0.045 C 
ENDBRANCH  30  31
ENDBRANCH  28  30
ENDBRANCH  12  28
BRANCH   6  35
HETATM   35  C15 UNL     1      44.271  15.811  70.241  1.00  0.00     0.124 C 
BRANCH  35  36
HETATM   36  C16 UNL     1      44.388  15.625  71.706  1.00  0.00     0.023 C 
BRANCH  36  37
HETATM   37  C17 UNL     1      45.647  14.773  71.928  1.00  0.00     0.029 C 
BRANCH  37  38
HETATM   38  C18 UNL     1      46.866  15.448  71.454  1.00  0.00    -0.018 C 
HETATM   39  C19 UNL     1      48.088  15.149  71.776  1.00  0.00     0.074 C 
BRANCH  39  40
HETATM   40  S2  UNL     1      49.430  16.057  71.119  1.00  0.00     0.034 S 
HETATM   41  C20 UNL     1      50.895  15.665  72.037  1.00  0.00     0.132 C 
HETATM   42  O4  UNL     1      49.682  15.780  69.500  1.00  0.00    -0.254 OA
ENDBRANCH  39  40
ENDBRANCH  37  38
ENDBRANCH  36  37
ENDBRANCH  35  36
ENDBRANCH   6  35
BRANCH  10  43
HETATM   43  C23 UNL     1      43.591  12.033  69.481  1.00  0.00     0.070 C 
HETATM   44  C24 UNL     1      43.276  11.422  68.149  1.00  0.00     0.019 C 
HETATM   45  C25 UNL     1      43.725  10.968  70.528  1.00  0.00     0.019 C 
ENDBRANCH  10  43
TORSDOF 17
ENDMDL
MODEL 2
REMARK VINA RESULT: -6.223330792      1.885      2.156
REMARK  17 active torsions:
REMARK  status: ('A' for Active; 'I' for Inactive)
REMARK    1  A    between atoms: C2_2  and  O1_3 
REMARK    2  A    between atoms: O1_3  and  C3_4 
REMARK    3  A    between atoms: C3_4  and  C4_6 
REMARK    4  A    between atoms: C5_7  and  C6_8 
REMARK    5  A    between atoms: C6_8  and  C7_9 
REMARK    6  A    between atoms: C7_9  and  C8_10 
REMARK       I    between atoms: C8_10  and  N1_12 
REMARK    7  A    between atoms: N1_12  and  C9_13 
REMARK    8  A    between atoms: N1_12  and  C11_15 
REMARK    9  A    between atoms: N2_20  and  C15_21 
REMARK   10  A    between atoms: C15_21  and  C16_22 
REMARK   11  A    between atoms: C16_22  and  C17_23 
REMARK   12  A    between atoms: C17_23  and  C18_24 
REMARK   13  A    between atoms: C19_25  and  S2_26 
REMARK       I    between atoms: N3_30  and  C22_32 
REMARK   14  A    between atoms: C22_32  and  C23_34 
REMARK   15  A    between atoms: C26_37  and  C27_38 
REMARK   16  A    between atoms: C27_38  and  O7_40 
REMARK   17  A    between atoms: O7_40  and  C28_41 
ROOT
HETATM    1  C4  UNL     1      40.714  18.160  66.619  1.00  0.00     0.121 C 
HETATM    2  C5  UNL     1      40.011  19.111  67.155  1.00  0.00     0.013 C 
HETATM    3  S1  UNL     1      40.430  19.094  68.932  1.00  0.00    -0.104 SA
HETATM    4  C13 UNL     1      42.030  18.188  68.604  1.00  0.00     0.171 C 
HETATM    5  C14 UNL     1      42.504  17.544  69.834  1.00  0.00     0.160 C 
HETATM    6  N2  UNL     1      43.123  16.242  69.586  1.00  0.00    -0.366 N 
HETATM    7  C21 UNL     1      42.380  15.400  68.718  1.00  0.00     0.115 C 
HETATM    8  N3  UNL     1      42.194  14.174  68.885  1.00  0.00    -0.314 N 
ATOM      9  H3  UNL     1      41.629  13.800  68.123  1.00  0.00     0.170 HD
HETATM   10  C22 UNL     1      42.510  13.181  69.764  1.00  0.00     0.226 C 
HETATM   11  O5  UNL     1      42.000  13.086  70.931  1.00  0.00    -0.273 OA
HETATM   12  C26 UNL     1      41.734  15.973  67.470  1.00  0.00     0.254 C 
HETATM   13  N4  UNL     1      41.500  17.367  67.555  1.00  0.00    -0.339 N 
ENDROOT
BRANCH   2  14
HETATM   14  C6  UNL     1      39.076  20.124  66.654  1.00  0.00     0.058 C 
BRANCH  14  15
HETATM   15  C7  UNL     1      38.059  20.521  67.723  1.00  0.00     0.108 C 
BRANCH  15  16
HETATM   16  C8  UNL     1      36.919  19.583  67.740  1.00  0.00     0.220 C 
HETATM   17  O3  UNL     1      36.483  19.145  66.645  1.00  0.00    -0.273 OA
HETATM   18  N1  UNL     1      36.290  19.152  68.935  1.00  0.00    -0.353 N 
BRANCH  18  19
HETATM   19  C9  UNL     1      36.801  19.645  70.194  1.00  0.00     0.121 C 
HETATM   20  C10 UNL     1      37.085  18.402  71.049  1.00  0.00     0.026 C 
ENDBRANCH  18  19
BRANCH  18  21
HETATM   21  C11 UNL     1      35.159  18.252  68.954  1.00  0.00     0.121 C 
HETATM   22  C12 UNL     1      33.850  18.987  68.802  1.00  0.00     0.026 C 
ENDBRANCH  18  21
ENDBRANCH  15  16
ENDBRANCH  14  15
ENDBRANCH   2  14
BRANCH   1  23
HETATM   23  C3  UNL     1      40.716  17.861  65.167  1.00  0.00     0.311 C 
HETATM   24  O2  UNL     1      39.692  17.399  64.588  1.00  0.00    -0.258 OA
BRANCH  23  25
HETATM   25  O1  UNL     1      41.836  18.080  64.421  1.00  0.00    -0.317 OA
BRANCH  25  26
HETATM   26  C2  UNL     1      42.971  17.277  64.416  1.00  0.00     0.175 C 
HETATM   27  C1  UNL     1      42.576  15.868  64.031  1.00  0.00     0.034 C 
ENDBRANCH  25  26
ENDBRANCH  23  25
ENDBRANCH   1  23
BRANCH  12  28
HETATM   28  C27 UNL     1      40.545  15.148  67.130  1.00  0.00     0.290 C 
HETATM   29  O6  UNL     1      40.665  14.120  66.400  1.00  0.00    -0.262 OA
BRANCH  28  30
HETATM   30  O7  UNL     1      39.256  15.417  67.563  1.00  0.00    -0.309 OA
BRANCH  30  31
HETATM   31  C28 UNL     1      38.677  14.852  68.726  1.00  0.00     0.060 C 
HETATM   32  C29 UNL     1      38.877  13.363  68.804  1.00  0.00     0.045 C 
HETATM   33  C30 UNL     1      37.162  15.066  68.608  1.00  0.00     0.045 C 
HETATM   34  C31 UNL     1      39.176  15.471  69.995  1.00  0.00     0.045 C 
ENDBRANCH  30  31
ENDBRANCH  28  30
ENDBRANCH  12  28
BRANCH   6  35
HETATM   35  C15 UNL     1      44.379  15.859  70.112  1.00  0.00     0.124 C 
BRANCH  35  36
HETATM   36  C16 UNL     1      44.494  15.600  71.566  1.00  0.00     0.023 C 
BRANCH  36  37
HETATM   37  C17 UNL     1      45.669  14.625  71.733  1.00  0.00     0.029 C 
BRANCH  37  38
HETATM   38  C18 UNL     1      45.277  13.401  72.450  1.00  0.00    -0.018 C 
HETATM   39  C19 UNL     1      46.047  12.394  72.736  1.00  0.00     0.074 C 
BRANCH  39  40
HETATM   40  S2  UNL     1      45.420  11.010  73.599  1.00  0.00     0.034 S 
HETATM   41  C20 UNL     1      45.924   9.531  72.759  1.00  0.00     0.132 C 
HETATM   42  O4  UNL     1      45.898  10.952  75.188  1.00  0.00    -0.254 OA
ENDBRANCH  39  40
ENDBRANCH  37  38
ENDBRANCH  36  37
ENDBRANCH  35  36
ENDBRANCH   6  35
BRANCH  10  43
HETATM   43  C23 UNL     1      43.504  12.116  69.383  1.00  0.00     0.070 C 
HETATM   44  C24 UNL     1      43.300  11.703  67.957  1.00  0.00     0.019 C 
HETATM   45  C25 UNL     1      43.417  10.925  70.291  1.00  0.00     0.019 C 
ENDBRANCH  10  43
TORSDOF 17
ENDMDL
MODEL 3
REMARK VINA RESULT: -6.100192464      1.948      3.009
REMARK  17 active torsions:
REMARK  status: ('A' for Active; 'I' for Inactive)
REMARK    1  A    between atoms: C2_2  and  O1_3 
REMARK    2  A    between atoms: O1_3  and  C3_4 
REMARK    3  A    between atoms: C3_4  and  C4_6 
REMARK    4  A    between atoms: C5_7  and  C6_8 
REMARK    5  A    between atoms: C6_8  and  C7_9 
REMARK    6  A    between atoms: C7_9  and  C8_10 
REMARK       I    between atoms: C8_10  and  N1_12 
REMARK    7  A    between atoms: N1_12  and  C9_13 
REMARK    8  A    between atoms: N1_12  and  C11_15 
REMARK    9  A    between atoms: N2_20  and  C15_21 
REMARK   10  A    between atoms: C15_21  and  C16_22 
REMARK   11  A    between atoms: C16_22  and  C17_23 
REMARK   12  A    between atoms: C17_23  and  C18_24 
REMARK   13  A    between atoms: C19_25  and  S2_26 
REMARK       I    between atoms: N3_30  and  C22_32 
REMARK   14  A    between atoms: C22_32  and  C23_34 
REMARK   15  A    between atoms: C26_37  and  C27_38 
REMARK   16  A    between atoms: C27_38  and  O7_40 
REMARK   17  A    between atoms: O7_40  and  C28_41 
ROOT
HETATM    1  C4  UNL     1      39.577  18.492  68.874  1.00  0.00     0.121 C 
HETATM    2  C5  UNL     1      38.554  18.855  69.587  1.00  0.00     0.013 C 
HETATM    3  S1  UNL     1      38.435  17.631  70.937  1.00  0.00    -0.104 SA
HETATM    4  C13 UNL     1      40.222  17.134  70.721  1.00  0.00     0.171 C 
HETATM    5  C14 UNL     1      40.453  15.815  71.320  1.00  0.00     0.160 C 
HETATM    6  N2  UNL     1      41.393  15.003  70.549  1.00  0.00    -0.366 N 
HETATM    7  C21 UNL     1      41.141  14.989  69.152  1.00  0.00     0.115 C 
HETATM    8  N3  UNL     1      41.197  13.977  68.418  1.00  0.00    -0.314 N 
ATOM      9  H3  UNL     1      40.975  14.232  67.456  1.00  0.00     0.170 HD
HETATM   10  C22 UNL     1      41.460  12.643  68.499  1.00  0.00     0.226 C 
HETATM   11  O5  UNL     1      40.670  11.801  69.045  1.00  0.00    -0.273 OA
HETATM   12  C26 UNL     1      40.772  16.273  68.433  1.00  0.00     0.254 C 
HETATM   13  N4  UNL     1      40.216  17.252  69.292  1.00  0.00    -0.339 N 
ENDROOT
BRANCH   2  14
HETATM   14  C6  UNL     1      37.601  19.969  69.549  1.00  0.00     0.058 C 
BRANCH  14  15
HETATM   15  C7  UNL     1      36.376  19.684  70.417  1.00  0.00     0.108 C 
BRANCH  15  16
HETATM   16  C8  UNL     1      35.257  19.176  69.601  1.00  0.00     0.220 C 
HETATM   17  O3  UNL     1      35.280  19.374  68.359  1.00  0.00    -0.273 OA
HETATM   18  N1  UNL     1      34.153  18.478  70.150  1.00  0.00    -0.353 N 
BRANCH  18  19
HETATM   19  C9  UNL     1      34.134  18.239  71.575  1.00  0.00     0.121 C 
HETATM   20  C10 UNL     1      34.519  16.764  71.761  1.00  0.00     0.026 C 
ENDBRANCH  18  19
BRANCH  18  21
HETATM   21  C11 UNL     1      33.043  18.000  69.355  1.00  0.00     0.121 C 
HETATM   22  C12 UNL     1      31.761  18.724  69.683  1.00  0.00     0.026 C 
ENDBRANCH  18  21
ENDBRANCH  15  16
ENDBRANCH  14  15
ENDBRANCH   2  14
BRANCH   1  23
HETATM   23  C3  UNL     1      40.066  19.250  67.697  1.00  0.00     0.311 C 
HETATM   24  O2  UNL     1      39.359  19.380  66.657  1.00  0.00    -0.258 OA
BRANCH  23  25
HETATM   25  O1  UNL     1      41.301  19.828  67.715  1.00  0.00    -0.317 OA
BRANCH  25  26
HETATM   26  C2  UNL     1      41.994  20.211  68.858  1.00  0.00     0.175 C 
HETATM   27  C1  UNL     1      43.306  19.459  68.914  1.00  0.00     0.034 C 
ENDBRANCH  25  26
ENDBRANCH  23  25
ENDBRANCH   1  23
BRANCH  12  28
HETATM   28  C27 UNL     1      39.950  15.930  67.243  1.00  0.00     0.290 C 
HETATM   29  O6  UNL     1      38.917  15.208  67.364  1.00  0.00    -0.262 OA
BRANCH  28  30
HETATM   30  O7  UNL     1      40.228  16.352  65.952  1.00  0.00    -0.309 OA
BRANCH  30  31
HETATM   31  C28 UNL     1      41.413  16.024  65.249  1.00  0.00     0.060 C 
HETATM   32  C29 UNL     1      42.652  16.506  65.953  1.00  0.00     0.045 C 
HETATM   33  C30 UNL     1      41.360  16.791  63.921  1.00  0.00     0.045 C 
HETATM   34  C31 UNL     1      41.553  14.558  64.980  1.00  0.00     0.045 C 
ENDBRANCH  30  31
ENDBRANCH  28  30
ENDBRANCH  12  28
BRANCH   6  35
HETATM   35  C15 UNL     1      42.496  14.327  71.121  1.00  0.00     0.124 C 
BRANCH  35  36
HETATM   36  C16 UNL     1      43.862  14.684  70.672  1.00  0.00     0.023 C 
BRANCH  36  37
HETATM   37  C17 UNL     1      44.816  14.174  71.763  1.00  0.00     0.029 C 
BRANCH  37  38
HETATM   38  C18 UNL     1      45.987  15.050  71.929  1.00  0.00    -0.018 C 
HETATM   39  C19 UNL     1      47.168  14.690  72.334  1.00  0.00     0.074 C 
BRANCH  39  40
HETATM   40  S2  UNL     1      48.456  15.863  72.478  1.00  0.00     0.034 S 
HETATM   41  C20 UNL     1      49.179  16.124  70.879  1.00  0.00     0.132 C 
HETATM   42  O4  UNL     1      47.959  17.312  73.120  1.00  0.00    -0.254 OA
ENDBRANCH  39  40
ENDBRANCH  37  38
ENDBRANCH  36  37
ENDBRANCH  35  36
ENDBRANCH   6  35
BRANCH  10  43
HETATM   43  C23 UNL     1      42.734  12.082  67.925  1.00  0.00     0.070 C 
HETATM   44  C24 UNL     1      42.427  11.166  66.778  1.00  0.00     0.019 C 
HETATM   45  C25 UNL     1      43.545  11.367  68.964  1.00  0.00     0.019 C 
ENDBRANCH  10  43
TORSDOF 17
ENDMDL
MODEL 4
REMARK VINA RESULT: -6.049028900      2.665      4.135
REMARK  17 active torsions:
REMARK  status: ('A' for Active; 'I' for Inactive)
REMARK    1  A    between atoms: C2_2  and  O1_3 
REMARK    2  A    between atoms: O1_3  and  C3_4 
REMARK    3  A    between atoms: C3_4  and  C4_6 
REMARK    4  A    between atoms: C5_7  and  C6_8 
REMARK    5  A    between atoms: C6_8  and  C7_9 
REMARK    6  A    between atoms: C7_9  and  C8_10 
REMARK       I    between atoms: C8_10  and  N1_12 
REMARK    7  A    between atoms: N1_12  and  C9_13 
REMARK    8  A    between atoms: N1_12  and  C11_15 
REMARK    9  A    between atoms: N2_20  and  C15_21 
REMARK   10  A    between atoms: C15_21  and  C16_22 
REMARK   11  A    between atoms: C16_22  and  C17_23 
REMARK   12  A    between atoms: C17_23  and  C18_24 
REMARK   13  A    between atoms: C19_25  and  S2_26 
REMARK       I    between atoms: N3_30  and  C22_32 
REMARK   14  A    between atoms: C22_32  and  C23_34 
REMARK   15  A    between atoms: C26_37  and  C27_38 
REMARK   16  A    between atoms: C27_38  and  O7_40 
REMARK   17  A    between atoms: O7_40  and  C28_41 
ROOT
HETATM    1  C4  UNL     1      39.637  17.769  67.815  1.00  0.00     0.121 C 
HETATM    2  C5  UNL     1      38.538  17.824  67.125  1.00  0.00     0.013 C 
HETATM    3  S1  UNL     1      37.741  16.195  67.334  1.00  0.00    -0.104 SA
HETATM    4  C13 UNL     1      38.714  15.855  68.891  1.00  0.00     0.171 C 
HETATM    5  C14 UNL     1      38.727  14.415  69.173  1.00  0.00     0.160 C 
HETATM    6  N2  UNL     1      40.003  13.959  69.720  1.00  0.00    -0.366 N 
HETATM    7  C21 UNL     1      41.142  14.441  69.023  1.00  0.00     0.115 C 
HETATM    8  N3  UNL     1      42.152  13.763  68.732  1.00  0.00    -0.314 N 
ATOM      9  H3  UNL     1      42.828  14.340  68.233  1.00  0.00     0.170 HD
HETATM   10  C22 UNL     1      42.633  12.495  68.871  1.00  0.00     0.226 C 
HETATM   11  O5  UNL     1      42.176  11.493  68.225  1.00  0.00    -0.273 OA
HETATM   12  C26 UNL     1      41.199  15.888  68.569  1.00  0.00     0.254 C 
HETATM   13  N4  UNL     1      39.920  16.479  68.428  1.00  0.00    -0.339 N 
ENDROOT
BRANCH   2  14
HETATM   14  C6  UNL     1      37.859  18.853  66.330  1.00  0.00     0.058 C 
BRANCH  14  15
HETATM   15  C7  UNL     1      36.951  19.721  67.200  1.00  0.00     0.108 C 
BRANCH  15  16
HETATM   16  C8  UNL     1      35.575  19.188  67.224  1.00  0.00     0.220 C 
HETATM   17  O3  UNL     1      35.013  18.926  66.130  1.00  0.00    -0.273 OA
HETATM   18  N1  UNL     1      34.854  18.959  68.423  1.00  0.00    -0.353 N 
BRANCH  18  19
HETATM   19  C9  UNL     1      35.507  19.246  69.679  1.00  0.00     0.121 C 
HETATM   20  C10 UNL     1      35.863  17.884  70.292  1.00  0.00     0.026 C 
ENDBRANCH  18  19
BRANCH  18  21
HETATM   21  C11 UNL     1      33.498  18.458  68.448  1.00  0.00     0.121 C 
HETATM   22  C12 UNL     1      32.506  19.536  68.811  1.00  0.00     0.026 C 
ENDBRANCH  18  21
ENDBRANCH  15  16
ENDBRANCH  14  15
ENDBRANCH   2  14
BRANCH   1  23
HETATM   23  C3  UNL     1      40.570  18.911  67.963  1.00  0.00     0.311 C 
HETATM   24  O2  UNL     1      40.965  19.574  66.961  1.00  0.00    -0.258 OA
BRANCH  23  25
HETATM   25  O1  UNL     1      41.025  19.273  69.196  1.00  0.00    -0.317 OA
BRANCH  25  26
HETATM   26  C2  UNL     1      42.358  19.287  69.591  1.00  0.00     0.175 C 
HETATM   27  C1  UNL     1      42.946  20.650  69.296  1.00  0.00     0.034 C 
ENDBRANCH  25  26
ENDBRANCH  23  25
ENDBRANCH   1  23
BRANCH  12  28
HETATM   28  C27 UNL     1      42.075  15.974  67.371  1.00  0.00     0.290 C 
HETATM   29  O6  UNL     1      43.195  16.562  67.436  1.00  0.00    -0.262 OA
BRANCH  28  30
HETATM   30  O7  UNL     1      41.759  15.441  66.131  1.00  0.00    -0.309 OA
BRANCH  30  31
HETATM   31  C28 UNL     1      41.792  16.177  64.921  1.00  0.00     0.060 C 
HETATM   32  C29 UNL     1      40.422  16.606  64.471  1.00  0.00     0.045 C 
HETATM   33  C30 UNL     1      42.307  15.217  63.840  1.00  0.00     0.045 C 
HETATM   34  C31 UNL     1      42.676  17.383  64.986  1.00  0.00     0.045 C 
ENDBRANCH  30  31
ENDBRANCH  28  30
ENDBRANCH  12  28
BRANCH   6  35
HETATM   35  C15 UNL     1      40.116  13.152  70.876  1.00  0.00     0.124 C 
BRANCH  35  36
HETATM   36  C16 UNL     1      39.972  13.787  72.206  1.00  0.00     0.023 C 
BRANCH  36  37
HETATM   37  C17 UNL     1      41.357  13.712  72.867  1.00  0.00     0.029 C 
BRANCH  37  38
HETATM   38  C18 UNL     1      41.887  15.044  73.199  1.00  0.00    -0.018 C 
HETATM   39  C19 UNL     1      41.898  16.086  72.422  1.00  0.00     0.074 C 
BRANCH  39  40
HETATM   40  S2  UNL     1      42.570  17.602  72.974  1.00  0.00     0.034 S 
HETATM   41  C20 UNL     1      41.621  18.182  74.356  1.00  0.00     0.132 C 
HETATM   42  O4  UNL     1      44.175  17.499  73.390  1.00  0.00    -0.254 OA
ENDBRANCH  39  40
ENDBRANCH  37  38
ENDBRANCH  36  37
ENDBRANCH  35  36
ENDBRANCH   6  35
BRANCH  10  43
HETATM   43  C23 UNL     1      43.765  12.212  69.823  1.00  0.00     0.070 C 
HETATM   44  C24 UNL     1      43.415  11.060  70.717  1.00  0.00     0.019 C 
HETATM   45  C25 UNL     1      44.121  13.418  70.638  1.00  0.00     0.019 C 
ENDBRANCH  10  43
TORSDOF 17
ENDMDL
MODEL 5
REMARK VINA RESULT: -6.039794822      2.941      8.106
REMARK  17 active torsions:
REMARK  status: ('A' for Active; 'I' for Inactive)
REMARK    1  A    between atoms: C2_2  and  O1_3 
REMARK    2  A    between atoms: O1_3  and  C3_4 
REMARK    3  A    between atoms: C3_4  and  C4_6 
REMARK    4  A    between atoms: C5_7  and  C6_8 
REMARK    5  A    between atoms: C6_8  and  C7_9 
REMARK    6  A    between atoms: C7_9  and  C8_10 
REMARK       I    between atoms: C8_10  and  N1_12 
REMARK    7  A    between atoms: N1_12  and  C9_13 
REMARK    8  A    between atoms: N1_12  and  C11_15 
REMARK    9  A    between atoms: N2_20  and  C15_21 
REMARK   10  A    between atoms: C15_21  and  C16_22 
REMARK   11  A    between atoms: C16_22  and  C17_23 
REMARK   12  A    between atoms: C17_23  and  C18_24 
REMARK   13  A    between atoms: C19_25  and  S2_26 
REMARK       I    between atoms: N3_30  and  C22_32 
REMARK   14  A    between atoms: C22_32  and  C23_34 
REMARK   15  A    between atoms: C26_37  and  C27_38 
REMARK   16  A    between atoms: C27_38  and  O7_40 
REMARK   17  A    between atoms: O7_40  and  C28_41 
ROOT
HETATM    1  C4  UNL     1      42.897  13.962  68.906  1.00  0.00     0.121 C 
HETATM    2  C5  UNL     1      42.966  12.679  68.721  1.00  0.00     0.013 C 
HETATM    3  S1  UNL     1      42.025  12.350  67.191  1.00  0.00    -0.104 SA
HETATM    4  C13 UNL     1      42.198  14.124  66.635  1.00  0.00     0.171 C 
HETATM    5  C14 UNL     1      41.176  14.439  65.631  1.00  0.00     0.160 C 
HETATM    6  N2  UNL     1      40.656  15.799  65.762  1.00  0.00    -0.366 N 
HETATM    7  C21 UNL     1      40.321  16.169  67.091  1.00  0.00     0.115 C 
HETATM    8  N3  UNL     1      39.297  16.803  67.428  1.00  0.00    -0.314 N 
ATOM      9  H3  UNL     1      39.290  16.942  68.438  1.00  0.00     0.170 HD
HETATM   10  C22 UNL     1      38.188  17.366  66.871  1.00  0.00     0.226 C 
HETATM   11  O5  UNL     1      37.215  16.687  66.399  1.00  0.00    -0.273 OA
HETATM   12  C26 UNL     1      41.240  15.795  68.239  1.00  0.00     0.254 C 
HETATM   13  N4  UNL     1      42.069  14.684  67.950  1.00  0.00    -0.339 N 
ENDROOT
BRANCH   2  14
HETATM   14  C6  UNL     1      43.624  11.562  69.406  1.00  0.00     0.058 C 
BRANCH  14  15
HETATM   15  C7  UNL     1      42.716  10.947  70.470  1.00  0.00     0.108 C 
BRANCH  15  16
HETATM   16  C8  UNL     1      43.495  10.140  71.428  1.00  0.00     0.220 C 
HETATM   17  O3  UNL     1      44.733  10.344  71.518  1.00  0.00    -0.273 OA
HETATM   18  N1  UNL     1      42.916   9.144  72.252  1.00  0.00    -0.353 N 
BRANCH  18  19
HETATM   19  C9  UNL     1      41.491   8.922  72.158  1.00  0.00     0.121 C 
HETATM   20  C10 UNL     1      40.889   9.487  73.452  1.00  0.00     0.026 C 
ENDBRANCH  18  19
BRANCH  18  21
HETATM   21  C11 UNL     1      43.681   8.336  73.175  1.00  0.00     0.121 C 
HETATM   22  C12 UNL     1      43.879   6.930  72.664  1.00  0.00     0.026 C 
ENDBRANCH  18  21
ENDBRANCH  15  16
ENDBRANCH  14  15
ENDBRANCH   2  14
BRANCH   1  23
HETATM   23  C3  UNL     1      43.579  14.668  70.018  1.00  0.00     0.311 C 
HETATM   24  O2  UNL     1      44.570  15.424  69.809  1.00  0.00    -0.258 OA
BRANCH  23  25
HETATM   25  O1  UNL     1      43.144  14.512  71.301  1.00  0.00    -0.317 OA
BRANCH  25  26
HETATM   26  C2  UNL     1      42.940  15.542  72.212  1.00  0.00     0.175 C 
HETATM   27  C1  UNL     1      41.715  15.229  73.045  1.00  0.00     0.034 C 
ENDBRANCH  25  26
ENDBRANCH  23  25
ENDBRANCH   1  23
BRANCH  12  28
HETATM   28  C27 UNL     1      40.426  15.675  69.478  1.00  0.00     0.290 C 
HETATM   29  O6  UNL     1      40.192  16.694  70.193  1.00  0.00    -0.262 OA
BRANCH  28  30
HETATM   30  O7  UNL     1      39.874  14.490  69.939  1.00  0.00    -0.309 OA
BRANCH  30  31
HETATM   31  C28 UNL     1      38.524  14.113  69.735  1.00  0.00     0.060 C 
HETATM   32  C29 UNL     1      37.569  15.255  69.951  1.00  0.00     0.045 C 
HETATM   33  C30 UNL     1      38.191  13.078  70.818  1.00  0.00     0.045 C 
HETATM   34  C31 UNL     1      38.272  13.525  68.382  1.00  0.00     0.045 C 
ENDBRANCH  30  31
ENDBRANCH  28  30
ENDBRANCH  12  28
BRANCH   6  35
HETATM   35  C15 UNL     1      40.542  16.702  64.679  1.00  0.00     0.124 C 
BRANCH  35  36
HETATM   36  C16 UNL     1      41.080  18.073  64.834  1.00  0.00     0.023 C 
BRANCH  36  37
HETATM   37  C17 UNL     1      42.609  17.929  64.878  1.00  0.00     0.029 C 
BRANCH  37  38
HETATM   38  C18 UNL     1      43.179  18.441  66.134  1.00  0.00    -0.018 C 
HETATM   39  C19 UNL     1      42.517  18.931  67.139  1.00  0.00     0.074 C 
BRANCH  39  40
HETATM   40  S2  UNL     1      43.353  19.498  68.565  1.00  0.00     0.034 S 
HETATM   41  C20 UNL     1      42.688  21.075  69.033  1.00  0.00     0.132 C 
HETATM   42  O4  UNL     1      43.266  18.442  69.843  1.00  0.00    -0.254 OA
ENDBRANCH  39  40
ENDBRANCH  37  38
ENDBRANCH  36  37
ENDBRANCH  35  36
ENDBRANCH   6  35
BRANCH  10  43
HETATM   43  C23 UNL     1      38.054  18.864  66.789  1.00  0.00     0.070 C 
HETATM   44  C24 UNL     1      38.875  19.516  67.860  1.00  0.00     0.019 C 
HETATM   45  C25 UNL     1      36.624  19.300  66.886  1.00  0.00     0.019 C 
ENDBRANCH  10  43
TORSDOF 17
ENDMDL
