MODEL 1
REMARK VINA RESULT: -6.385037666      0.000      0.000
REMARK  17 active torsions:
REMARK  status: ('A' for Active; 'I' for Inactive)
REMARK    1  A    between atoms: C2_2  and  O1_4 
REMARK    2  A    between atoms: O1_4  and  C4_5 
REMARK       I    between atoms: C4_5  and  N1_7 
REMARK    3  A    between atoms: N2_12  and  C9_13 
REMARK    4  A    between atoms: C9_13  and  C10_14 
REMARK    5  A    between atoms: C10_14  and  C11_15 
REMARK    6  A    between atoms: C11_15  and  N3_16 
REMARK    7  A    between atoms: N3_16  and  C14_19 
REMARK    8  A    between atoms: C14_19  and  C15_20 
REMARK    9  A    between atoms: C15_20  and  C16_21 
REMARK   10  A    between atoms: C16_21  and  C17_22 
REMARK   11  A    between atoms: C17_22  and  C18_23 
REMARK   12  A    between atoms: C18_23  and  C19_24 
REMARK   13  A    between atoms: C19_24  and  N4_25 
REMARK       I    between atoms: N4_25  and  C20_26 
REMARK   14  A    between atoms: N4_25  and  C25_35 
REMARK   15  A    between atoms: C20_26  and  O4_28 
REMARK   16  A    between atoms: O4_28  and  C21_29 
REMARK   17  A    between atoms: C21_29  and  C22_30 
ROOT
HETATM    1  C14 UNL     1      38.789  13.155  70.402  1.00  0.00     0.201 C 
ENDROOT
BRANCH   1   2
HETATM    2  N3  UNL     1      40.176  13.163  70.546  1.00  0.00    -0.055 N 
HETATM    3  C12 UNL     1      40.582  14.423  71.201  1.00  0.00     0.277 C 
HETATM    4  C13 UNL     1      40.719  12.084  71.392  1.00  0.00     0.277 C 
BRANCH   2   5
HETATM    5  C11 UNL     1      40.951  13.176  69.293  1.00  0.00     0.243 C 
BRANCH   5   6
HETATM    6  C10 UNL     1      41.122  14.493  68.630  1.00  0.00     0.056 C 
BRANCH   6   7
HETATM    7  C9  UNL     1      40.326  14.750  67.407  1.00  0.00     0.241 C 
BRANCH   7   8
HETATM    8  N2  UNL     1      40.813  15.608  66.384  1.00  0.00    -0.051 N 
HETATM    9  C8  UNL     1      39.879  16.085  65.432  1.00  0.00     0.240 C 
HETATM   10  C7  UNL     1      40.469  16.264  64.064  1.00  0.00     0.034 C 
HETATM   11  C6  UNL     1      41.868  16.861  64.138  1.00  0.00     0.007 C 
HETATM   12  C5  UNL     1      41.731  18.128  64.949  1.00  0.00     0.134 C 
HETATM   13  C30 UNL     1      42.778  15.924  64.904  1.00  0.00     0.034 C 
HETATM   14  N1  UNL     1      41.882  17.804  66.335  1.00  0.00    -0.303 N 
HETATM   15  C4  UNL     1      42.852  18.617  67.019  1.00  0.00     0.364 C 
HETATM   16  C31 UNL     1      41.236  16.835  67.141  1.00  0.00     0.366 C 
HETATM   17  O2  UNL     1      43.479  19.522  66.414  1.00  0.00    -0.238 OA
HETATM   18  C29 UNL     1      41.962  15.012  65.792  1.00  0.00     0.240 C 
BRANCH  15  19
HETATM   19  O1  UNL     1      43.138  18.443  68.369  1.00  0.00    -0.299 OA
BRANCH  19  20
HETATM   20  C2  UNL     1      42.581  19.206  69.394  1.00  0.00     0.125 C 
HETATM   21  C1  UNL     1      43.368  20.495  69.623  1.00  0.00     0.040 C 
HETATM   22  C3  UNL     1      42.643  18.420  70.683  1.00  0.00     0.040 C 
ENDBRANCH  19  20
ENDBRANCH  15  19
ENDBRANCH   7   8
ENDBRANCH   6   7
ENDBRANCH   5   6
ENDBRANCH   2   5
ENDBRANCH   1   2
BRANCH   1  23
HETATM   23  C15 UNL     1      37.899  14.299  70.463  1.00  0.00     0.021 C 
BRANCH  23  24
HETATM   24  C16 UNL     1      37.355  15.077  69.347  1.00  0.00    -0.025 C 
BRANCH  24  25
HETATM   25  C17 UNL     1      37.378  16.544  69.296  1.00  0.00     0.029 C 
BRANCH  25  26
HETATM   26  C18 UNL     1      35.965  17.109  69.544  1.00  0.00     0.024 C 
BRANCH  26  27
HETATM   27  C19 UNL     1      35.941  18.575  69.344  1.00  0.00     0.134 C 
BRANCH  27  28
HETATM   28  N4  UNL     1      34.732  18.940  68.535  1.00  0.00    -0.297 N 
HETATM   29  C20 UNL     1      34.944  18.969  67.156  1.00  0.00     0.367 C 
HETATM   30  O3  UNL     1      34.032  19.245  66.362  1.00  0.00    -0.238 OA
BRANCH  29  31
HETATM   31  O4  UNL     1      36.184  18.687  66.629  1.00  0.00    -0.299 OA
BRANCH  31  32
HETATM   32  C21 UNL     1      36.833  19.615  65.776  1.00  0.00     0.241 C 
BRANCH  32  33
HETATM   33  C22 UNL     1      38.330  19.373  65.859  1.00  0.00     0.283 C 
HETATM   34  O5  UNL     1      38.715  18.950  67.106  1.00  0.00    -0.357 OA
HETATM   35  C23 UNL     1      38.993  20.089  67.845  1.00  0.00     0.197 C 
HETATM   36  C24 UNL     1      39.038  21.200  66.831  1.00  0.00     0.197 C 
HETATM   37  O6  UNL     1      39.023  20.549  65.600  1.00  0.00    -0.357 OA
ENDBRANCH  32  33
ENDBRANCH  31  32
ENDBRANCH  29  31
BRANCH  28  38
HETATM   38  C25 UNL     1      33.526  19.209  69.264  1.00  0.00     0.024 C 
HETATM   39  C26 UNL     1      32.468  18.197  69.277  1.00  0.00     0.010 C 
HETATM   40  C27 UNL     1      32.511  16.988  70.097  1.00  0.00     0.115 C 
HETATM   41  S1  UNL     1      32.724  17.323  71.878  1.00  0.00    -0.093 SA
HETATM   42  S2  UNL     1      34.056  18.990  72.000  1.00  0.00    -0.091 SA
HETATM   43  C28 UNL     1      33.759  19.978  70.546  1.00  0.00     0.143 C 
ENDBRANCH  28  38
ENDBRANCH  27  28
ENDBRANCH  26  27
ENDBRANCH  25  26
ENDBRANCH  24  25
ENDBRANCH  23  24
ENDBRANCH   1  23
TORSDOF 17
ENDMDL
MODEL 2
REMARK VINA RESULT: -6.251185443      2.447      4.482
REMARK  17 active torsions:
REMARK  status: ('A' for Active; 'I' for Inactive)
REMARK    1  A    between atoms: C2_2  and  O1_4 
REMARK    2  A    between atoms: O1_4  and  C4_5 
REMARK       I    between atoms: C4_5  and  N1_7 
REMARK    3  A    between atoms: N2_12  and  C9_13 
REMARK    4  A    between atoms: C9_13  and  C10_14 
REMARK    5  A    between atoms: C10_14  and  C11_15 
REMARK    6  A    between atoms: C11_15  and  N3_16 
REMARK    7  A    between atoms: N3_16  and  C14_19 
REMARK    8  A    between atoms: C14_19  and  C15_20 
REMARK    9  A    between atoms: C15_20  and  C16_21 
REMARK   10  A    between atoms: C16_21  and  C17_22 
REMARK   11  A    between atoms: C17_22  and  C18_23 
REMARK   12  A    between atoms: C18_23  and  C19_24 
REMARK   13  A    between atoms: C19_24  and  N4_25 
REMARK       I    between atoms: N4_25  and  C20_26 
REMARK   14  A    between atoms: N4_25  and  C25_35 
REMARK   15  A    between atoms: C20_26  and  O4_28 
REMARK   16  A    between atoms: O4_28  and  C21_29 
REMARK   17  A    between atoms: C21_29  and  C22_30 
ROOT
HETATM    1  C14 UNL     1      36.489  12.260  69.251  1.00  0.00     0.201 C 
ENDROOT
BRANCH   1   2
HETATM    2  N3  UNL     1      36.903  11.117  69.934  1.00  0.00    -0.055 N 
HETATM    3  C12 UNL     1      35.731  10.498  70.587  1.00  0.00     0.277 C 
HETATM    4  C13 UNL     1      37.485  10.062  69.084  1.00  0.00     0.277 C 
BRANCH   2   5
HETATM    5  C11 UNL     1      37.828  11.341  71.058  1.00  0.00     0.243 C 
BRANCH   5   6
HETATM    6  C10 UNL     1      39.246  10.956  70.840  1.00  0.00     0.056 C 
BRANCH   6   7
HETATM    7  C9  UNL     1      40.263  12.030  70.910  1.00  0.00     0.241 C 
BRANCH   7   8
HETATM    8  N2  UNL     1      41.252  12.168  69.898  1.00  0.00    -0.051 N 
HETATM    9  C8  UNL     1      40.870  11.871  68.568  1.00  0.00     0.240 C 
HETATM   10  C7  UNL     1      41.982  11.275  67.753  1.00  0.00     0.034 C 
HETATM   11  C6  UNL     1      43.308  11.966  68.039  1.00  0.00     0.007 C 
HETATM   12  C5  UNL     1      43.063  13.438  67.811  1.00  0.00     0.134 C 
HETATM   13  C30 UNL     1      43.670  11.784  69.498  1.00  0.00     0.034 C 
HETATM   14  N1  UNL     1      42.589  14.019  69.030  1.00  0.00    -0.303 N 
HETATM   15  C4  UNL     1      43.318  15.190  69.437  1.00  0.00     0.364 C 
HETATM   16  C31 UNL     1      41.526  13.645  69.888  1.00  0.00     0.366 C 
HETATM   17  O2  UNL     1      44.273  15.629  68.748  1.00  0.00    -0.238 OA
HETATM   18  C29 UNL     1      42.430  11.483  70.311  1.00  0.00     0.240 C 
BRANCH  15  19
HETATM   19  O1  UNL     1      43.005  15.886  70.600  1.00  0.00    -0.299 OA
BRANCH  19  20
HETATM   20  C2  UNL     1      42.616  17.224  70.633  1.00  0.00     0.125 C 
HETATM   21  C1  UNL     1      42.640  17.778  72.058  1.00  0.00     0.040 C 
HETATM   22  C3  UNL     1      41.192  17.335  70.143  1.00  0.00     0.040 C 
ENDBRANCH  19  20
ENDBRANCH  15  19
ENDBRANCH   7   8
ENDBRANCH   6   7
ENDBRANCH   5   6
ENDBRANCH   2   5
ENDBRANCH   1   2
BRANCH   1  23
HETATM   23  C15 UNL     1      37.329  13.202  68.535  1.00  0.00     0.021 C 
BRANCH  23  24
HETATM   24  C16 UNL     1      37.992  14.396  69.063  1.00  0.00    -0.025 C 
BRANCH  24  25
HETATM   25  C17 UNL     1      37.524  15.763  68.803  1.00  0.00     0.029 C 
BRANCH  25  26
HETATM   26  C18 UNL     1      38.451  16.460  67.787  1.00  0.00     0.024 C 
BRANCH  26  27
HETATM   27  C19 UNL     1      37.676  16.990  66.644  1.00  0.00     0.134 C 
BRANCH  27  28
HETATM   28  N4  UNL     1      38.144  18.382  66.336  1.00  0.00    -0.297 N 
HETATM   29  C20 UNL     1      39.319  18.444  65.584  1.00  0.00     0.367 C 
HETATM   30  O3  UNL     1      39.818  19.527  65.245  1.00  0.00    -0.238 OA
BRANCH  29  31
HETATM   31  O4  UNL     1      39.963  17.294  65.190  1.00  0.00    -0.299 OA
BRANCH  31  32
HETATM   32  C21 UNL     1      40.961  17.334  64.185  1.00  0.00     0.241 C 
BRANCH  32  33
HETATM   33  C22 UNL     1      42.258  16.807  64.776  1.00  0.00     0.283 C 
HETATM   34  O5  UNL     1      42.182  16.667  66.139  1.00  0.00    -0.357 OA
HETATM   35  C23 UNL     1      42.580  17.877  66.686  1.00  0.00     0.197 C 
HETATM   36  C24 UNL     1      43.191  18.632  65.537  1.00  0.00     0.197 C 
HETATM   37  O6  UNL     1      43.299  17.690  64.518  1.00  0.00    -0.357 OA
ENDBRANCH  32  33
ENDBRANCH  31  32
ENDBRANCH  29  31
BRANCH  28  38
HETATM   38  C25 UNL     1      37.342  19.458  66.840  1.00  0.00     0.024 C 
HETATM   39  C26 UNL     1      35.888  19.292  66.893  1.00  0.00     0.010 C 
HETATM   40  C27 UNL     1      35.198  18.505  67.913  1.00  0.00     0.115 C 
HETATM   41  S1  UNL     1      35.571  19.034  69.618  1.00  0.00    -0.093 SA
HETATM   42  S2  UNL     1      37.638  19.582  69.616  1.00  0.00    -0.091 SA
HETATM   43  C28 UNL     1      37.991  20.205  67.984  1.00  0.00     0.143 C 
ENDBRANCH  28  38
ENDBRANCH  27  28
ENDBRANCH  26  27
ENDBRANCH  25  26
ENDBRANCH  24  25
ENDBRANCH  23  24
ENDBRANCH   1  23
TORSDOF 17
ENDMDL
MODEL 3
REMARK VINA RESULT: -6.241587072      5.439      9.769
REMARK  17 active torsions:
REMARK  status: ('A' for Active; 'I' for Inactive)
REMARK    1  A    between atoms: C2_2  and  O1_4 
REMARK    2  A    between atoms: O1_4  and  C4_5 
REMARK       I    between atoms: C4_5  and  N1_7 
REMARK    3  A    between atoms: N2_12  and  C9_13 
REMARK    4  A    between atoms: C9_13  and  C10_14 
REMARK    5  A    between atoms: C10_14  and  C11_15 
REMARK    6  A    between atoms: C11_15  and  N3_16 
REMARK    7  A    between atoms: N3_16  and  C14_19 
REMARK    8  A    between atoms: C14_19  and  C15_20 
REMARK    9  A    between atoms: C15_20  and  C16_21 
REMARK   10  A    between atoms: C16_21  and  C17_22 
REMARK   11  A    between atoms: C17_22  and  C18_23 
REMARK   12  A    between atoms: C18_23  and  C19_24 
REMARK   13  A    between atoms: C19_24  and  N4_25 
REMARK       I    between atoms: N4_25  and  C20_26 
REMARK   14  A    between atoms: N4_25  and  C25_35 
REMARK   15  A    between atoms: C20_26  and  O4_28 
REMARK   16  A    between atoms: O4_28  and  C21_29 
REMARK   17  A    between atoms: C21_29  and  C22_30 
ROOT
HETATM    1  C14 UNL     1      41.878  13.815  68.571  1.00  0.00     0.201 C 
ENDROOT
BRANCH   1   2
HETATM    2  N3  UNL     1      42.703  14.940  68.537  1.00  0.00    -0.055 N 
HETATM    3  C12 UNL     1      43.706  14.831  69.617  1.00  0.00     0.277 C 
HETATM    4  C13 UNL     1      43.477  15.105  67.294  1.00  0.00     0.277 C 
BRANCH   2   5
HETATM    5  C11 UNL     1      42.046  16.227  68.824  1.00  0.00     0.243 C 
BRANCH   5   6
HETATM    6  C10 UNL     1      40.681  16.162  69.403  1.00  0.00     0.056 C 
BRANCH   6   7
HETATM    7  C9  UNL     1      40.019  17.445  69.736  1.00  0.00     0.241 C 
BRANCH   7   8
HETATM    8  N2  UNL     1      38.960  17.952  68.934  1.00  0.00    -0.051 N 
HETATM    9  C8  UNL     1      38.109  18.923  69.515  1.00  0.00     0.240 C 
HETATM   10  C7  UNL     1      36.690  18.829  69.032  1.00  0.00     0.034 C 
HETATM   11  C6  UNL     1      36.632  18.547  67.537  1.00  0.00     0.007 C 
HETATM   12  C5  UNL     1      37.463  19.625  66.883  1.00  0.00     0.134 C 
HETATM   13  C30 UNL     1      37.297  17.218  67.246  1.00  0.00     0.034 C 
HETATM   14  N1  UNL     1      38.825  19.188  66.831  1.00  0.00    -0.303 N 
HETATM   15  C4  UNL     1      39.417  19.285  65.525  1.00  0.00     0.364 C 
HETATM   16  C31 UNL     1      39.682  18.691  67.844  1.00  0.00     0.366 C 
HETATM   17  O2  UNL     1      38.761  19.727  64.549  1.00  0.00    -0.238 OA
HETATM   18  C29 UNL     1      38.254  16.857  68.361  1.00  0.00     0.240 C 
BRANCH  15  19
HETATM   19  O1  UNL     1      40.731  18.899  65.281  1.00  0.00    -0.299 OA
BRANCH  19  20
HETATM   20  C2  UNL     1      41.095  17.806  64.496  1.00  0.00     0.125 C 
HETATM   21  C1  UNL     1      40.551  16.499  65.071  1.00  0.00     0.040 C 
HETATM   22  C3  UNL     1      42.601  17.687  64.486  1.00  0.00     0.040 C 
ENDBRANCH  19  20
ENDBRANCH  15  19
ENDBRANCH   7   8
ENDBRANCH   6   7
ENDBRANCH   5   6
ENDBRANCH   2   5
ENDBRANCH   1   2
BRANCH   1  23
HETATM   23  C15 UNL     1      42.013  12.610  67.776  1.00  0.00     0.021 C 
BRANCH  23  24
HETATM   24  C16 UNL     1      42.545  11.311  68.196  1.00  0.00    -0.025 C 
BRANCH  24  25
HETATM   25  C17 UNL     1      43.729  11.159  69.051  1.00  0.00     0.029 C 
BRANCH  25  26
HETATM   26  C18 UNL     1      43.321  10.620  70.437  1.00  0.00     0.024 C 
BRANCH  26  27
HETATM   27  C19 UNL     1      43.796  11.517  71.513  1.00  0.00     0.134 C 
BRANCH  27  28
HETATM   28  N4  UNL     1      45.011  10.913  72.154  1.00  0.00    -0.297 N 
HETATM   29  C20 UNL     1      45.939  11.844  72.626  1.00  0.00     0.367 C 
HETATM   30  O3  UNL     1      46.986  11.490  73.189  1.00  0.00    -0.238 OA
BRANCH  29  31
HETATM   31  O4  UNL     1      45.717  13.193  72.482  1.00  0.00    -0.299 OA
BRANCH  31  32
HETATM   32  C21 UNL     1      46.466  14.132  73.235  1.00  0.00     0.241 C 
BRANCH  32  33
HETATM   33  C22 UNL     1      46.361  15.485  72.552  1.00  0.00     0.283 C 
HETATM   34  O5  UNL     1      46.949  15.483  71.312  1.00  0.00    -0.357 OA
HETATM   35  C23 UNL     1      48.278  15.830  71.501  1.00  0.00     0.197 C 
HETATM   36  C24 UNL     1      48.341  16.338  72.916  1.00  0.00     0.197 C 
HETATM   37  O6  UNL     1      47.009  16.456  73.305  1.00  0.00    -0.357 OA
ENDBRANCH  32  33
ENDBRANCH  31  32
ENDBRANCH  29  31
BRANCH  28  38
HETATM   38  C25 UNL     1      45.069   9.481  72.204  1.00  0.00     0.024 C 
HETATM   39  C26 UNL     1      46.170   8.795  71.523  1.00  0.00     0.010 C 
HETATM   40  C27 UNL     1      47.529   8.715  72.054  1.00  0.00     0.115 C 
HETATM   41  S1  UNL     1      47.617   7.987  73.724  1.00  0.00    -0.093 SA
HETATM   42  S2  UNL     1      45.887   8.698  74.759  1.00  0.00    -0.091 SA
HETATM   43  C28 UNL     1      44.615   8.908  73.528  1.00  0.00     0.143 C 
ENDBRANCH  28  38
ENDBRANCH  27  28
ENDBRANCH  26  27
ENDBRANCH  25  26
ENDBRANCH  24  25
ENDBRANCH  23  24
ENDBRANCH   1  23
TORSDOF 17
ENDMDL
MODEL 4
REMARK VINA RESULT: -6.163850042      2.976      7.110
REMARK  17 active torsions:
REMARK  status: ('A' for Active; 'I' for Inactive)
REMARK    1  A    between atoms: C2_2  and  O1_4 
REMARK    2  A    between atoms: O1_4  and  C4_5 
REMARK       I    between atoms: C4_5  and  N1_7 
REMARK    3  A    between atoms: N2_12  and  C9_13 
REMARK    4  A    between atoms: C9_13  and  C10_14 
REMARK    5  A    between atoms: C10_14  and  C11_15 
REMARK    6  A    between atoms: C11_15  and  N3_16 
REMARK    7  A    between atoms: N3_16  and  C14_19 
REMARK    8  A    between atoms: C14_19  and  C15_20 
REMARK    9  A    between atoms: C15_20  and  C16_21 
REMARK   10  A    between atoms: C16_21  and  C17_22 
REMARK   11  A    between atoms: C17_22  and  C18_23 
REMARK   12  A    between atoms: C18_23  and  C19_24 
REMARK   13  A    between atoms: C19_24  and  N4_25 
REMARK       I    between atoms: N4_25  and  C20_26 
REMARK   14  A    between atoms: N4_25  and  C25_35 
REMARK   15  A    between atoms: C20_26  and  O4_28 
REMARK   16  A    between atoms: O4_28  and  C21_29 
REMARK   17  A    between atoms: C21_29  and  C22_30 
ROOT
HETATM    1  C14 UNL     1      39.069  11.778  69.431  1.00  0.00     0.201 C 
ENDROOT
BRANCH   1   2
HETATM    2  N3  UNL     1      38.270  12.902  69.221  1.00  0.00    -0.055 N 
HETATM    3  C12 UNL     1      37.004  12.478  68.589  1.00  0.00     0.277 C 
HETATM    4  C13 UNL     1      37.879  13.625  70.444  1.00  0.00     0.277 C 
BRANCH   2   5
HETATM    5  C11 UNL     1      38.798  13.895  68.269  1.00  0.00     0.243 C 
BRANCH   5   6
HETATM    6  C10 UNL     1      37.903  15.029  67.925  1.00  0.00     0.056 C 
BRANCH   6   7
HETATM    7  C9  UNL     1      38.403  16.021  66.945  1.00  0.00     0.241 C 
BRANCH   7   8
HETATM    8  N2  UNL     1      38.582  17.383  67.309  1.00  0.00    -0.051 N 
HETATM    9  C8  UNL     1      38.685  18.331  66.262  1.00  0.00     0.240 C 
HETATM   10  C7  UNL     1      39.601  19.475  66.589  1.00  0.00     0.034 C 
HETATM   11  C6  UNL     1      39.420  19.933  68.030  1.00  0.00     0.007 C 
HETATM   12  C5  UNL     1      37.947  20.225  68.187  1.00  0.00     0.134 C 
HETATM   13  C30 UNL     1      39.764  18.797  68.970  1.00  0.00     0.034 C 
HETATM   14  N1  UNL     1      37.278  19.019  68.572  1.00  0.00    -0.303 N 
HETATM   15  C4  UNL     1      36.446  19.162  69.735  1.00  0.00     0.364 C 
HETATM   16  C31 UNL     1      37.291  17.724  67.998  1.00  0.00     0.366 C 
HETATM   17  O2  UNL     1      36.340  20.268  70.323  1.00  0.00    -0.238 OA
HETATM   18  C29 UNL     1      39.645  17.471  68.252  1.00  0.00     0.240 C 
BRANCH  15  19
HETATM   19  O1  UNL     1      35.723  18.095  70.260  1.00  0.00    -0.299 OA
BRANCH  19  20
HETATM   20  C2  UNL     1      34.335  18.076  70.390  1.00  0.00     0.125 C 
HETATM   21  C1  UNL     1      33.831  16.689  70.787  1.00  0.00     0.040 C 
HETATM   22  C3  UNL     1      33.712  18.403  69.053  1.00  0.00     0.040 C 
ENDBRANCH  19  20
ENDBRANCH  15  19
ENDBRANCH   7   8
ENDBRANCH   6   7
ENDBRANCH   5   6
ENDBRANCH   2   5
ENDBRANCH   1   2
BRANCH   1  23
HETATM   23  C15 UNL     1      40.518  11.733  69.469  1.00  0.00     0.021 C 
BRANCH  23  24
HETATM   24  C16 UNL     1      41.428  11.195  68.454  1.00  0.00    -0.025 C 
BRANCH  24  25
HETATM   25  C17 UNL     1      41.930  11.980  67.320  1.00  0.00     0.029 C 
BRANCH  25  26
HETATM   26  C18 UNL     1      43.126  12.849  67.760  1.00  0.00     0.024 C 
BRANCH  26  27
HETATM   27  C19 UNL     1      42.891  14.273  67.435  1.00  0.00     0.134 C 
BRANCH  27  28
HETATM   28  N4  UNL     1      43.209  15.110  68.638  1.00  0.00    -0.297 N 
HETATM   29  C20 UNL     1      43.643  16.404  68.345  1.00  0.00     0.367 C 
HETATM   30  O3  UNL     1      43.931  17.212  69.241  1.00  0.00    -0.238 OA
BRANCH  29  31
HETATM   31  O4  UNL     1      43.763  16.827  67.042  1.00  0.00    -0.299 OA
BRANCH  31  32
HETATM   32  C21 UNL     1      42.801  17.700  66.474  1.00  0.00     0.241 C 
BRANCH  32  33
HETATM   33  C22 UNL     1      43.042  17.767  64.976  1.00  0.00     0.283 C 
HETATM   34  O5  UNL     1      41.911  18.133  64.290  1.00  0.00    -0.357 OA
HETATM   35  C23 UNL     1      41.229  16.963  63.993  1.00  0.00     0.197 C 
HETATM   36  C24 UNL     1      42.212  15.864  64.291  1.00  0.00     0.197 C 
HETATM   37  O6  UNL     1      43.422  16.522  64.492  1.00  0.00    -0.357 OA
ENDBRANCH  32  33
ENDBRANCH  31  32
ENDBRANCH  29  31
BRANCH  28  38
HETATM   38  C25 UNL     1      43.030  14.491  69.920  1.00  0.00     0.024 C 
HETATM   39  C26 UNL     1      44.209  14.228  70.747  1.00  0.00     0.010 C 
HETATM   40  C27 UNL     1      44.908  15.256  71.514  1.00  0.00     0.115 C 
HETATM   41  S1  UNL     1      43.832  16.155  72.681  1.00  0.00    -0.093 SA
HETATM   42  S2  UNL     1      41.951  16.368  71.687  1.00  0.00    -0.091 SA
HETATM   43  C28 UNL     1      41.774  14.941  70.634  1.00  0.00     0.143 C 
ENDBRANCH  28  38
ENDBRANCH  27  28
ENDBRANCH  26  27
ENDBRANCH  25  26
ENDBRANCH  24  25
ENDBRANCH  23  24
ENDBRANCH   1  23
TORSDOF 17
ENDMDL
MODEL 5
REMARK VINA RESULT: -6.151543943      2.502      5.839
REMARK  17 active torsions:
REMARK  status: ('A' for Active; 'I' for Inactive)
REMARK    1  A    between atoms: C2_2  and  O1_4 
REMARK    2  A    between atoms: O1_4  and  C4_5 
REMARK       I    between atoms: C4_5  and  N1_7 
REMARK    3  A    between atoms: N2_12  and  C9_13 
REMARK    4  A    between atoms: C9_13  and  C10_14 
REMARK    5  A    between atoms: C10_14  and  C11_15 
REMARK    6  A    between atoms: C11_15  and  N3_16 
REMARK    7  A    between atoms: N3_16  and  C14_19 
REMARK    8  A    between atoms: C14_19  and  C15_20 
REMARK    9  A    between atoms: C15_20  and  C16_21 
REMARK   10  A    between atoms: C16_21  and  C17_22 
REMARK   11  A    between atoms: C17_22  and  C18_23 
REMARK   12  A    between atoms: C18_23  and  C19_24 
REMARK   13  A    between atoms: C19_24  and  N4_25 
REMARK       I    between atoms: N4_25  and  C20_26 
REMARK   14  A    between atoms: N4_25  and  C25_35 
REMARK   15  A    between atoms: C20_26  and  O4_28 
REMARK   16  A    between atoms: O4_28  and  C21_29 
REMARK   17  A    between atoms: C21_29  and  C22_30 
ROOT
HETATM    1  C14 UNL     1      40.521  17.020  64.543  1.00  0.00     0.201 C 
ENDROOT
BRANCH   1   2
HETATM    2  N3  UNL     1      41.846  16.704  64.840  1.00  0.00    -0.055 N 
HETATM    3  C12 UNL     1      42.213  15.461  64.130  1.00  0.00     0.277 C 
HETATM    4  C13 UNL     1      42.836  17.710  64.414  1.00  0.00     0.277 C 
BRANCH   2   5
HETATM    5  C11 UNL     1      42.127  16.375  66.249  1.00  0.00     0.243 C 
BRANCH   5   6
HETATM    6  C10 UNL     1      42.363  14.944  66.564  1.00  0.00     0.056 C 
BRANCH   6   7
HETATM    7  C9  UNL     1      43.331  14.633  67.642  1.00  0.00     0.241 C 
BRANCH   7   8
HETATM    8  N2  UNL     1      43.088  13.575  68.559  1.00  0.00    -0.051 N 
HETATM    9  C8  UNL     1      43.699  13.662  69.834  1.00  0.00     0.240 C 
HETATM   10  C7  UNL     1      44.081  12.325  70.399  1.00  0.00     0.034 C 
HETATM   11  C6  UNL     1      43.004  11.283  70.131  1.00  0.00     0.007 C 
HETATM   12  C5  UNL     1      41.722  11.868  70.674  1.00  0.00     0.134 C 
HETATM   13  C30 UNL     1      42.830  11.109  68.637  1.00  0.00     0.034 C 
HETATM   14  N1  UNL     1      41.105  12.653  69.649  1.00  0.00    -0.303 N 
HETATM   15  C4  UNL     1      39.724  12.324  69.417  1.00  0.00     0.364 C 
HETATM   16  C31 UNL     1      41.617  13.697  68.841  1.00  0.00     0.366 C 
HETATM   17  O2  UNL     1      39.153  11.426  70.084  1.00  0.00    -0.238 OA
HETATM   18  C29 UNL     1      43.331  12.334  67.905  1.00  0.00     0.240 C 
BRANCH  15  19
HETATM   19  O1  UNL     1      38.963  12.978  68.454  1.00  0.00    -0.299 OA
BRANCH  19  20
HETATM   20  C2  UNL     1      37.941  13.882  68.742  1.00  0.00     0.125 C 
HETATM   21  C1  UNL     1      36.564  13.251  68.539  1.00  0.00     0.040 C 
HETATM   22  C3  UNL     1      38.033  15.050  67.789  1.00  0.00     0.040 C 
ENDBRANCH  19  20
ENDBRANCH  15  19
ENDBRANCH   7   8
ENDBRANCH   6   7
ENDBRANCH   5   6
ENDBRANCH   2   5
ENDBRANCH   1   2
BRANCH   1  23
HETATM   23  C15 UNL     1      39.585  17.738  65.387  1.00  0.00     0.021 C 
BRANCH  23  24
HETATM   24  C16 UNL     1      39.555  19.173  65.679  1.00  0.00    -0.025 C 
BRANCH  24  25
HETATM   25  C17 UNL     1      38.318  19.961  65.735  1.00  0.00     0.029 C 
BRANCH  25  26
HETATM   26  C18 UNL     1      37.503  19.588  66.990  1.00  0.00     0.024 C 
BRANCH  26  27
HETATM   27  C19 UNL     1      38.232  19.960  68.222  1.00  0.00     0.134 C 
BRANCH  27  28
HETATM   28  N4  UNL     1      37.959  18.936  69.282  1.00  0.00    -0.297 N 
HETATM   29  C20 UNL     1      39.043  18.106  69.578  1.00  0.00     0.367 C 
HETATM   30  O3  UNL     1      38.966  17.219  70.442  1.00  0.00    -0.238 OA
BRANCH  29  31
HETATM   31  O4  UNL     1      40.240  18.250  68.916  1.00  0.00    -0.299 OA
BRANCH  31  32
HETATM   32  C21 UNL     1      41.442  18.461  69.635  1.00  0.00     0.241 C 
BRANCH  32  33
HETATM   33  C22 UNL     1      42.509  18.925  68.659  1.00  0.00     0.283 C 
HETATM   34  O5  UNL     1      43.695  19.209  69.289  1.00  0.00    -0.357 OA
HETATM   35  C23 UNL     1      43.641  20.544  69.657  1.00  0.00     0.197 C 
HETATM   36  C24 UNL     1      42.454  21.096  68.914  1.00  0.00     0.197 C 
HETATM   37  O6  UNL     1      42.104  20.089  68.019  1.00  0.00    -0.357 OA
ENDBRANCH  32  33
ENDBRANCH  31  32
ENDBRANCH  29  31
BRANCH  28  38
HETATM   38  C25 UNL     1      36.644  18.934  69.854  1.00  0.00     0.024 C 
HETATM   39  C26 UNL     1      35.778  17.774  69.630  1.00  0.00     0.010 C 
HETATM   40  C27 UNL     1      35.921  16.505  70.340  1.00  0.00     0.115 C 
HETATM   41  S1  UNL     1      35.849  16.674  72.155  1.00  0.00    -0.093 SA
HETATM   42  S2  UNL     1      36.855  18.505  72.608  1.00  0.00    -0.091 SA
HETATM   43  C28 UNL     1      36.580  19.586  71.217  1.00  0.00     0.143 C 
ENDBRANCH  28  38
ENDBRANCH  27  28
ENDBRANCH  26  27
ENDBRANCH  25  26
ENDBRANCH  24  25
ENDBRANCH  23  24
ENDBRANCH   1  23
TORSDOF 17
ENDMDL
