MODEL 1
REMARK VINA RESULT: -6.883138277      0.000      0.000
REMARK  11 active torsions:
REMARK  status: ('A' for Active; 'I' for Inactive)
REMARK    1  A    between atoms: C2_2  and  C3_3 
REMARK    2  A    between atoms: C4_4  and  C5_5 
REMARK    3  A    between atoms: C5_5  and  C6_6 
REMARK    4  A    between atoms: C7_7  and  O1_8 
REMARK    5  A    between atoms: C12_15  and  C13_16 
REMARK    6  A    between atoms: C14_17  and  C15_18 
REMARK    7  A    between atoms: C15_18  and  O3_19 
REMARK    8  A    between atoms: C15_18  and  C16_21 
REMARK    9  A    between atoms: C16_21  and  C17_22 
REMARK   10  A    between atoms: C17_22  and  C18_23 
REMARK   11  A    between atoms: N1_28  and  C23_29 
ROOT
HETATM    1  C6  UNL     1      46.710  11.833   2.137  1.00  0.00     0.033 C 
HETATM    2  C7  UNL     1      46.908  10.922   0.987  1.00  0.00     0.124 C 
HETATM    3  C8  UNL     1      47.519  11.487  -0.243  1.00  0.00     0.044 C 
HETATM    4  C9  UNL     1      48.732  12.347   0.035  1.00  0.00     0.054 C 
HETATM    5  C10 UNL     1      49.091  13.071  -1.244  1.00  0.00     0.018 C 
HETATM    6  C11 UNL     1      48.328  13.308   1.076  1.00  0.00     0.139 C 
HETATM    7  O2  UNL     1      48.415  14.492   0.878  1.00  0.00    -0.297 OA
HETATM    8  C12 UNL     1      47.819  12.793   2.358  1.00  0.00     0.085 C 
ENDROOT
BRANCH   8   9
HETATM    9  C13 UNL     1      47.516  13.884   3.319  1.00  0.00    -0.016 C 
HETATM   10  C14 UNL     1      46.334  14.406   3.552  1.00  0.00     0.001 C 
BRANCH  10  11
HETATM   11  C15 UNL     1      46.122  15.499   4.536  1.00  0.00     0.140 C 
BRANCH  11  12
HETATM   12  O3  UNL     1      45.846  15.025   5.800  1.00  0.00    -0.392 OA
ATOM     13  H3  UNL     1      46.631  14.909   6.324  1.00  0.00     0.210 HD
ENDBRANCH  11  12
BRANCH  11  14
HETATM   14  C16 UNL     1      47.365  16.386   4.642  1.00  0.00     0.037 C 
BRANCH  14  15
HETATM   15  C17 UNL     1      47.001  17.689   3.916  1.00  0.00     0.028 C 
BRANCH  15  16
HETATM   16  C18 UNL     1      48.253  18.431   3.560  1.00  0.00     0.083 C 
HETATM   17  C19 UNL     1      49.284  17.430   3.119  1.00  0.00     0.025 C 
HETATM   18  C20 UNL     1      50.026  17.839   1.880  1.00  0.00     0.007 C 
HETATM   19  C21 UNL     1      50.325  19.298   1.803  1.00  0.00     0.044 C 
HETATM   20  C22 UNL     1      49.185  20.172   2.226  1.00  0.00     0.058 C 
HETATM   21  N1  UNL     1      48.026  19.495   2.657  1.00  0.00    -0.389 N 
BRANCH  21  22
HETATM   22  C23 UNL     1      47.056  19.209   1.632  1.00  0.00     0.118 C 
HETATM   23  C24 UNL     1      46.689  20.425   0.853  1.00  0.00     0.026 C 
ENDBRANCH  21  22
ENDBRANCH  15  16
ENDBRANCH  14  15
ENDBRANCH  11  14
ENDBRANCH  10  11
ENDBRANCH   8   9
BRANCH   1  24
HETATM   24  C5  UNL     1      46.538  10.920   3.373  1.00  0.00     0.035 C 
BRANCH  24  25
HETATM   25  C4  UNL     1      47.448   9.764   3.236  1.00  0.00    -0.030 C 
HETATM   26  C3  UNL     1      47.650   8.801   4.093  1.00  0.00    -0.031 C 
BRANCH  26  27
HETATM   27  C2  UNL     1      47.014   8.634   5.411  1.00  0.00     0.022 C 
HETATM   28  C1  UNL     1      47.343   7.233   5.895  1.00  0.00     0.009 C 
ENDBRANCH  26  27
ENDBRANCH  24  25
ENDBRANCH   1  24
BRANCH   2  29
HETATM   29  O1  UNL     1      45.622  10.460   0.602  1.00  0.00    -0.395 OA
ATOM     30  H1  UNL     1      45.735   9.974  -0.207  1.00  0.00     0.210 HD
ENDBRANCH   2  29
TORSDOF 11
ENDMDL
MODEL 2
REMARK VINA RESULT: -6.860753078      2.715      7.692
REMARK  11 active torsions:
REMARK  status: ('A' for Active; 'I' for Inactive)
REMARK    1  A    between atoms: C2_2  and  C3_3 
REMARK    2  A    between atoms: C4_4  and  C5_5 
REMARK    3  A    between atoms: C5_5  and  C6_6 
REMARK    4  A    between atoms: C7_7  and  O1_8 
REMARK    5  A    between atoms: C12_15  and  C13_16 
REMARK    6  A    between atoms: C14_17  and  C15_18 
REMARK    7  A    between atoms: C15_18  and  O3_19 
REMARK    8  A    between atoms: C15_18  and  C16_21 
REMARK    9  A    between atoms: C16_21  and  C17_22 
REMARK   10  A    between atoms: C17_22  and  C18_23 
REMARK   11  A    between atoms: N1_28  and  C23_29 
ROOT
HETATM    1  C6  UNL     1      48.614  19.631   2.911  1.00  0.00     0.033 C 
HETATM    2  C7  UNL     1      49.392  20.657   2.181  1.00  0.00     0.124 C 
HETATM    3  C8  UNL     1      50.862  20.466   2.081  1.00  0.00     0.044 C 
HETATM    4  C9  UNL     1      51.256  19.055   1.703  1.00  0.00     0.054 C 
HETATM    5  C10 UNL     1      52.749  18.922   1.900  1.00  0.00     0.018 C 
HETATM    6  C11 UNL     1      50.532  18.163   2.624  1.00  0.00     0.139 C 
HETATM    7  O2  UNL     1      51.135  17.387   3.319  1.00  0.00    -0.297 OA
HETATM    8  C12 UNL     1      49.062  18.237   2.676  1.00  0.00     0.085 C 
ENDROOT
BRANCH   8   9
HETATM    9  C13 UNL     1      48.484  17.232   3.604  1.00  0.00    -0.016 C 
HETATM   10  C14 UNL     1      47.608  16.304   3.295  1.00  0.00     0.001 C 
BRANCH  10  11
HETATM   11  C15 UNL     1      47.082  15.336   4.292  1.00  0.00     0.140 C 
BRANCH  11  12
HETATM   12  O3  UNL     1      45.707  15.367   4.380  1.00  0.00    -0.392 OA
ATOM     13  H3  UNL     1      45.340  14.526   4.628  1.00  0.00     0.210 HD
ENDBRANCH  11  12
BRANCH  11  14
HETATM   14  C16 UNL     1      47.484  13.905   3.929  1.00  0.00     0.037 C 
BRANCH  14  15
HETATM   15  C17 UNL     1      48.015  13.983   2.490  1.00  0.00     0.028 C 
BRANCH  15  16
HETATM   16  C18 UNL     1      47.647  12.731   1.752  1.00  0.00     0.083 C 
HETATM   17  C19 UNL     1      46.912  11.826   2.700  1.00  0.00     0.025 C 
HETATM   18  C20 UNL     1      45.685  11.201   2.103  1.00  0.00     0.007 C 
HETATM   19  C21 UNL     1      45.834  10.815   0.670  1.00  0.00     0.044 C 
HETATM   20  C22 UNL     1      46.542  11.840  -0.161  1.00  0.00     0.058 C 
HETATM   21  N1  UNL     1      46.983  12.986   0.530  1.00  0.00    -0.389 N 
BRANCH  21  22
HETATM   22  C23 UNL     1      46.051  14.082   0.577  1.00  0.00     0.118 C 
HETATM   23  C24 UNL     1      45.318  14.248  -0.710  1.00  0.00     0.026 C 
ENDBRANCH  21  22
ENDBRANCH  15  16
ENDBRANCH  14  15
ENDBRANCH  11  14
ENDBRANCH  10  11
ENDBRANCH   8   9
BRANCH   1  24
HETATM   24  C5  UNL     1      47.149  19.807   2.450  1.00  0.00     0.035 C 
BRANCH  24  25
HETATM   25  C4  UNL     1      47.131  19.954   0.980  1.00  0.00    -0.030 C 
HETATM   26  C3  UNL     1      46.699  19.096   0.096  1.00  0.00    -0.031 C 
BRANCH  26  27
HETATM   27  C2  UNL     1      46.120  17.766   0.356  1.00  0.00     0.022 C 
HETATM   28  C1  UNL     1      44.622  17.951   0.516  1.00  0.00     0.009 C 
ENDBRANCH  26  27
ENDBRANCH  24  25
ENDBRANCH   1  24
BRANCH   2  29
HETATM   29  O1  UNL     1      49.208  21.883   2.871  1.00  0.00    -0.395 OA
ATOM     30  H1  UNL     1      48.294  21.922   3.126  1.00  0.00     0.210 HD
ENDBRANCH   2  29
TORSDOF 11
ENDMDL
MODEL 3
REMARK VINA RESULT: -6.786072802      3.394      7.787
REMARK  11 active torsions:
REMARK  status: ('A' for Active; 'I' for Inactive)
REMARK    1  A    between atoms: C2_2  and  C3_3 
REMARK    2  A    between atoms: C4_4  and  C5_5 
REMARK    3  A    between atoms: C5_5  and  C6_6 
REMARK    4  A    between atoms: C7_7  and  O1_8 
REMARK    5  A    between atoms: C12_15  and  C13_16 
REMARK    6  A    between atoms: C14_17  and  C15_18 
REMARK    7  A    between atoms: C15_18  and  O3_19 
REMARK    8  A    between atoms: C15_18  and  C16_21 
REMARK    9  A    between atoms: C16_21  and  C17_22 
REMARK   10  A    between atoms: C17_22  and  C18_23 
REMARK   11  A    between atoms: N1_28  and  C23_29 
ROOT
HETATM    1  C6  UNL     1      51.004  19.464   0.944  1.00  0.00     0.033 C 
HETATM    2  C7  UNL     1      52.195  19.611   0.078  1.00  0.00     0.124 C 
HETATM    3  C8  UNL     1      53.491  19.920   0.733  1.00  0.00     0.044 C 
HETATM    4  C9  UNL     1      53.760  19.068   1.955  1.00  0.00     0.054 C 
HETATM    5  C10 UNL     1      54.953  19.655   2.676  1.00  0.00     0.018 C 
HETATM    6  C11 UNL     1      52.553  19.158   2.795  1.00  0.00     0.139 C 
HETATM    7  O2  UNL     1      52.629  19.553   3.929  1.00  0.00    -0.297 OA
HETATM    8  C12 UNL     1      51.258  18.755   2.222  1.00  0.00     0.085 C 
ENDROOT
BRANCH   8   9
HETATM    9  C13 UNL     1      50.156  18.845   3.213  1.00  0.00    -0.016 C 
HETATM   10  C14 UNL     1      49.324  17.882   3.538  1.00  0.00     0.001 C 
BRANCH  10  11
HETATM   11  C15 UNL     1      48.247  18.061   4.545  1.00  0.00     0.140 C 
BRANCH  11  12
HETATM   12  O3  UNL     1      47.379  19.079   4.212  1.00  0.00    -0.392 OA
ATOM     13  H3  UNL     1      46.591  19.073   4.743  1.00  0.00     0.210 HD
ENDBRANCH  11  12
BRANCH  11  14
HETATM   14  C16 UNL     1      47.417  16.783   4.690  1.00  0.00     0.037 C 
BRANCH  14  15
HETATM   15  C17 UNL     1      48.336  15.645   4.224  1.00  0.00     0.028 C 
BRANCH  15  16
HETATM   16  C18 UNL     1      47.508  14.452   3.854  1.00  0.00     0.083 C 
HETATM   17  C19 UNL     1      46.097  14.913   3.623  1.00  0.00     0.025 C 
HETATM   18  C20 UNL     1      45.468  14.328   2.392  1.00  0.00     0.007 C 
HETATM   19  C21 UNL     1      45.838  12.906   2.136  1.00  0.00     0.044 C 
HETATM   20  C22 UNL     1      47.288  12.609   2.361  1.00  0.00     0.058 C 
HETATM   21  N1  UNL     1      48.072  13.694   2.802  1.00  0.00    -0.389 N 
BRANCH  21  22
HETATM   22  C23 UNL     1      48.684  14.482   1.764  1.00  0.00     0.118 C 
HETATM   23  C24 UNL     1      49.944  13.863   1.262  1.00  0.00     0.026 C 
ENDBRANCH  21  22
ENDBRANCH  15  16
ENDBRANCH  14  15
ENDBRANCH  11  14
ENDBRANCH  10  11
ENDBRANCH   8   9
BRANCH   1  24
HETATM   24  C5  UNL     1      49.963  18.692   0.102  1.00  0.00     0.035 C 
BRANCH  24  25
HETATM   25  C4  UNL     1      48.708  19.471   0.071  1.00  0.00    -0.030 C 
HETATM   26  C3  UNL     1      47.506  19.062   0.370  1.00  0.00    -0.031 C 
BRANCH  26  27
HETATM   27  C2  UNL     1      47.109  17.713   0.812  1.00  0.00     0.022 C 
HETATM   28  C1  UNL     1      45.703  17.820   1.374  1.00  0.00     0.009 C 
ENDBRANCH  26  27
ENDBRANCH  24  25
ENDBRANCH   1  24
BRANCH   2  29
HETATM   29  O1  UNL     1      51.937  20.699  -0.797  1.00  0.00    -0.395 OA
ATOM     30  H1  UNL     1      51.225  20.432  -1.367  1.00  0.00     0.210 HD
ENDBRANCH   2  29
TORSDOF 11
ENDMDL
MODEL 4
REMARK VINA RESULT: -6.738637522      3.029      7.731
REMARK  11 active torsions:
REMARK  status: ('A' for Active; 'I' for Inactive)
REMARK    1  A    between atoms: C2_2  and  C3_3 
REMARK    2  A    between atoms: C4_4  and  C5_5 
REMARK    3  A    between atoms: C5_5  and  C6_6 
REMARK    4  A    between atoms: C7_7  and  O1_8 
REMARK    5  A    between atoms: C12_15  and  C13_16 
REMARK    6  A    between atoms: C14_17  and  C15_18 
REMARK    7  A    between atoms: C15_18  and  O3_19 
REMARK    8  A    between atoms: C15_18  and  C16_21 
REMARK    9  A    between atoms: C16_21  and  C17_22 
REMARK   10  A    between atoms: C17_22  and  C18_23 
REMARK   11  A    between atoms: N1_28  and  C23_29 
ROOT
HETATM    1  C6  UNL     1      48.490  18.908   3.184  1.00  0.00     0.033 C 
HETATM    2  C7  UNL     1      49.365  20.080   2.952  1.00  0.00     0.124 C 
HETATM    3  C8  UNL     1      50.833  19.859   2.975  1.00  0.00     0.044 C 
HETATM    4  C9  UNL     1      51.266  18.642   2.187  1.00  0.00     0.054 C 
HETATM    5  C10 UNL     1      52.719  18.374   2.509  1.00  0.00     0.018 C 
HETATM    6  C11 UNL     1      50.420  17.528   2.649  1.00  0.00     0.139 C 
HETATM    7  O2  UNL     1      50.921  16.533   3.104  1.00  0.00    -0.297 OA
HETATM    8  C12 UNL     1      48.958  17.656   2.542  1.00  0.00     0.085 C 
ENDROOT
BRANCH   8   9
HETATM    9  C13 UNL     1      48.254  16.427   2.990  1.00  0.00    -0.016 C 
HETATM   10  C14 UNL     1      47.640  16.260   4.139  1.00  0.00     0.001 C 
BRANCH  10  11
HETATM   11  C15 UNL     1      46.960  14.990   4.505  1.00  0.00     0.140 C 
BRANCH  11  12
HETATM   12  O3  UNL     1      46.086  15.146   5.560  1.00  0.00    -0.392 OA
ATOM     13  H3  UNL     1      45.361  15.723   5.349  1.00  0.00     0.210 HD
ENDBRANCH  11  12
BRANCH  11  14
HETATM   14  C16 UNL     1      46.156  14.442   3.324  1.00  0.00     0.037 C 
BRANCH  14  15
HETATM   15  C17 UNL     1      46.668  13.010   3.111  1.00  0.00     0.028 C 
BRANCH  15  16
HETATM   16  C18 UNL     1      46.011  12.418   1.902  1.00  0.00     0.083 C 
HETATM   17  C19 UNL     1      45.654  13.537   0.964  1.00  0.00     0.025 C 
HETATM   18  C20 UNL     1      46.000  13.254  -0.469  1.00  0.00     0.007 C 
HETATM   19  C21 UNL     1      45.776  11.838  -0.881  1.00  0.00     0.044 C 
HETATM   20  C22 UNL     1      46.227  10.834   0.134  1.00  0.00     0.058 C 
HETATM   21  N1  UNL     1      46.763  11.369   1.324  1.00  0.00    -0.389 N 
BRANCH  21  22
HETATM   22  C23 UNL     1      48.185  11.587   1.323  1.00  0.00     0.118 C 
HETATM   23  C24 UNL     1      48.919  10.487   0.635  1.00  0.00     0.026 C 
ENDBRANCH  21  22
ENDBRANCH  15  16
ENDBRANCH  14  15
ENDBRANCH  11  14
ENDBRANCH  10  11
ENDBRANCH   8   9
BRANCH   1  24
HETATM   24  C5  UNL     1      47.101  19.305   2.634  1.00  0.00     0.035 C 
BRANCH  24  25
HETATM   25  C4  UNL     1      47.173  19.355   1.159  1.00  0.00    -0.030 C 
HETATM   26  C3  UNL     1      46.231  19.071   0.303  1.00  0.00    -0.031 C 
BRANCH  26  27
HETATM   27  C2  UNL     1      44.858  18.629   0.605  1.00  0.00     0.022 C 
HETATM   28  C1  UNL     1      44.869  17.111   0.625  1.00  0.00     0.009 C 
ENDBRANCH  26  27
ENDBRANCH  24  25
ENDBRANCH   1  24
BRANCH   2  29
HETATM   29  O1  UNL     1      49.098  21.007   3.993  1.00  0.00    -0.395 OA
ATOM     30  H1  UNL     1      49.928  21.196   4.414  1.00  0.00     0.210 HD
ENDBRANCH   2  29
TORSDOF 11
ENDMDL
MODEL 5
REMARK VINA RESULT: -6.734826279      3.281      7.567
REMARK  11 active torsions:
REMARK  status: ('A' for Active; 'I' for Inactive)
REMARK    1  A    between atoms: C2_2  and  C3_3 
REMARK    2  A    between atoms: C4_4  and  C5_5 
REMARK    3  A    between atoms: C5_5  and  C6_6 
REMARK    4  A    between atoms: C7_7  and  O1_8 
REMARK    5  A    between atoms: C12_15  and  C13_16 
REMARK    6  A    between atoms: C14_17  and  C15_18 
REMARK    7  A    between atoms: C15_18  and  O3_19 
REMARK    8  A    between atoms: C15_18  and  C16_21 
REMARK    9  A    between atoms: C16_21  and  C17_22 
REMARK   10  A    between atoms: C17_22  and  C18_23 
REMARK   11  A    between atoms: N1_28  and  C23_29 
ROOT
HETATM    1  C6  UNL     1      49.890  19.406   0.931  1.00  0.00     0.033 C 
HETATM    2  C7  UNL     1      50.826  19.732  -0.168  1.00  0.00     0.124 C 
HETATM    3  C8  UNL     1      52.271  19.829   0.162  1.00  0.00     0.044 C 
HETATM    4  C9  UNL     1      52.762  18.690   1.028  1.00  0.00     0.054 C 
HETATM    5  C10 UNL     1      54.151  19.041   1.513  1.00  0.00     0.018 C 
HETATM    6  C11 UNL     1      51.826  18.600   2.162  1.00  0.00     0.139 C 
HETATM    7  O2  UNL     1      52.229  18.694   3.292  1.00  0.00    -0.297 OA
HETATM    8  C12 UNL     1      50.395  18.391   1.887  1.00  0.00     0.085 C 
ENDROOT
BRANCH   8   9
HETATM    9  C13 UNL     1      49.598  18.260   3.133  1.00  0.00    -0.016 C 
HETATM   10  C14 UNL     1      48.765  17.287   3.422  1.00  0.00     0.001 C 
BRANCH  10  11
HETATM   11  C15 UNL     1      48.007  17.237   4.700  1.00  0.00     0.140 C 
BRANCH  11  12
HETATM   12  O3  UNL     1      47.247  18.368   4.907  1.00  0.00    -0.392 OA
ATOM     13  H3  UNL     1      47.719  19.166   4.697  1.00  0.00     0.210 HD
ENDBRANCH  11  12
BRANCH  11  14
HETATM   14  C16 UNL     1      47.056  16.038   4.722  1.00  0.00     0.037 C 
BRANCH  14  15
HETATM   15  C17 UNL     1      47.901  14.838   4.270  1.00  0.00     0.028 C 
BRANCH  15  16
HETATM   16  C18 UNL     1      47.042  13.882   3.499  1.00  0.00     0.083 C 
HETATM   17  C19 UNL     1      45.858  14.640   2.966  1.00  0.00     0.025 C 
HETATM   18  C20 UNL     1      45.543  14.329   1.531  1.00  0.00     0.007 C 
HETATM   19  C21 UNL     1      45.739  12.898   1.161  1.00  0.00     0.044 C 
HETATM   20  C22 UNL     1      46.987  12.293   1.725  1.00  0.00     0.058 C 
HETATM   21  N1  UNL     1      47.766  13.145   2.534  1.00  0.00    -0.389 N 
BRANCH  21  22
HETATM   22  C23 UNL     1      48.780  13.900   1.846  1.00  0.00     0.118 C 
HETATM   23  C24 UNL     1      49.541  13.062   0.877  1.00  0.00     0.026 C 
ENDBRANCH  21  22
ENDBRANCH  15  16
ENDBRANCH  14  15
ENDBRANCH  11  14
ENDBRANCH  10  11
ENDBRANCH   8   9
BRANCH   1  24
HETATM   24  C5  UNL     1      48.599  18.901   0.247  1.00  0.00     0.035 C 
BRANCH  24  25
HETATM   25  C4  UNL     1      47.479  19.780   0.644  1.00  0.00    -0.030 C 
HETATM   26  C3  UNL     1      46.327  19.430   1.146  1.00  0.00    -0.031 C 
BRANCH  26  27
HETATM   27  C2  UNL     1      45.863  18.062   1.441  1.00  0.00     0.022 C 
HETATM   28  C1  UNL     1      44.552  17.864   0.702  1.00  0.00     0.009 C 
ENDBRANCH  26  27
ENDBRANCH  24  25
ENDBRANCH   1  24
BRANCH   2  29
HETATM   29  O1  UNL     1      50.456  21.012  -0.659  1.00  0.00    -0.395 OA
ATOM     30  H1  UNL     1      50.526  20.976  -1.605  1.00  0.00     0.210 HD
ENDBRANCH   2  29
TORSDOF 11
ENDMDL
