MODEL 1
REMARK VINA RESULT: -7.424321940      0.000      0.000
REMARK  8 active torsions:
REMARK  status: ('A' for Active; 'I' for Inactive)
REMARK    1  A    between atoms: C2_2  and  N1_3 
REMARK    2  A    between atoms: C2_2  and  C9_13 
REMARK       I    between atoms: N1_3  and  C3_5 
REMARK    3  A    between atoms: C3_5  and  C4_7 
REMARK    4  A    between atoms: C4_7  and  C5_8 
REMARK    5  A    between atoms: C5_8  and  C6_9 
REMARK    6  A    between atoms: C6_9  and  C7_10 
REMARK       I    between atoms: C9_13  and  N3_15 
REMARK    7  A    between atoms: N3_15  and  C10_17 
REMARK    8  A    between atoms: C10_17  and  C12_19 
ROOT
HETATM    1  C7  UNL     1      51.514  19.538   3.362  1.00  0.00     0.124 C 
HETATM    2  C8  UNL     1      50.307  20.249   3.709  1.00  0.00     0.059 C 
HETATM    3  N2  UNL     1      49.357  20.818   3.999  1.00  0.00    -0.197 NA
ENDROOT
BRANCH   1   4
HETATM    4  C6  UNL     1      51.337  18.676   2.126  1.00  0.00     0.014 C 
BRANCH   4   5
HETATM    5  C5  UNL     1      51.802  19.352   0.885  1.00  0.00     0.010 C 
BRANCH   5   6
HETATM    6  C4  UNL     1      50.781  20.265   0.321  1.00  0.00     0.103 C 
BRANCH   6   7
HETATM    7  C3  UNL     1      49.418  19.729   0.184  1.00  0.00     0.218 C 
HETATM    8  N1  UNL     1      48.395  20.338   0.980  1.00  0.00    -0.348 N 
ATOM      9  H1  UNL     1      48.638  21.107   1.604  1.00  0.00     0.163 HD
HETATM   10  O1  UNL     1      49.178  18.784  -0.598  1.00  0.00    -0.274 OA
BRANCH   8  11
HETATM   11  C2  UNL     1      47.026  19.881   0.915  1.00  0.00     0.172 C 
HETATM   12  C1  UNL     1      46.059  21.026   0.719  1.00  0.00     0.042 C 
BRANCH  11  13
HETATM   13  C9  UNL     1      46.745  19.074   2.115  1.00  0.00     0.240 C 
HETATM   14  O2  UNL     1      45.793  19.404   2.859  1.00  0.00    -0.271 OA
HETATM   15  N3  UNL     1      47.502  17.925   2.487  1.00  0.00    -0.355 N 
ATOM     16  H3  UNL     1      48.281  17.640   1.894  1.00  0.00     0.162 HD
BRANCH  15  17
HETATM   17  C10 UNL     1      47.213  17.150   3.667  1.00  0.00     0.085 C 
HETATM   18  C11 UNL     1      48.263  17.548   4.714  1.00  0.00     0.032 C 
BRANCH  17  19
HETATM   19  C12 UNL     1      47.286  15.675   3.488  1.00  0.00     0.017 C 
HETATM   20  C13 UNL     1      45.983  14.948   3.554  1.00  0.00     0.007 C 
HETATM   21  C14 UNL     1      45.238  14.778   2.295  1.00  0.00     0.002 C 
HETATM   22  C15 UNL     1      45.729  13.856   1.274  1.00  0.00     0.020 C 
HETATM   23  C16 UNL     1      46.736  12.835   1.619  1.00  0.00     0.008 C 
HETATM   24  C17 UNL     1      47.150  12.174   0.290  1.00  0.00     0.020 C 
HETATM   25  C20 UNL     1      46.259  11.647   2.382  1.00  0.00     0.020 C 
HETATM   26  S1  UNL     1      48.264  13.511   2.304  1.00  0.00    -0.159 SA
HETATM   27  C18 UNL     1      46.053  11.165   0.036  1.00  0.00     0.002 C 
HETATM   28  C19 UNL     1      45.645  10.680   1.391  1.00  0.00     0.002 C 
HETATM   29  C21 UNL     1      48.077  15.339   2.219  1.00  0.00     0.081 C 
ENDBRANCH  17  19
ENDBRANCH  15  17
ENDBRANCH  11  13
ENDBRANCH   8  11
ENDBRANCH   6   7
ENDBRANCH   5   6
ENDBRANCH   4   5
ENDBRANCH   1   4
TORSDOF 8
ENDMDL
MODEL 2
REMARK VINA RESULT: -7.068926753      1.211      1.352
REMARK  8 active torsions:
REMARK  status: ('A' for Active; 'I' for Inactive)
REMARK    1  A    between atoms: C2_2  and  N1_3 
REMARK    2  A    between atoms: C2_2  and  C9_13 
REMARK       I    between atoms: N1_3  and  C3_5 
REMARK    3  A    between atoms: C3_5  and  C4_7 
REMARK    4  A    between atoms: C4_7  and  C5_8 
REMARK    5  A    between atoms: C5_8  and  C6_9 
REMARK    6  A    between atoms: C6_9  and  C7_10 
REMARK       I    between atoms: C9_13  and  N3_15 
REMARK    7  A    between atoms: N3_15  and  C10_17 
REMARK    8  A    between atoms: C10_17  and  C12_19 
ROOT
HETATM    1  C7  UNL     1      52.207  18.525   2.475  1.00  0.00     0.124 C 
HETATM    2  C8  UNL     1      53.449  19.157   2.851  1.00  0.00     0.059 C 
HETATM    3  N2  UNL     1      54.441  19.643   3.148  1.00  0.00    -0.197 NA
ENDROOT
BRANCH   1   4
HETATM    4  C6  UNL     1      51.023  19.465   2.603  1.00  0.00     0.014 C 
BRANCH   4   5
HETATM    5  C5  UNL     1      51.122  20.636   1.690  1.00  0.00     0.010 C 
BRANCH   5   6
HETATM    6  C4  UNL     1      50.607  20.342   0.333  1.00  0.00     0.103 C 
BRANCH   6   7
HETATM    7  C3  UNL     1      49.252  19.773   0.248  1.00  0.00     0.218 C 
HETATM    8  N1  UNL     1      48.195  20.513   0.869  1.00  0.00    -0.348 N 
ATOM      9  H1  UNL     1      48.409  21.393   1.340  1.00  0.00     0.163 HD
HETATM   10  O1  UNL     1      49.049  18.692  -0.343  1.00  0.00    -0.274 OA
BRANCH   8  11
HETATM   11  C2  UNL     1      46.832  20.037   0.839  1.00  0.00     0.172 C 
HETATM   12  C1  UNL     1      45.845  21.167   0.651  1.00  0.00     0.042 C 
BRANCH  11  13
HETATM   13  C9  UNL     1      46.588  19.240   2.055  1.00  0.00     0.240 C 
HETATM   14  O2  UNL     1      45.597  19.513   2.770  1.00  0.00    -0.271 OA
HETATM   15  N3  UNL     1      47.425  18.165   2.472  1.00  0.00    -0.355 N 
ATOM     16  H3  UNL     1      48.237  17.928   1.903  1.00  0.00     0.162 HD
BRANCH  15  17
HETATM   17  C10 UNL     1      47.171  17.399   3.667  1.00  0.00     0.085 C 
HETATM   18  C11 UNL     1      48.131  17.938   4.737  1.00  0.00     0.032 C 
BRANCH  17  19
HETATM   19  C12 UNL     1      47.405  15.936   3.541  1.00  0.00     0.017 C 
HETATM   20  C13 UNL     1      46.256  15.060   3.919  1.00  0.00     0.007 C 
HETATM   21  C14 UNL     1      45.295  14.708   2.860  1.00  0.00     0.002 C 
HETATM   22  C15 UNL     1      45.683  13.784   1.798  1.00  0.00     0.020 C 
HETATM   23  C16 UNL     1      46.869  12.922   1.962  1.00  0.00     0.008 C 
HETATM   24  C17 UNL     1      47.083  12.224   0.604  1.00  0.00     0.020 C 
HETATM   25  C20 UNL     1      46.728  11.743   2.860  1.00  0.00     0.020 C 
HETATM   26  S1  UNL     1      48.400  13.830   2.269  1.00  0.00    -0.159 SA
HETATM   27  C18 UNL     1      46.104  11.071   0.639  1.00  0.00     0.002 C 
HETATM   28  C19 UNL     1      46.059  10.638   2.069  1.00  0.00     0.002 C 
HETATM   29  C21 UNL     1      47.952  15.609   2.147  1.00  0.00     0.081 C 
ENDBRANCH  17  19
ENDBRANCH  15  17
ENDBRANCH  11  13
ENDBRANCH   8  11
ENDBRANCH   6   7
ENDBRANCH   5   6
ENDBRANCH   4   5
ENDBRANCH   1   4
TORSDOF 8
ENDMDL
MODEL 3
REMARK VINA RESULT: -6.849916837      1.607      1.998
REMARK  8 active torsions:
REMARK  status: ('A' for Active; 'I' for Inactive)
REMARK    1  A    between atoms: C2_2  and  N1_3 
REMARK    2  A    between atoms: C2_2  and  C9_13 
REMARK       I    between atoms: N1_3  and  C3_5 
REMARK    3  A    between atoms: C3_5  and  C4_7 
REMARK    4  A    between atoms: C4_7  and  C5_8 
REMARK    5  A    between atoms: C5_8  and  C6_9 
REMARK    6  A    between atoms: C6_9  and  C7_10 
REMARK       I    between atoms: C9_13  and  N3_15 
REMARK    7  A    between atoms: N3_15  and  C10_17 
REMARK    8  A    between atoms: C10_17  and  C12_19 
ROOT
HETATM    1  C7  UNL     1      54.616  19.509   2.177  1.00  0.00     0.124 C 
HETATM    2  C8  UNL     1      53.505  19.527   3.097  1.00  0.00     0.059 C 
HETATM    3  N2  UNL     1      52.633  19.548   3.838  1.00  0.00    -0.197 NA
ENDROOT
BRANCH   1   4
HETATM    4  C6  UNL     1      54.299  18.741   0.909  1.00  0.00     0.014 C 
BRANCH   4   5
HETATM    5  C5  UNL     1      53.507  19.542  -0.063  1.00  0.00     0.010 C 
BRANCH   5   6
HETATM    6  C4  UNL     1      52.177  18.950  -0.334  1.00  0.00     0.103 C 
BRANCH   6   7
HETATM    7  C3  UNL     1      51.004  19.759   0.034  1.00  0.00     0.218 C 
HETATM    8  N1  UNL     1      50.510  19.619   1.371  1.00  0.00    -0.348 N 
ATOM      9  H1  UNL     1      50.976  18.977   2.013  1.00  0.00     0.163 HD
HETATM   10  O1  UNL     1      50.474  20.530  -0.793  1.00  0.00    -0.274 OA
BRANCH   8  11
HETATM   11  C2  UNL     1      49.364  20.371   1.827  1.00  0.00     0.172 C 
HETATM   12  C1  UNL     1      49.766  21.532   2.708  1.00  0.00     0.042 C 
BRANCH  11  13
HETATM   13  C9  UNL     1      48.422  19.440   2.475  1.00  0.00     0.240 C 
HETATM   14  O2  UNL     1      47.212  19.754   2.545  1.00  0.00    -0.271 OA
HETATM   15  N3  UNL     1      48.811  18.189   3.035  1.00  0.00    -0.355 N 
ATOM     16  H3  UNL     1      49.793  17.916   2.988  1.00  0.00     0.162 HD
BRANCH  15  17
HETATM   17  C10 UNL     1      47.875  17.294   3.667  1.00  0.00     0.085 C 
HETATM   18  C11 UNL     1      48.055  17.479   5.181  1.00  0.00     0.032 C 
BRANCH  17  19
HETATM   19  C12 UNL     1      48.072  15.853   3.359  1.00  0.00     0.017 C 
HETATM   20  C13 UNL     1      47.196  14.903   4.109  1.00  0.00     0.007 C 
HETATM   21  C14 UNL     1      45.896  14.561   3.507  1.00  0.00     0.002 C 
HETATM   22  C15 UNL     1      45.841  13.714   2.319  1.00  0.00     0.020 C 
HETATM   23  C16 UNL     1      47.011  12.904   1.931  1.00  0.00     0.008 C 
HETATM   24  C17 UNL     1      46.670  12.289   0.559  1.00  0.00     0.020 C 
HETATM   25  C20 UNL     1      47.274  11.673   2.728  1.00  0.00     0.020 C 
HETATM   26  S1  UNL     1      48.513  13.867   1.655  1.00  0.00    -0.159 SA
HETATM   27  C18 UNL     1      45.817  11.089   0.907  1.00  0.00     0.002 C 
HETATM   28  C19 UNL     1      46.366  10.580   2.202  1.00  0.00     0.002 C 
HETATM   29  C21 UNL     1      48.012  15.627   1.844  1.00  0.00     0.081 C 
ENDBRANCH  17  19
ENDBRANCH  15  17
ENDBRANCH  11  13
ENDBRANCH   8  11
ENDBRANCH   6   7
ENDBRANCH   5   6
ENDBRANCH   4   5
ENDBRANCH   1   4
TORSDOF 8
ENDMDL
MODEL 4
REMARK VINA RESULT: -6.617208805      1.305      1.801
REMARK  8 active torsions:
REMARK  status: ('A' for Active; 'I' for Inactive)
REMARK    1  A    between atoms: C2_2  and  N1_3 
REMARK    2  A    between atoms: C2_2  and  C9_13 
REMARK       I    between atoms: N1_3  and  C3_5 
REMARK    3  A    between atoms: C3_5  and  C4_7 
REMARK    4  A    between atoms: C4_7  and  C5_8 
REMARK    5  A    between atoms: C5_8  and  C6_9 
REMARK    6  A    between atoms: C6_9  and  C7_10 
REMARK       I    between atoms: C9_13  and  N3_15 
REMARK    7  A    between atoms: N3_15  and  C10_17 
REMARK    8  A    between atoms: C10_17  and  C12_19 
ROOT
HETATM    1  C7  UNL     1      51.330  17.369   1.726  1.00  0.00     0.124 C 
HETATM    2  C8  UNL     1      50.589  17.500   0.495  1.00  0.00     0.059 C 
HETATM    3  N2  UNL     1      50.007  17.589  -0.486  1.00  0.00    -0.197 NA
ENDROOT
BRANCH   1   4
HETATM    4  C6  UNL     1      51.367  18.664   2.515  1.00  0.00     0.014 C 
BRANCH   4   5
HETATM    5  C5  UNL     1      51.600  19.853   1.651  1.00  0.00     0.010 C 
BRANCH   5   6
HETATM    6  C4  UNL     1      50.711  20.986   1.995  1.00  0.00     0.103 C 
BRANCH   6   7
HETATM    7  C3  UNL     1      49.275  20.687   2.118  1.00  0.00     0.218 C 
HETATM    8  N1  UNL     1      48.594  20.264   0.931  1.00  0.00    -0.348 N 
ATOM      9  H1  UNL     1      49.114  20.185   0.057  1.00  0.00     0.163 HD
HETATM   10  O1  UNL     1      48.690  20.800   3.216  1.00  0.00    -0.274 OA
BRANCH   8  11
HETATM   11  C2  UNL     1      47.185  19.947   0.950  1.00  0.00     0.172 C 
HETATM   12  C1  UNL     1      46.327  21.191   0.891  1.00  0.00     0.042 C 
BRANCH  11  13
HETATM   13  C9  UNL     1      46.913  19.101   2.126  1.00  0.00     0.240 C 
HETATM   14  O2  UNL     1      45.899  19.337   2.821  1.00  0.00    -0.271 OA
HETATM   15  N3  UNL     1      47.747  18.017   2.526  1.00  0.00    -0.355 N 
ATOM     16  H3  UNL     1      48.578  17.809   1.972  1.00  0.00     0.162 HD
BRANCH  15  17
HETATM   17  C10 UNL     1      47.465  17.202   3.681  1.00  0.00     0.085 C 
HETATM   18  C11 UNL     1      48.451  17.644   4.772  1.00  0.00     0.032 C 
BRANCH  17  19
HETATM   19  C12 UNL     1      47.636  15.739   3.479  1.00  0.00     0.017 C 
HETATM   20  C13 UNL     1      46.502  14.882   3.943  1.00  0.00     0.007 C 
HETATM   21  C14 UNL     1      45.427  14.602   2.977  1.00  0.00     0.002 C 
HETATM   22  C15 UNL     1      45.673  13.708   1.848  1.00  0.00     0.020 C 
HETATM   23  C16 UNL     1      46.840  12.806   1.857  1.00  0.00     0.008 C 
HETATM   24  C17 UNL     1      46.890  12.155   0.460  1.00  0.00     0.020 C 
HETATM   25  C20 UNL     1      46.752  11.597   2.722  1.00  0.00     0.020 C 
HETATM   26  S1  UNL     1      48.424  13.655   2.037  1.00  0.00    -0.159 SA
HETATM   27  C18 UNL     1      45.883  11.032   0.554  1.00  0.00     0.002 C 
HETATM   28  C19 UNL     1      45.968  10.545   1.965  1.00  0.00     0.002 C 
HETATM   29  C21 UNL     1      48.026  15.451   2.025  1.00  0.00     0.081 C 
ENDBRANCH  17  19
ENDBRANCH  15  17
ENDBRANCH  11  13
ENDBRANCH   8  11
ENDBRANCH   6   7
ENDBRANCH   5   6
ENDBRANCH   4   5
ENDBRANCH   1   4
TORSDOF 8
ENDMDL
MODEL 5
REMARK VINA RESULT: -6.469704549      2.221      4.169
REMARK  8 active torsions:
REMARK  status: ('A' for Active; 'I' for Inactive)
REMARK    1  A    between atoms: C2_2  and  N1_3 
REMARK    2  A    between atoms: C2_2  and  C9_13 
REMARK       I    between atoms: N1_3  and  C3_5 
REMARK    3  A    between atoms: C3_5  and  C4_7 
REMARK    4  A    between atoms: C4_7  and  C5_8 
REMARK    5  A    between atoms: C5_8  and  C6_9 
REMARK    6  A    between atoms: C6_9  and  C7_10 
REMARK       I    between atoms: C9_13  and  N3_15 
REMARK    7  A    between atoms: N3_15  and  C10_17 
REMARK    8  A    between atoms: C10_17  and  C12_19 
ROOT
HETATM    1  C7  UNL     1      44.361  15.561  -1.797  1.00  0.00     0.124 C 
HETATM    2  C8  UNL     1      43.302  15.934  -0.889  1.00  0.00     0.059 C 
HETATM    3  N2  UNL     1      42.460  16.213  -0.167  1.00  0.00    -0.197 NA
ENDROOT
BRANCH   1   4
HETATM    4  C6  UNL     1      44.870  16.742  -2.600  1.00  0.00     0.014 C 
BRANCH   4   5
HETATM    5  C5  UNL     1      45.810  17.598  -1.826  1.00  0.00     0.010 C 
BRANCH   5   6
HETATM    6  C4  UNL     1      45.288  18.969  -1.622  1.00  0.00     0.103 C 
BRANCH   6   7
HETATM    7  C3  UNL     1      45.662  19.639  -0.366  1.00  0.00     0.218 C 
HETATM    8  N1  UNL     1      46.929  19.291   0.206  1.00  0.00    -0.348 N 
ATOM      9  H1  UNL     1      47.519  18.605  -0.265  1.00  0.00     0.163 HD
HETATM   10  O1  UNL     1      44.899  20.472   0.166  1.00  0.00    -0.274 OA
BRANCH   8  11
HETATM   11  C2  UNL     1      47.384  19.895   1.436  1.00  0.00     0.172 C 
HETATM   12  C1  UNL     1      48.869  20.179   1.408  1.00  0.00     0.042 C 
BRANCH  11  13
HETATM   13  C9  UNL     1      46.972  19.034   2.559  1.00  0.00     0.240 C 
HETATM   14  O2  UNL     1      45.989  19.376   3.255  1.00  0.00    -0.271 OA
HETATM   15  N3  UNL     1      47.633  17.821   2.907  1.00  0.00    -0.355 N 
ATOM     16  H3  UNL     1      48.436  17.526   2.351  1.00  0.00     0.162 HD
BRANCH  15  17
HETATM   17  C10 UNL     1      47.216  16.995   4.011  1.00  0.00     0.085 C 
HETATM   18  C11 UNL     1      48.179  17.300   5.167  1.00  0.00     0.032 C 
BRANCH  17  19
HETATM   19  C12 UNL     1      47.260  15.530   3.757  1.00  0.00     0.017 C 
HETATM   20  C13 UNL     1      45.936  14.840   3.704  1.00  0.00     0.007 C 
HETATM   21  C14 UNL     1      45.266  14.760   2.394  1.00  0.00     0.002 C 
HETATM   22  C15 UNL     1      45.795  13.879   1.356  1.00  0.00     0.020 C 
HETATM   23  C16 UNL     1      46.751  12.811   1.705  1.00  0.00     0.008 C 
HETATM   24  C17 UNL     1      47.229  12.209   0.370  1.00  0.00     0.020 C 
HETATM   25  C20 UNL     1      46.195  11.600   2.371  1.00  0.00     0.020 C 
HETATM   26  S1  UNL     1      48.250  13.403   2.518  1.00  0.00    -0.159 SA
HETATM   27  C18 UNL     1      46.122  11.248  -0.005  1.00  0.00     0.002 C 
HETATM   28  C19 UNL     1      45.618  10.705   1.293  1.00  0.00     0.002 C 
HETATM   29  C21 UNL     1      48.118  15.237   2.522  1.00  0.00     0.081 C 
ENDBRANCH  17  19
ENDBRANCH  15  17
ENDBRANCH  11  13
ENDBRANCH   8  11
ENDBRANCH   6   7
ENDBRANCH   5   6
ENDBRANCH   4   5
ENDBRANCH   1   4
TORSDOF 8
ENDMDL
