MODEL 1
REMARK VINA RESULT: -6.336439268      0.000      0.000
REMARK  10 active torsions:
REMARK  status: ('A' for Active; 'I' for Inactive)
REMARK    1  A    between atoms: N1_2  and  C2_3 
REMARK    2  A    between atoms: N1_2  and  C17_24 
REMARK    3  A    between atoms: C2_3  and  C3_4 
REMARK    4  A    between atoms: C3_4  and  C4_5 
REMARK    5  A    between atoms: C4_5  and  C5_6 
REMARK    6  A    between atoms: C5_6  and  C6_7 
REMARK    7  A    between atoms: C6_7  and  C7_8 
REMARK    8  A    between atoms: C7_8  and  C8_9 
REMARK    9  A    between atoms: C8_9  and  N2_10 
REMARK       I    between atoms: N2_10  and  C9_12 
REMARK       I    between atoms: C9_12  and  N3_14 
REMARK   10  A    between atoms: N3_14  and  C10_16 
ROOT
HETATM    1  C4  UNL     1      45.481  16.876   0.897  1.00  0.00     0.062 C 
HETATM    2  C14 UNL     1      46.460  16.356  -0.073  1.00  0.00     0.040 C 
HETATM    3  C15 UNL     1      45.836  15.079  -0.645  1.00  0.00     0.029 C 
HETATM    4  C16 UNL     1      44.368  15.341  -0.305  1.00  0.00     0.168 C 
HETATM    5  O2  UNL     1      44.490  15.874   0.976  1.00  0.00    -0.380 OA
ENDROOT
BRANCH   1   6
HETATM    6  C3  UNL     1      46.033  17.009   2.295  1.00  0.00     0.068 C 
BRANCH   6   7
HETATM    7  C2  UNL     1      46.850  15.882   2.781  1.00  0.00     0.275 C 
BRANCH   7   8
HETATM    8  N1  UNL     1      46.149  14.876   3.531  1.00  0.00     0.088 N 
HETATM    9  C1  UNL     1      46.365  14.962   4.954  1.00  0.00     0.310 C 
BRANCH   8  10
HETATM   10  C17 UNL     1      46.703  13.587   3.101  1.00  0.00     0.222 C 
HETATM   11  C18 UNL     1      45.765  12.830   2.221  1.00  0.00     0.036 C 
HETATM   12  C19 UNL     1      46.154  11.348   2.321  1.00  0.00     0.002 C 
HETATM   13  C20 UNL     1      47.660  11.236   2.159  1.00  0.00     0.000 C 
HETATM   14  C21 UNL     1      48.227  12.504   1.528  1.00  0.00     0.002 C 
HETATM   15  C22 UNL     1      48.027  13.708   2.425  1.00  0.00     0.036 C 
ENDBRANCH   8  10
ENDBRANCH   7   8
ENDBRANCH   6   7
ENDBRANCH   1   6
BRANCH   1  16
HETATM   16  C5  UNL     1      44.774  18.132   0.459  1.00  0.00     0.038 C 
BRANCH  16  17
HETATM   17  C6  UNL     1      45.553  18.958  -0.517  1.00  0.00     0.004 C 
BRANCH  17  18
HETATM   18  C7  UNL     1      45.354  20.431  -0.173  1.00  0.00     0.020 C 
BRANCH  18  19
HETATM   19  C8  UNL     1      46.188  20.877   0.973  1.00  0.00     0.124 C 
BRANCH  19  20
HETATM   20  N2  UNL     1      47.548  20.481   0.774  1.00  0.00    -0.343 N 
HETATM   21  C9  UNL     1      48.320  20.024   1.860  1.00  0.00     0.316 C 
HETATM   22  O1  UNL     1      47.817  19.965   3.017  1.00  0.00    -0.247 OA
HETATM   23  N3  UNL     1      49.663  19.634   1.648  1.00  0.00    -0.335 N 
ATOM     24  H3  UNL     1      50.070  19.680   0.714  1.00  0.00     0.165 HD
ATOM     25  H2  UNL     1      47.960  20.529  -0.158  1.00  0.00     0.164 HD
BRANCH  23  26
HETATM   26  C10 UNL     1      50.454  19.169   2.762  1.00  0.00     0.023 C 
HETATM   27  C11 UNL     1      51.911  19.206   2.326  1.00  0.00     0.037 C 
HETATM   28  C12 UNL     1      50.287  20.069   3.975  1.00  0.00     0.037 C 
HETATM   29  C13 UNL     1      50.038  17.782   3.118  1.00  0.00     0.037 C 
ENDBRANCH  23  26
ENDBRANCH  19  20
ENDBRANCH  18  19
ENDBRANCH  17  18
ENDBRANCH  16  17
ENDBRANCH   1  16
TORSDOF 10
ENDMDL
MODEL 2
REMARK VINA RESULT: -6.043903422      1.761      4.294
REMARK  10 active torsions:
REMARK  status: ('A' for Active; 'I' for Inactive)
REMARK    1  A    between atoms: N1_2  and  C2_3 
REMARK    2  A    between atoms: N1_2  and  C17_24 
REMARK    3  A    between atoms: C2_3  and  C3_4 
REMARK    4  A    between atoms: C3_4  and  C4_5 
REMARK    5  A    between atoms: C4_5  and  C5_6 
REMARK    6  A    between atoms: C5_6  and  C6_7 
REMARK    7  A    between atoms: C6_7  and  C7_8 
REMARK    8  A    between atoms: C7_8  and  C8_9 
REMARK    9  A    between atoms: C8_9  and  N2_10 
REMARK       I    between atoms: N2_10  and  C9_12 
REMARK       I    between atoms: C9_12  and  N3_14 
REMARK   10  A    between atoms: N3_14  and  C10_16 
ROOT
HETATM    1  C4  UNL     1      48.030  16.183   3.290  1.00  0.00     0.062 C 
HETATM    2  C14 UNL     1      46.636  16.661   3.301  1.00  0.00     0.040 C 
HETATM    3  C15 UNL     1      45.825  15.550   3.975  1.00  0.00     0.029 C 
HETATM    4  C16 UNL     1      46.951  14.831   4.720  1.00  0.00     0.168 C 
HETATM    5  O2  UNL     1      47.954  14.853   3.755  1.00  0.00    -0.380 OA
ENDROOT
BRANCH   1   6
HETATM    6  C3  UNL     1      48.622  16.093   1.905  1.00  0.00     0.068 C 
BRANCH   6   7
HETATM    7  C2  UNL     1      48.891  14.734   1.399  1.00  0.00     0.275 C 
BRANCH   7   8
HETATM    8  N1  UNL     1      48.117  14.325   0.260  1.00  0.00     0.088 N 
HETATM    9  C1  UNL     1      47.097  15.272  -0.116  1.00  0.00     0.310 C 
BRANCH   8  10
HETATM   10  C17 UNL     1      47.420  13.096   0.661  1.00  0.00     0.222 C 
HETATM   11  C18 UNL     1      48.178  12.321   1.686  1.00  0.00     0.036 C 
HETATM   12  C19 UNL     1      47.699  10.865   1.592  1.00  0.00     0.002 C 
HETATM   13  C20 UNL     1      46.181  10.861   1.556  1.00  0.00     0.000 C 
HETATM   14  C21 UNL     1      45.630  12.193   2.057  1.00  0.00     0.002 C 
HETATM   15  C22 UNL     1      46.031  13.338   1.150  1.00  0.00     0.036 C 
ENDBRANCH   8  10
ENDBRANCH   7   8
ENDBRANCH   6   7
ENDBRANCH   1   6
BRANCH   1  16
HETATM   16  C5  UNL     1      48.947  16.909   4.239  1.00  0.00     0.038 C 
BRANCH  16  17
HETATM   17  C6  UNL     1      48.567  18.338   4.477  1.00  0.00     0.004 C 
BRANCH  17  18
HETATM   18  C7  UNL     1      49.669  19.233   3.921  1.00  0.00     0.020 C 
BRANCH  18  19
HETATM   19  C8  UNL     1      49.157  20.285   3.007  1.00  0.00     0.124 C 
BRANCH  19  20
HETATM   20  N2  UNL     1      48.736  19.700   1.771  1.00  0.00    -0.343 N 
HETATM   21  C9  UNL     1      47.376  19.716   1.403  1.00  0.00     0.316 C 
HETATM   22  O1  UNL     1      46.519  20.246   2.164  1.00  0.00    -0.247 OA
HETATM   23  N3  UNL     1      46.976  19.134   0.177  1.00  0.00    -0.335 N 
ATOM     24  H3  UNL     1      47.668  18.707  -0.438  1.00  0.00     0.165 HD
ATOM     25  H2  UNL     1      49.424  19.268   1.154  1.00  0.00     0.164 HD
BRANCH  23  26
HETATM   26  C10 UNL     1      45.582  19.149  -0.197  1.00  0.00     0.023 C 
HETATM   27  C11 UNL     1      45.496  18.653  -1.632  1.00  0.00     0.037 C 
HETATM   28  C12 UNL     1      44.761  18.224   0.687  1.00  0.00     0.037 C 
HETATM   29  C13 UNL     1      45.055  20.539  -0.079  1.00  0.00     0.037 C 
ENDBRANCH  23  26
ENDBRANCH  19  20
ENDBRANCH  18  19
ENDBRANCH  17  18
ENDBRANCH  16  17
ENDBRANCH   1  16
TORSDOF 10
ENDMDL
MODEL 3
REMARK VINA RESULT: -5.935906694      1.811      3.253
REMARK  10 active torsions:
REMARK  status: ('A' for Active; 'I' for Inactive)
REMARK    1  A    between atoms: N1_2  and  C2_3 
REMARK    2  A    between atoms: N1_2  and  C17_24 
REMARK    3  A    between atoms: C2_3  and  C3_4 
REMARK    4  A    between atoms: C3_4  and  C4_5 
REMARK    5  A    between atoms: C4_5  and  C5_6 
REMARK    6  A    between atoms: C5_6  and  C6_7 
REMARK    7  A    between atoms: C6_7  and  C7_8 
REMARK    8  A    between atoms: C7_8  and  C8_9 
REMARK    9  A    between atoms: C8_9  and  N2_10 
REMARK       I    between atoms: N2_10  and  C9_12 
REMARK       I    between atoms: C9_12  and  N3_14 
REMARK   10  A    between atoms: N3_14  and  C10_16 
ROOT
HETATM    1  C4  UNL     1      46.277  18.183   1.627  1.00  0.00     0.062 C 
HETATM    2  C14 UNL     1      46.862  18.881   0.469  1.00  0.00     0.040 C 
HETATM    3  C15 UNL     1      45.738  19.755  -0.096  1.00  0.00     0.029 C 
HETATM    4  C16 UNL     1      44.830  19.827   1.132  1.00  0.00     0.168 C 
HETATM    5  O2  UNL     1      44.905  18.512   1.586  1.00  0.00    -0.380 OA
ENDROOT
BRANCH   1   6
HETATM    6  C3  UNL     1      46.334  16.679   1.512  1.00  0.00     0.068 C 
BRANCH   6   7
HETATM    7  C2  UNL     1      46.969  15.965   2.636  1.00  0.00     0.275 C 
BRANCH   7   8
HETATM    8  N1  UNL     1      46.118  15.071   3.371  1.00  0.00     0.088 N 
HETATM    9  C1  UNL     1      46.216  15.225   4.801  1.00  0.00     0.310 C 
BRANCH   8  10
HETATM   10  C17 UNL     1      46.589  13.715   3.062  1.00  0.00     0.222 C 
HETATM   11  C18 UNL     1      45.736  13.034   2.045  1.00  0.00     0.036 C 
HETATM   12  C19 UNL     1      45.933  11.523   2.233  1.00  0.00     0.002 C 
HETATM   13  C20 UNL     1      47.423  11.243   2.337  1.00  0.00     0.000 C 
HETATM   14  C21 UNL     1      48.228  12.421   1.795  1.00  0.00     0.002 C 
HETATM   15  C22 UNL     1      48.014  13.669   2.625  1.00  0.00     0.036 C 
ENDBRANCH   8  10
ENDBRANCH   7   8
ENDBRANCH   6   7
ENDBRANCH   1   6
BRANCH   1  16
HETATM   16  C5  UNL     1      46.783  18.657   2.964  1.00  0.00     0.038 C 
BRANCH  16  17
HETATM   17  C6  UNL     1      48.083  19.395   2.894  1.00  0.00     0.004 C 
BRANCH  17  18
HETATM   18  C7  UNL     1      48.937  18.990   4.091  1.00  0.00     0.020 C 
BRANCH  18  19
HETATM   19  C8  UNL     1      50.091  19.898   4.314  1.00  0.00     0.124 C 
BRANCH  19  20
HETATM   20  N2  UNL     1      50.643  20.309   3.059  1.00  0.00    -0.343 N 
HETATM   21  C9  UNL     1      51.740  19.620   2.506  1.00  0.00     0.316 C 
HETATM   22  O1  UNL     1      52.246  18.636   3.116  1.00  0.00    -0.247 OA
HETATM   23  N3  UNL     1      52.273  20.037   1.264  1.00  0.00    -0.335 N 
ATOM     24  H3  UNL     1      51.864  20.830   0.770  1.00  0.00     0.165 HD
ATOM     25  H2  UNL     1      50.240  21.104   2.564  1.00  0.00     0.164 HD
BRANCH  23  26
HETATM   26  C10 UNL     1      53.398  19.332   0.699  1.00  0.00     0.023 C 
HETATM   27  C11 UNL     1      52.938  17.913   0.403  1.00  0.00     0.037 C 
HETATM   28  C12 UNL     1      53.860  19.974  -0.600  1.00  0.00     0.037 C 
HETATM   29  C13 UNL     1      54.524  19.336   1.677  1.00  0.00     0.037 C 
ENDBRANCH  23  26
ENDBRANCH  19  20
ENDBRANCH  18  19
ENDBRANCH  17  18
ENDBRANCH  16  17
ENDBRANCH   1  16
TORSDOF 10
ENDMDL
MODEL 4
REMARK VINA RESULT: -5.891077132      1.691      4.175
REMARK  10 active torsions:
REMARK  status: ('A' for Active; 'I' for Inactive)
REMARK    1  A    between atoms: N1_2  and  C2_3 
REMARK    2  A    between atoms: N1_2  and  C17_24 
REMARK    3  A    between atoms: C2_3  and  C3_4 
REMARK    4  A    between atoms: C3_4  and  C4_5 
REMARK    5  A    between atoms: C4_5  and  C5_6 
REMARK    6  A    between atoms: C5_6  and  C6_7 
REMARK    7  A    between atoms: C6_7  and  C7_8 
REMARK    8  A    between atoms: C7_8  and  C8_9 
REMARK    9  A    between atoms: C8_9  and  N2_10 
REMARK       I    between atoms: N2_10  and  C9_12 
REMARK       I    between atoms: C9_12  and  N3_14 
REMARK   10  A    between atoms: N3_14  and  C10_16 
ROOT
HETATM    1  C4  UNL     1      50.058  16.736   2.317  1.00  0.00     0.062 C 
HETATM    2  C14 UNL     1      50.375  15.328   2.019  1.00  0.00     0.040 C 
HETATM    3  C15 UNL     1      49.985  15.120   0.552  1.00  0.00     0.029 C 
HETATM    4  C16 UNL     1      49.992  16.574   0.079  1.00  0.00     0.168 C 
HETATM    5  O2  UNL     1      49.389  17.202   1.165  1.00  0.00    -0.380 OA
ENDROOT
BRANCH   1   6
HETATM    6  C3  UNL     1      49.076  16.903   3.450  1.00  0.00     0.068 C 
BRANCH   6   7
HETATM    7  C2  UNL     1      48.395  15.677   3.907  1.00  0.00     0.275 C 
BRANCH   7   8
HETATM    8  N1  UNL     1      46.959  15.701   3.856  1.00  0.00     0.088 N 
HETATM    9  C1  UNL     1      46.331  15.391   5.116  1.00  0.00     0.310 C 
BRANCH   8  10
HETATM   10  C17 UNL     1      46.567  14.640   2.920  1.00  0.00     0.222 C 
HETATM   11  C18 UNL     1      46.522  15.116   1.507  1.00  0.00     0.036 C 
HETATM   12  C19 UNL     1      45.581  14.171   0.746  1.00  0.00     0.002 C 
HETATM   13  C20 UNL     1      45.956  12.740   1.090  1.00  0.00     0.000 C 
HETATM   14  C21 UNL     1      47.359  12.684   1.689  1.00  0.00     0.002 C 
HETATM   15  C22 UNL     1      47.430  13.426   3.007  1.00  0.00     0.036 C 
ENDBRANCH   8  10
ENDBRANCH   7   8
ENDBRANCH   6   7
ENDBRANCH   1   6
BRANCH   1  16
HETATM   16  C5  UNL     1      51.263  17.624   2.492  1.00  0.00     0.038 C 
BRANCH  16  17
HETATM   17  C6  UNL     1      50.945  18.974   3.055  1.00  0.00     0.004 C 
BRANCH  17  18
HETATM   18  C7  UNL     1      51.501  20.036   2.113  1.00  0.00     0.020 C 
BRANCH  18  19
HETATM   19  C8  UNL     1      50.456  20.955   1.592  1.00  0.00     0.124 C 
BRANCH  19  20
HETATM   20  N2  UNL     1      49.569  20.246   0.721  1.00  0.00    -0.343 N 
HETATM   21  C9  UNL     1      48.205  20.116   1.049  1.00  0.00     0.316 C 
HETATM   22  O1  UNL     1      47.757  20.622   2.116  1.00  0.00    -0.247 OA
HETATM   23  N3  UNL     1      47.341  19.414   0.177  1.00  0.00    -0.335 N 
ATOM     24  H3  UNL     1      47.702  19.006  -0.685  1.00  0.00     0.165 HD
ATOM     25  H2  UNL     1      49.926  19.834  -0.141  1.00  0.00     0.164 HD
BRANCH  23  26
HETATM   26  C10 UNL     1      45.944  19.278   0.515  1.00  0.00     0.023 C 
HETATM   27  C11 UNL     1      45.284  20.621   0.246  1.00  0.00     0.037 C 
HETATM   28  C12 UNL     1      45.266  18.222  -0.343  1.00  0.00     0.037 C 
HETATM   29  C13 UNL     1      45.819  18.899   1.952  1.00  0.00     0.037 C 
ENDBRANCH  23  26
ENDBRANCH  19  20
ENDBRANCH  18  19
ENDBRANCH  17  18
ENDBRANCH  16  17
ENDBRANCH   1  16
TORSDOF 10
ENDMDL
MODEL 5
REMARK VINA RESULT: -5.797764085      1.566      6.524
REMARK  10 active torsions:
REMARK  status: ('A' for Active; 'I' for Inactive)
REMARK    1  A    between atoms: N1_2  and  C2_3 
REMARK    2  A    between atoms: N1_2  and  C17_24 
REMARK    3  A    between atoms: C2_3  and  C3_4 
REMARK    4  A    between atoms: C3_4  and  C4_5 
REMARK    5  A    between atoms: C4_5  and  C5_6 
REMARK    6  A    between atoms: C5_6  and  C6_7 
REMARK    7  A    between atoms: C6_7  and  C7_8 
REMARK    8  A    between atoms: C7_8  and  C8_9 
REMARK    9  A    between atoms: C8_9  and  N2_10 
REMARK       I    between atoms: N2_10  and  C9_12 
REMARK       I    between atoms: C9_12  and  N3_14 
REMARK   10  A    between atoms: N3_14  and  C10_16 
ROOT
HETATM    1  C4  UNL     1      48.756  19.648   2.908  1.00  0.00     0.062 C 
HETATM    2  C14 UNL     1      49.977  18.906   2.547  1.00  0.00     0.040 C 
HETATM    3  C15 UNL     1      51.118  19.604   3.294  1.00  0.00     0.029 C 
HETATM    4  C16 UNL     1      50.312  20.314   4.382  1.00  0.00     0.168 C 
HETATM    5  O2  UNL     1      49.218  20.759   3.645  1.00  0.00    -0.380 OA
ENDROOT
BRANCH   1   6
HETATM    6  C3  UNL     1      48.030  20.225   1.718  1.00  0.00     0.068 C 
BRANCH   6   7
HETATM    7  C2  UNL     1      47.863  19.327   0.560  1.00  0.00     0.275 C 
BRANCH   7   8
HETATM    8  N1  UNL     1      46.556  19.312  -0.037  1.00  0.00     0.088 N 
HETATM    9  C1  UNL     1      45.655  20.291   0.518  1.00  0.00     0.310 C 
BRANCH   8  10
HETATM   10  C17 UNL     1      45.984  17.995   0.270  1.00  0.00     0.222 C 
HETATM   11  C18 UNL     1      44.848  17.645  -0.631  1.00  0.00     0.036 C 
HETATM   12  C19 UNL     1      43.992  16.606   0.108  1.00  0.00     0.002 C 
HETATM   13  C20 UNL     1      44.915  15.540   0.675  1.00  0.00     0.000 C 
HETATM   14  C21 UNL     1      46.275  15.586  -0.018  1.00  0.00     0.002 C 
HETATM   15  C22 UNL     1      46.990  16.894   0.249  1.00  0.00     0.036 C 
ENDBRANCH   8  10
ENDBRANCH   7   8
ENDBRANCH   6   7
ENDBRANCH   1   6
BRANCH   1  16
HETATM   16  C5  UNL     1      47.818  18.900   3.821  1.00  0.00     0.038 C 
BRANCH  16  17
HETATM   17  C6  UNL     1      47.979  17.413   3.771  1.00  0.00     0.004 C 
BRANCH  17  18
HETATM   18  C7  UNL     1      46.600  16.771   3.877  1.00  0.00     0.020 C 
BRANCH  18  19
HETATM   19  C8  UNL     1      46.610  15.499   4.644  1.00  0.00     0.124 C 
BRANCH  19  20
HETATM   20  N2  UNL     1      45.973  14.465   3.887  1.00  0.00    -0.343 N 
HETATM   21  C9  UNL     1      46.745  13.558   3.134  1.00  0.00     0.316 C 
HETATM   22  O1  UNL     1      48.004  13.654   3.121  1.00  0.00    -0.247 OA
HETATM   23  N3  UNL     1      46.101  12.540   2.392  1.00  0.00    -0.335 N 
ATOM     24  H3  UNL     1      45.084  12.461   2.404  1.00  0.00     0.165 HD
ATOM     25  H2  UNL     1      44.956  14.384   3.892  1.00  0.00     0.164 HD
BRANCH  23  26
HETATM   26  C10 UNL     1      46.892  11.613   1.620  1.00  0.00     0.023 C 
HETATM   27  C11 UNL     1      45.947  10.903   0.662  1.00  0.00     0.037 C 
HETATM   28  C12 UNL     1      47.955  12.334   0.807  1.00  0.00     0.037 C 
HETATM   29  C13 UNL     1      47.551  10.641   2.538  1.00  0.00     0.037 C 
ENDBRANCH  23  26
ENDBRANCH  19  20
ENDBRANCH  18  19
ENDBRANCH  17  18
ENDBRANCH  16  17
ENDBRANCH   1  16
TORSDOF 10
ENDMDL
