MODEL 1
REMARK VINA RESULT: -6.148671868      0.000      0.000
REMARK  9 active torsions:
REMARK  status: ('A' for Active; 'I' for Inactive)
REMARK    1  A    between atoms: C2_2  and  C3_3 
REMARK    2  A    between atoms: C3_3  and  C4_4 
REMARK    3  A    between atoms: C4_4  and  C5_5 
REMARK    4  A    between atoms: C5_5  and  S1_6 
REMARK    5  A    between atoms: S1_6  and  C6_7 
REMARK    6  A    between atoms: C9_12  and  C10_13 
REMARK    7  A    between atoms: C10_13  and  N2_14 
REMARK    8  A    between atoms: C19_23  and  C20_24 
REMARK    9  A    between atoms: C20_24  and  C21_25 
ROOT
HETATM    1  C10 UNL     1      48.059  17.741   1.532  1.00  0.00     0.080 C 
HETATM    2  C16 UNL     1      46.877  17.034   1.895  1.00  0.00     0.038 C 
HETATM    3  C17 UNL     1      46.277  17.516   3.186  1.00  0.00     0.003 C 
HETATM    4  C18 UNL     1      47.494  18.022   3.925  1.00  0.00     0.008 C 
HETATM    5  C19 UNL     1      48.314  18.593   2.817  1.00  0.00     0.028 C 
ENDROOT
BRANCH   1   6
HETATM    6  C9  UNL     1      49.319  17.038   1.174  1.00  0.00     0.062 A 
HETATM    7  C7  UNL     1      49.859  15.881   1.617  1.00  0.00     0.032 A 
HETATM    8  N1  UNL     1      51.073  15.747   0.996  1.00  0.00    -0.339 N 
HETATM    9  C8  UNL     1      49.322  14.906   2.557  1.00  0.00     0.070 C 
HETATM   10  C6  UNL     1      51.309  16.768   0.192  1.00  0.00     0.144 A 
ATOM     11  H1  UNL     1      51.710  14.963   1.135  1.00  0.00     0.168 HD
HETATM   12  N4  UNL     1      50.210  17.576   0.306  1.00  0.00    -0.336 N 
ATOM     13  H4  UNL     1      50.080  18.457  -0.191  1.00  0.00     0.168 HD
BRANCH  10  14
HETATM   14  S1  UNL     1      52.733  17.097  -0.845  1.00  0.00    -0.094 SA
BRANCH  14  15
HETATM   15  C5  UNL     1      53.452  18.711  -0.354  1.00  0.00     0.082 C 
BRANCH  15  16
HETATM   16  C4  UNL     1      54.786  18.516   0.278  1.00  0.00     0.010 C 
BRANCH  16  17
HETATM   17  C3  UNL     1      54.853  19.210   1.606  1.00  0.00     0.000 C 
BRANCH  17  18
HETATM   18  C2  UNL     1      53.453  19.494   2.105  1.00  0.00    -0.005 C 
HETATM   19  C1  UNL     1      53.425  19.575   3.628  1.00  0.00     0.005 C 
ENDBRANCH  17  18
ENDBRANCH  16  17
ENDBRANCH  15  16
ENDBRANCH  14  15
ENDBRANCH  10  14
ENDBRANCH   1   6
BRANCH   1  20
HETATM   20  N2  UNL     1      47.830  18.729   0.538  1.00  0.00    -0.378 N 
HETATM   21  C11 UNL     1      47.750  20.058   0.604  1.00  0.00     0.059 C 
HETATM   22  C12 UNL     1      46.407  20.637   0.924  1.00  0.00     0.044 C 
HETATM   23  C13 UNL     1      45.281  19.891   0.311  1.00  0.00     0.007 C 
HETATM   24  C14 UNL     1      45.667  18.799  -0.604  1.00  0.00     0.020 C 
HETATM   25  C15 UNL     1      47.037  18.232  -0.572  1.00  0.00     0.123 C 
ENDBRANCH   1  20
BRANCH   5  26
HETATM   26  C20 UNL     1      49.728  18.840   3.128  1.00  0.00     0.107 C 
BRANCH  26  27
HETATM   27  C21 UNL     1      49.792  20.063   4.024  1.00  0.00     0.231 C 
HETATM   28  N3  UNL     1      49.374  21.309   3.488  1.00  0.00    -0.062 NA
HETATM   29  O1  UNL     1      50.192  20.023   5.206  1.00  0.00    -0.277 OA
ENDBRANCH  26  27
ENDBRANCH   5  26
TORSDOF 9
ENDMDL
MODEL 2
REMARK VINA RESULT: -5.866435854      0.897      1.281
REMARK  9 active torsions:
REMARK  status: ('A' for Active; 'I' for Inactive)
REMARK    1  A    between atoms: C2_2  and  C3_3 
REMARK    2  A    between atoms: C3_3  and  C4_4 
REMARK    3  A    between atoms: C4_4  and  C5_5 
REMARK    4  A    between atoms: C5_5  and  S1_6 
REMARK    5  A    between atoms: S1_6  and  C6_7 
REMARK    6  A    between atoms: C9_12  and  C10_13 
REMARK    7  A    between atoms: C10_13  and  N2_14 
REMARK    8  A    between atoms: C19_23  and  C20_24 
REMARK    9  A    between atoms: C20_24  and  C21_25 
ROOT
HETATM    1  C10 UNL     1      47.938  17.800   1.706  1.00  0.00     0.080 C 
HETATM    2  C16 UNL     1      46.724  17.258   2.215  1.00  0.00     0.038 C 
HETATM    3  C17 UNL     1      46.278  17.914   3.492  1.00  0.00     0.003 C 
HETATM    4  C18 UNL     1      47.593  18.351   4.093  1.00  0.00     0.008 C 
HETATM    5  C19 UNL     1      48.376  18.731   2.882  1.00  0.00     0.028 C 
ENDROOT
BRANCH   1   6
HETATM    6  C9  UNL     1      49.091  16.938   1.332  1.00  0.00     0.062 A 
HETATM    7  C7  UNL     1      49.577  15.802   1.879  1.00  0.00     0.032 A 
HETATM    8  N1  UNL     1      50.702  15.472   1.171  1.00  0.00    -0.339 N 
HETATM    9  C8  UNL     1      49.064  15.015   2.992  1.00  0.00     0.070 C 
HETATM   10  C6  UNL     1      50.935  16.351   0.213  1.00  0.00     0.144 A 
ATOM     11  H1  UNL     1      51.284  14.655   1.357  1.00  0.00     0.168 HD
HETATM   12  N4  UNL     1      49.926  17.270   0.317  1.00  0.00    -0.336 N 
ATOM     13  H4  UNL     1      49.817  18.087  -0.283  1.00  0.00     0.168 HD
BRANCH  10  14
HETATM   14  S1  UNL     1      52.263  16.403  -0.989  1.00  0.00    -0.094 SA
BRANCH  14  15
HETATM   15  C5  UNL     1      53.449  17.710  -0.492  1.00  0.00     0.082 C 
BRANCH  15  16
HETATM   16  C4  UNL     1      53.132  18.209   0.875  1.00  0.00     0.010 C 
BRANCH  16  17
HETATM   17  C3  UNL     1      52.917  19.693   0.864  1.00  0.00     0.000 C 
BRANCH  17  18
HETATM   18  C2  UNL     1      52.480  20.136  -0.515  1.00  0.00    -0.005 C 
HETATM   19  C1  UNL     1      51.008  20.536  -0.516  1.00  0.00     0.005 C 
ENDBRANCH  17  18
ENDBRANCH  16  17
ENDBRANCH  15  16
ENDBRANCH  14  15
ENDBRANCH  10  14
ENDBRANCH   1   6
BRANCH   1  20
HETATM   20  N2  UNL     1      47.733  18.714   0.639  1.00  0.00    -0.378 N 
HETATM   21  C11 UNL     1      47.692  20.046   0.602  1.00  0.00     0.059 C 
HETATM   22  C12 UNL     1      46.369  20.689   0.882  1.00  0.00     0.044 C 
HETATM   23  C13 UNL     1      45.217  19.932   0.333  1.00  0.00     0.007 C 
HETATM   24  C14 UNL     1      45.565  18.761  -0.496  1.00  0.00     0.020 C 
HETATM   25  C15 UNL     1      46.917  18.157  -0.426  1.00  0.00     0.123 C 
ENDBRANCH   1  20
BRANCH   5  26
HETATM   26  C20 UNL     1      49.828  18.853   3.070  1.00  0.00     0.107 C 
BRANCH  26  27
HETATM   27  C21 UNL     1      50.081  20.117   3.870  1.00  0.00     0.231 C 
HETATM   28  N3  UNL     1      49.413  21.305   3.474  1.00  0.00    -0.062 NA
HETATM   29  O1  UNL     1      50.844  20.160   4.857  1.00  0.00    -0.277 OA
ENDBRANCH  26  27
ENDBRANCH   5  26
TORSDOF 9
ENDMDL
MODEL 3
REMARK VINA RESULT: -5.857374300      3.674      6.520
REMARK  9 active torsions:
REMARK  status: ('A' for Active; 'I' for Inactive)
REMARK    1  A    between atoms: C2_2  and  C3_3 
REMARK    2  A    between atoms: C3_3  and  C4_4 
REMARK    3  A    between atoms: C4_4  and  C5_5 
REMARK    4  A    between atoms: C5_5  and  S1_6 
REMARK    5  A    between atoms: S1_6  and  C6_7 
REMARK    6  A    between atoms: C9_12  and  C10_13 
REMARK    7  A    between atoms: C10_13  and  N2_14 
REMARK    8  A    between atoms: C19_23  and  C20_24 
REMARK    9  A    between atoms: C20_24  and  C21_25 
ROOT
HETATM    1  C10 UNL     1      47.437  17.002   1.460  1.00  0.00     0.080 C 
HETATM    2  C16 UNL     1      47.515  18.422   1.389  1.00  0.00     0.038 C 
HETATM    3  C17 UNL     1      47.517  19.079   2.741  1.00  0.00     0.003 C 
HETATM    4  C18 UNL     1      46.734  18.088   3.570  1.00  0.00     0.008 C 
HETATM    5  C19 UNL     1      47.165  16.785   2.983  1.00  0.00     0.028 C 
ENDROOT
BRANCH   1   6
HETATM    6  C9  UNL     1      46.430  16.228   0.686  1.00  0.00     0.062 A 
HETATM    7  C7  UNL     1      45.146  16.497   0.361  1.00  0.00     0.032 A 
HETATM    8  N1  UNL     1      44.668  15.400  -0.305  1.00  0.00    -0.339 N 
HETATM    9  C8  UNL     1      44.355  17.693   0.618  1.00  0.00     0.070 C 
HETATM   10  C6  UNL     1      45.595  14.464  -0.404  1.00  0.00     0.144 A 
ATOM     11  H1  UNL     1      43.722  15.315  -0.675  1.00  0.00     0.168 HD
HETATM   12  N4  UNL     1      46.698  14.984   0.218  1.00  0.00    -0.336 N 
ATOM     13  H4  UNL     1      47.592  14.505   0.316  1.00  0.00     0.168 HD
BRANCH  10  14
HETATM   14  S1  UNL     1      45.503  12.844  -1.164  1.00  0.00    -0.094 SA
BRANCH  14  15
HETATM   15  C5  UNL     1      46.586  11.698  -0.228  1.00  0.00     0.082 C 
BRANCH  15  16
HETATM   16  C4  UNL     1      45.797  10.952   0.791  1.00  0.00     0.010 C 
BRANCH  16  17
HETATM   17  C3  UNL     1      45.682  11.744   2.060  1.00  0.00     0.000 C 
BRANCH  17  18
HETATM   18  C2  UNL     1      46.990  11.689   2.817  1.00  0.00    -0.005 C 
HETATM   19  C1  UNL     1      47.330  10.254   3.209  1.00  0.00     0.005 C 
ENDBRANCH  17  18
ENDBRANCH  16  17
ENDBRANCH  15  16
ENDBRANCH  14  15
ENDBRANCH  10  14
ENDBRANCH   1   6
BRANCH   1  20
HETATM   20  N2  UNL     1      48.693  16.368   1.270  1.00  0.00    -0.378 N 
HETATM   21  C11 UNL     1      49.494  15.709   2.107  1.00  0.00     0.059 C 
HETATM   22  C12 UNL     1      50.473  16.529   2.889  1.00  0.00     0.044 C 
HETATM   23  C13 UNL     1      51.035  17.668   2.122  1.00  0.00     0.007 C 
HETATM   24  C14 UNL     1      50.646  17.728   0.699  1.00  0.00     0.020 C 
HETATM   25  C15 UNL     1      49.470  16.973   0.203  1.00  0.00     0.123 C 
ENDBRANCH   1  20
BRANCH   5  26
HETATM   26  C20 UNL     1      46.320  15.627   3.305  1.00  0.00     0.107 C 
BRANCH  26  27
HETATM   27  C21 UNL     1      46.790  15.074   4.637  1.00  0.00     0.231 C 
HETATM   28  N3  UNL     1      45.871  15.062   5.719  1.00  0.00    -0.062 NA
HETATM   29  O1  UNL     1      47.941  14.629   4.824  1.00  0.00    -0.277 OA
ENDBRANCH  26  27
ENDBRANCH   5  26
TORSDOF 9
ENDMDL
MODEL 4
REMARK VINA RESULT: -5.770546626      0.926      1.736
REMARK  9 active torsions:
REMARK  status: ('A' for Active; 'I' for Inactive)
REMARK    1  A    between atoms: C2_2  and  C3_3 
REMARK    2  A    between atoms: C3_3  and  C4_4 
REMARK    3  A    between atoms: C4_4  and  C5_5 
REMARK    4  A    between atoms: C5_5  and  S1_6 
REMARK    5  A    between atoms: S1_6  and  C6_7 
REMARK    6  A    between atoms: C9_12  and  C10_13 
REMARK    7  A    between atoms: C10_13  and  N2_14 
REMARK    8  A    between atoms: C19_23  and  C20_24 
REMARK    9  A    between atoms: C20_24  and  C21_25 
ROOT
HETATM    1  C10 UNL     1      48.049  17.722   1.512  1.00  0.00     0.080 C 
HETATM    2  C16 UNL     1      46.887  16.986   1.881  1.00  0.00     0.038 C 
HETATM    3  C17 UNL     1      46.294  17.438   3.186  1.00  0.00     0.003 C 
HETATM    4  C18 UNL     1      47.509  17.960   3.916  1.00  0.00     0.008 C 
HETATM    5  C19 UNL     1      48.302  18.563   2.805  1.00  0.00     0.028 C 
ENDROOT
BRANCH   1   6
HETATM    6  C9  UNL     1      49.319  17.052   1.129  1.00  0.00     0.062 A 
HETATM    7  C7  UNL     1      49.891  15.902   1.553  1.00  0.00     0.032 A 
HETATM    8  N1  UNL     1      51.098  15.802   0.912  1.00  0.00    -0.339 N 
HETATM    9  C8  UNL     1      49.390  14.907   2.490  1.00  0.00     0.070 C 
HETATM   10  C6  UNL     1      51.300  16.836   0.116  1.00  0.00     0.144 A 
ATOM     11  H1  UNL     1      51.755  15.032   1.035  1.00  0.00     0.168 HD
HETATM   12  N4  UNL     1      50.185  17.619   0.254  1.00  0.00    -0.336 N 
ATOM     13  H4  UNL     1      50.029  18.501  -0.232  1.00  0.00     0.168 HD
BRANCH  10  14
HETATM   14  S1  UNL     1      52.701  17.207  -0.938  1.00  0.00    -0.094 SA
BRANCH  14  15
HETATM   15  C5  UNL     1      53.831  18.331  -0.031  1.00  0.00     0.082 C 
BRANCH  15  16
HETATM   16  C4  UNL     1      53.152  19.622   0.267  1.00  0.00     0.010 C 
BRANCH  16  17
HETATM   17  C3  UNL     1      52.529  20.196  -0.971  1.00  0.00     0.000 C 
BRANCH  17  18
HETATM   18  C2  UNL     1      53.568  20.969  -1.754  1.00  0.00    -0.005 C 
HETATM   19  C1  UNL     1      53.724  20.399  -3.160  1.00  0.00     0.005 C 
ENDBRANCH  17  18
ENDBRANCH  16  17
ENDBRANCH  15  16
ENDBRANCH  14  15
ENDBRANCH  10  14
ENDBRANCH   1   6
BRANCH   1  20
HETATM   20  N2  UNL     1      47.786  18.718   0.534  1.00  0.00    -0.378 N 
HETATM   21  C11 UNL     1      47.672  20.043   0.620  1.00  0.00     0.059 C 
HETATM   22  C12 UNL     1      46.318  20.583   0.960  1.00  0.00     0.044 C 
HETATM   23  C13 UNL     1      45.206  19.817   0.345  1.00  0.00     0.007 C 
HETATM   24  C14 UNL     1      45.612  18.749  -0.589  1.00  0.00     0.020 C 
HETATM   25  C15 UNL     1      46.996  18.217  -0.576  1.00  0.00     0.123 C 
ENDBRANCH   1  20
BRANCH   5  26
HETATM   26  C20 UNL     1      49.715  18.837   3.101  1.00  0.00     0.107 C 
BRANCH  26  27
HETATM   27  C21 UNL     1      49.766  20.060   3.997  1.00  0.00     0.231 C 
HETATM   28  N3  UNL     1      49.377  21.310   3.447  1.00  0.00    -0.062 NA
HETATM   29  O1  UNL     1      50.130  20.018   5.190  1.00  0.00    -0.277 OA
ENDBRANCH  26  27
ENDBRANCH   5  26
TORSDOF 9
ENDMDL
MODEL 5
REMARK VINA RESULT: -5.769214570      2.851      6.212
REMARK  9 active torsions:
REMARK  status: ('A' for Active; 'I' for Inactive)
REMARK    1  A    between atoms: C2_2  and  C3_3 
REMARK    2  A    between atoms: C3_3  and  C4_4 
REMARK    3  A    between atoms: C4_4  and  C5_5 
REMARK    4  A    between atoms: C5_5  and  S1_6 
REMARK    5  A    between atoms: S1_6  and  C6_7 
REMARK    6  A    between atoms: C9_12  and  C10_13 
REMARK    7  A    between atoms: C10_13  and  N2_14 
REMARK    8  A    between atoms: C19_23  and  C20_24 
REMARK    9  A    between atoms: C20_24  and  C21_25 
ROOT
HETATM    1  C10 UNL     1      48.871  18.913   1.503  1.00  0.00     0.080 C 
HETATM    2  C16 UNL     1      49.552  20.038   0.959  1.00  0.00     0.038 C 
HETATM    3  C17 UNL     1      50.200  20.898   2.007  1.00  0.00     0.003 C 
HETATM    4  C18 UNL     1      49.303  20.661   3.201  1.00  0.00     0.008 C 
HETATM    5  C19 UNL     1      48.938  19.224   3.034  1.00  0.00     0.028 C 
ENDROOT
BRANCH   1   6
HETATM    6  C9  UNL     1      47.462  18.596   1.149  1.00  0.00     0.062 A 
HETATM    7  C7  UNL     1      46.406  19.392   0.865  1.00  0.00     0.032 A 
HETATM    8  N1  UNL     1      45.329  18.567   0.679  1.00  0.00    -0.339 N 
HETATM    9  C8  UNL     1      46.343  20.842   0.749  1.00  0.00     0.070 C 
HETATM   10  C6  UNL     1      45.667  17.300   0.836  1.00  0.00     0.144 A 
ATOM     11  H1  UNL     1      44.388  18.889   0.449  1.00  0.00     0.168 HD
HETATM   12  N4  UNL     1      47.003  17.321   1.132  1.00  0.00    -0.336 N 
ATOM     13  H4  UNL     1      47.573  16.494   1.314  1.00  0.00     0.168 HD
BRANCH  10  14
HETATM   14  S1  UNL     1      44.656  15.826   0.714  1.00  0.00    -0.094 SA
BRANCH  14  15
HETATM   15  C5  UNL     1      45.749  14.358   0.817  1.00  0.00     0.082 C 
BRANCH  15  16
HETATM   16  C4  UNL     1      45.630  13.713   2.154  1.00  0.00     0.010 C 
BRANCH  16  17
HETATM   17  C3  UNL     1      45.871  12.235   2.056  1.00  0.00     0.000 C 
BRANCH  17  18
HETATM   18  C2  UNL     1      47.157  11.880   2.769  1.00  0.00    -0.005 C 
HETATM   19  C1  UNL     1      47.188  10.398   3.127  1.00  0.00     0.005 C 
ENDBRANCH  17  18
ENDBRANCH  16  17
ENDBRANCH  15  16
ENDBRANCH  14  15
ENDBRANCH  10  14
ENDBRANCH   1   6
BRANCH   1  20
HETATM   20  N2  UNL     1      49.614  17.708   1.393  1.00  0.00    -0.378 N 
HETATM   21  C11 UNL     1      50.509  17.136   2.199  1.00  0.00     0.059 C 
HETATM   22  C12 UNL     1      51.934  17.565   2.036  1.00  0.00     0.044 C 
HETATM   23  C13 UNL     1      52.316  17.822   0.626  1.00  0.00     0.007 C 
HETATM   24  C14 UNL     1      51.287  17.492  -0.380  1.00  0.00     0.020 C 
HETATM   25  C15 UNL     1      49.866  17.331   0.014  1.00  0.00     0.123 C 
ENDBRANCH   1  20
BRANCH   5  26
HETATM   26  C20 UNL     1      47.783  18.762   3.814  1.00  0.00     0.107 C 
BRANCH  26  27
HETATM   27  C21 UNL     1      48.236  17.575   4.642  1.00  0.00     0.231 C 
HETATM   28  N3  UNL     1      47.714  16.294   4.320  1.00  0.00    -0.062 NA
HETATM   29  O1  UNL     1      49.044  17.671   5.589  1.00  0.00    -0.277 OA
ENDBRANCH  26  27
ENDBRANCH   5  26
TORSDOF 9
ENDMDL
