MODEL 1
REMARK VINA RESULT: -5.773339197      0.000      0.000
REMARK  11 active torsions:
REMARK  status: ('A' for Active; 'I' for Inactive)
REMARK    1  A    between atoms: C4_5  and  N1_6 
REMARK    2  A    between atoms: N1_6  and  C5_8 
REMARK    3  A    between atoms: C5_8  and  C6_9 
REMARK    4  A    between atoms: C6_9  and  C7_10 
REMARK    5  A    between atoms: C7_10  and  C8_11 
REMARK    6  A    between atoms: C8_11  and  C9_12 
REMARK    7  A    between atoms: C9_12  and  C10_13 
REMARK    8  A    between atoms: C10_13  and  C11_14 
REMARK    9  A    between atoms: C11_14  and  C12_15 
REMARK   10  A    between atoms: C12_15  and  N2_16 
REMARK   11  A    between atoms: N2_16  and  C13_18 
ROOT
HETATM    1  C11 UNL     1      46.860  14.977   4.616  1.00  0.00     0.020 C 
ENDROOT
BRANCH   1   2
HETATM    2  C10 UNL     1      48.061  15.864   4.531  1.00  0.00     0.002 C 
BRANCH   2   3
HETATM    3  C9  UNL     1      47.812  17.232   5.105  1.00  0.00     0.000 C 
BRANCH   3   4
HETATM    4  C8  UNL     1      48.407  18.343   4.287  1.00  0.00     0.000 C 
BRANCH   4   5
HETATM    5  C7  UNL     1      47.350  18.775   3.292  1.00  0.00     0.002 C 
BRANCH   5   6
HETATM    6  C6  UNL     1      47.886  18.821   1.877  1.00  0.00     0.020 C 
BRANCH   6   7
HETATM    7  C5  UNL     1      47.930  20.247   1.367  1.00  0.00     0.121 C 
BRANCH   7   8
HETATM    8  N1  UNL     1      49.007  20.996   1.963  1.00  0.00    -0.370 N 
ATOM      9  H1  UNL     1      48.825  21.830   2.522  1.00  0.00     0.161 HD
BRANCH   8  10
HETATM   10  C4  UNL     1      50.234  20.564   1.758  1.00  0.00     0.144 A 
HETATM   11  S1  UNL     1      51.030  20.240   0.286  1.00  0.00    -0.064 SA
HETATM   12  C3  UNL     1      52.530  19.740   0.913  1.00  0.00     0.077 A 
HETATM   13  C2  UNL     1      52.332  19.853   2.264  1.00  0.00     0.014 A 
HETATM   14  C1  UNL     1      53.457  19.497   3.235  1.00  0.00     0.068 C 
HETATM   15  N5  UNL     1      51.158  20.274   2.674  1.00  0.00    -0.340 N 
ATOM     16  H5  UNL     1      50.958  20.376   3.669  1.00  0.00     0.167 HD
ENDBRANCH   8  10
ENDBRANCH   7   8
ENDBRANCH   6   7
ENDBRANCH   5   6
ENDBRANCH   4   5
ENDBRANCH   3   4
ENDBRANCH   2   3
ENDBRANCH   1   2
BRANCH   1  17
HETATM   17  C12 UNL     1      45.991  15.105   3.355  1.00  0.00     0.121 C 
BRANCH  17  18
HETATM   18  N2  UNL     1      46.376  14.259   2.338  1.00  0.00    -0.376 N 
ATOM     19  H2  UNL     1      45.650  14.294   1.622  1.00  0.00     0.161 HD
BRANCH  18  20
HETATM   20  C13 UNL     1      47.251  13.471   1.938  1.00  0.00     0.110 A 
HETATM   21  N3  UNL     1      46.898  12.140   2.129  1.00  0.00    -0.338 N 
HETATM   22  C14 UNL     1      47.747  11.197   1.742  1.00  0.00     0.182 A 
ATOM     23  H3  UNL     1      46.006  11.893   2.558  1.00  0.00     0.168 HD
HETATM   24  N4  UNL     1      48.946  11.461   1.168  1.00  0.00    -0.355 N 
HETATM   25  C15 UNL     1      49.296  12.749   0.978  1.00  0.00     0.020 A 
ATOM     26  H4  UNL     1      49.568  10.703   0.885  1.00  0.00     0.166 HD
HETATM   27  C16 UNL     1      48.449  13.767   1.364  1.00  0.00     0.009 A 
HETATM   28  C21 UNL     1      50.594  13.118   0.348  1.00  0.00     0.058 C 
HETATM   29  C17 UNL     1      48.926  15.122   1.118  1.00  0.00     0.048 C 
HETATM   30  C18 UNL     1      50.337  15.141   1.768  1.00  0.00    -0.014 C 
HETATM   31  C19 UNL     1      50.784  16.565   1.975  1.00  0.00     0.010 C 
HETATM   32  C20 UNL     1      51.233  14.341   0.893  1.00  0.00     0.010 C 
ENDBRANCH  18  20
ENDBRANCH  17  18
ENDBRANCH   1  17
TORSDOF 11
ENDMDL
MODEL 2
REMARK VINA RESULT: -5.634126261      2.763      6.169
REMARK  11 active torsions:
REMARK  status: ('A' for Active; 'I' for Inactive)
REMARK    1  A    between atoms: C4_5  and  N1_6 
REMARK    2  A    between atoms: N1_6  and  C5_8 
REMARK    3  A    between atoms: C5_8  and  C6_9 
REMARK    4  A    between atoms: C6_9  and  C7_10 
REMARK    5  A    between atoms: C7_10  and  C8_11 
REMARK    6  A    between atoms: C8_11  and  C9_12 
REMARK    7  A    between atoms: C9_12  and  C10_13 
REMARK    8  A    between atoms: C10_13  and  C11_14 
REMARK    9  A    between atoms: C11_14  and  C12_15 
REMARK   10  A    between atoms: C12_15  and  N2_16 
REMARK   11  A    between atoms: N2_16  and  C13_18 
ROOT
HETATM    1  C11 UNL     1      49.499  16.218   0.693  1.00  0.00     0.020 C 
ENDROOT
BRANCH   1   2
HETATM    2  C10 UNL     1      48.392  15.421   1.306  1.00  0.00     0.002 C 
BRANCH   2   3
HETATM    3  C9  UNL     1      48.820  14.703   2.557  1.00  0.00     0.000 C 
BRANCH   3   4
HETATM    4  C8  UNL     1      48.137  15.202   3.799  1.00  0.00     0.000 C 
BRANCH   4   5
HETATM    5  C7  UNL     1      48.882  16.443   4.246  1.00  0.00     0.002 C 
BRANCH   5   6
HETATM    6  C6  UNL     1      47.940  17.571   4.612  1.00  0.00     0.020 C 
BRANCH   6   7
HETATM    7  C5  UNL     1      46.647  17.463   3.830  1.00  0.00     0.121 C 
BRANCH   7   8
HETATM    8  N1  UNL     1      46.253  18.731   3.269  1.00  0.00    -0.370 N 
ATOM      9  H1  UNL     1      46.218  19.575   3.840  1.00  0.00     0.161 HD
BRANCH   8  10
HETATM   10  C4  UNL     1      45.942  18.758   1.989  1.00  0.00     0.144 A 
HETATM   11  S1  UNL     1      45.991  20.064   0.896  1.00  0.00    -0.064 SA
HETATM   12  C3  UNL     1      45.446  19.251  -0.495  1.00  0.00     0.077 A 
HETATM   13  C2  UNL     1      45.248  17.979  -0.030  1.00  0.00     0.014 A 
HETATM   14  C1  UNL     1      44.747  16.887  -0.974  1.00  0.00     0.068 C 
HETATM   15  N5  UNL     1      45.507  17.747   1.236  1.00  0.00    -0.340 N 
ATOM     16  H5  UNL     1      45.378  16.816   1.634  1.00  0.00     0.167 HD
ENDBRANCH   8  10
ENDBRANCH   7   8
ENDBRANCH   6   7
ENDBRANCH   5   6
ENDBRANCH   4   5
ENDBRANCH   3   4
ENDBRANCH   2   3
ENDBRANCH   1   2
BRANCH   1  17
HETATM   17  C12 UNL     1      48.969  17.540   0.116  1.00  0.00     0.121 C 
BRANCH  17  18
HETATM   18  N2  UNL     1      49.634  18.650   0.591  1.00  0.00    -0.376 N 
ATOM     19  H2  UNL     1      49.668  19.331  -0.168  1.00  0.00     0.161 HD
BRANCH  18  20
HETATM   20  C13 UNL     1      50.210  19.156   1.569  1.00  0.00     0.110 A 
HETATM   21  N3  UNL     1      49.354  19.913   2.361  1.00  0.00    -0.338 N 
HETATM   22  C14 UNL     1      49.846  20.507   3.440  1.00  0.00     0.182 A 
ATOM     23  H3  UNL     1      48.368  20.010   2.117  1.00  0.00     0.168 HD
HETATM   24  N4  UNL     1      51.145  20.417   3.815  1.00  0.00    -0.355 N 
HETATM   25  C15 UNL     1      51.983  19.685   3.054  1.00  0.00     0.020 A 
ATOM     26  H4  UNL     1      51.481  20.891   4.654  1.00  0.00     0.166 HD
HETATM   27  C16 UNL     1      51.521  19.048   1.921  1.00  0.00     0.009 A 
HETATM   28  C21 UNL     1      53.422  19.534   3.404  1.00  0.00     0.058 C 
HETATM   29  C17 UNL     1      52.510  18.287   1.168  1.00  0.00     0.048 C 
HETATM   30  C18 UNL     1      53.664  19.302   0.942  1.00  0.00    -0.014 C 
HETATM   31  C19 UNL     1      54.561  18.817  -0.167  1.00  0.00     0.010 C 
HETATM   32  C20 UNL     1      54.350  19.482   2.249  1.00  0.00     0.010 C 
ENDBRANCH  18  20
ENDBRANCH  17  18
ENDBRANCH   1  17
TORSDOF 11
ENDMDL
MODEL 3
REMARK VINA RESULT: -5.602797115      1.353      2.891
REMARK  11 active torsions:
REMARK  status: ('A' for Active; 'I' for Inactive)
REMARK    1  A    between atoms: C4_5  and  N1_6 
REMARK    2  A    between atoms: N1_6  and  C5_8 
REMARK    3  A    between atoms: C5_8  and  C6_9 
REMARK    4  A    between atoms: C6_9  and  C7_10 
REMARK    5  A    between atoms: C7_10  and  C8_11 
REMARK    6  A    between atoms: C8_11  and  C9_12 
REMARK    7  A    between atoms: C9_12  and  C10_13 
REMARK    8  A    between atoms: C10_13  and  C11_14 
REMARK    9  A    between atoms: C11_14  and  C12_15 
REMARK   10  A    between atoms: C12_15  and  N2_16 
REMARK   11  A    between atoms: N2_16  and  C13_18 
ROOT
HETATM    1  C11 UNL     1      50.726  16.286   2.497  1.00  0.00     0.020 C 
ENDROOT
BRANCH   1   2
HETATM    2  C10 UNL     1      49.664  16.497   3.530  1.00  0.00     0.002 C 
BRANCH   2   3
HETATM    3  C9  UNL     1      48.357  16.942   2.934  1.00  0.00     0.000 C 
BRANCH   3   4
HETATM    4  C8  UNL     1      47.460  17.645   3.913  1.00  0.00     0.000 C 
BRANCH   4   5
HETATM    5  C7  UNL     1      46.884  18.850   3.200  1.00  0.00     0.002 C 
BRANCH   5   6
HETATM    6  C6  UNL     1      47.262  18.878   1.734  1.00  0.00     0.020 C 
BRANCH   6   7
HETATM    7  C5  UNL     1      47.819  20.233   1.351  1.00  0.00     0.121 C 
BRANCH   7   8
HETATM    8  N1  UNL     1      48.862  20.658   2.250  1.00  0.00    -0.370 N 
ATOM      9  H1  UNL     1      48.658  21.252   3.053  1.00  0.00     0.161 HD
BRANCH   8  10
HETATM   10  C4  UNL     1      50.088  20.250   1.994  1.00  0.00     0.144 A 
HETATM   11  S1  UNL     1      50.777  19.775   0.509  1.00  0.00    -0.064 SA
HETATM   12  C3  UNL     1      52.345  19.415   1.060  1.00  0.00     0.077 A 
HETATM   13  C2  UNL     1      52.252  19.688   2.399  1.00  0.00     0.014 A 
HETATM   14  C1  UNL     1      53.467  19.499   3.306  1.00  0.00     0.068 C 
HETATM   15  N5  UNL     1      51.096  20.112   2.855  1.00  0.00    -0.340 N 
ATOM     16  H5  UNL     1      50.973  20.331   3.844  1.00  0.00     0.167 HD
ENDBRANCH   8  10
ENDBRANCH   7   8
ENDBRANCH   6   7
ENDBRANCH   5   6
ENDBRANCH   4   5
ENDBRANCH   3   4
ENDBRANCH   2   3
ENDBRANCH   1   2
BRANCH   1  17
HETATM   17  C12 UNL     1      50.160  15.560   1.267  1.00  0.00     0.121 C 
BRANCH  17  18
HETATM   18  N2  UNL     1      50.194  14.188   1.378  1.00  0.00    -0.376 N 
ATOM     19  H2  UNL     1      51.079  13.941   1.822  1.00  0.00     0.161 HD
BRANCH  18  20
HETATM   20  C13 UNL     1      49.583  13.128   1.158  1.00  0.00     0.110 A 
HETATM   21  N3  UNL     1      50.239  12.313   0.241  1.00  0.00    -0.338 N 
HETATM   22  C14 UNL     1      49.690  11.149  -0.079  1.00  0.00     0.182 A 
ATOM     23  H3  UNL     1      51.123  12.605  -0.176  1.00  0.00     0.168 HD
HETATM   24  N4  UNL     1      48.519  10.707   0.441  1.00  0.00    -0.355 N 
HETATM   25  C15 UNL     1      47.876  11.489   1.331  1.00  0.00     0.020 A 
ATOM     26  H4  UNL     1      48.133   9.803   0.165  1.00  0.00     0.166 HD
HETATM   27  C16 UNL     1      48.404  12.710   1.697  1.00  0.00     0.009 A 
HETATM   28  C21 UNL     1      46.588  11.070   1.949  1.00  0.00     0.058 C 
HETATM   29  C17 UNL     1      47.628  13.478   2.661  1.00  0.00     0.048 C 
HETATM   30  C18 UNL     1      46.205  13.523   2.039  1.00  0.00    -0.014 C 
HETATM   31  C19 UNL     1      45.400  14.620   2.685  1.00  0.00     0.010 C 
HETATM   32  C20 UNL     1      45.619  12.165   2.190  1.00  0.00     0.010 C 
ENDBRANCH  18  20
ENDBRANCH  17  18
ENDBRANCH   1  17
TORSDOF 11
ENDMDL
MODEL 4
REMARK VINA RESULT: -5.595345194      2.172      3.282
REMARK  11 active torsions:
REMARK  status: ('A' for Active; 'I' for Inactive)
REMARK    1  A    between atoms: C4_5  and  N1_6 
REMARK    2  A    between atoms: N1_6  and  C5_8 
REMARK    3  A    between atoms: C5_8  and  C6_9 
REMARK    4  A    between atoms: C6_9  and  C7_10 
REMARK    5  A    between atoms: C7_10  and  C8_11 
REMARK    6  A    between atoms: C8_11  and  C9_12 
REMARK    7  A    between atoms: C9_12  and  C10_13 
REMARK    8  A    between atoms: C10_13  and  C11_14 
REMARK    9  A    between atoms: C11_14  and  C12_15 
REMARK   10  A    between atoms: C12_15  and  N2_16 
REMARK   11  A    between atoms: N2_16  and  C13_18 
ROOT
HETATM    1  C11 UNL     1      44.287  17.497   0.616  1.00  0.00     0.020 C 
ENDROOT
BRANCH   1   2
HETATM    2  C10 UNL     1      45.206  18.310  -0.239  1.00  0.00     0.002 C 
BRANCH   2   3
HETATM    3  C9  UNL     1      45.932  19.373   0.539  1.00  0.00     0.000 C 
BRANCH   3   4
HETATM    4  C8  UNL     1      45.956  19.122   2.020  1.00  0.00     0.000 C 
BRANCH   4   5
HETATM    5  C7  UNL     1      47.348  19.469   2.505  1.00  0.00     0.002 C 
BRANCH   5   6
HETATM    6  C6  UNL     1      47.699  18.746   3.789  1.00  0.00     0.020 C 
BRANCH   6   7
HETATM    7  C5  UNL     1      49.190  18.804   4.045  1.00  0.00     0.121 C 
BRANCH   7   8
HETATM    8  N1  UNL     1      49.777  20.014   3.527  1.00  0.00    -0.370 N 
ATOM      9  H1  UNL     1      49.456  20.932   3.834  1.00  0.00     0.161 HD
BRANCH   8  10
HETATM   10  C4  UNL     1      50.745  19.888   2.642  1.00  0.00     0.144 A 
HETATM   11  S1  UNL     1      52.346  19.351   2.866  1.00  0.00    -0.064 SA
HETATM   12  C3  UNL     1      52.889  19.496   1.261  1.00  0.00     0.077 A 
HETATM   13  C2  UNL     1      51.775  19.966   0.619  1.00  0.00     0.014 A 
HETATM   14  C1  UNL     1      51.817  20.243  -0.884  1.00  0.00     0.068 C 
HETATM   15  N5  UNL     1      50.693  20.158   1.337  1.00  0.00    -0.340 N 
ATOM     16  H5  UNL     1      49.836  20.505   0.909  1.00  0.00     0.167 HD
ENDBRANCH   8  10
ENDBRANCH   7   8
ENDBRANCH   6   7
ENDBRANCH   5   6
ENDBRANCH   4   5
ENDBRANCH   3   4
ENDBRANCH   2   3
ENDBRANCH   1   2
BRANCH   1  17
HETATM   17  C12 UNL     1      44.456  15.996   0.333  1.00  0.00     0.121 C 
BRANCH  17  18
HETATM   18  N2  UNL     1      45.049  15.309   1.370  1.00  0.00    -0.376 N 
ATOM     19  H2  UNL     1      44.434  14.530   1.609  1.00  0.00     0.161 HD
BRANCH  18  20
HETATM   20  C13 UNL     1      46.030  15.252   2.131  1.00  0.00     0.110 A 
HETATM   21  N3  UNL     1      45.669  15.006   3.451  1.00  0.00    -0.338 N 
HETATM   22  C14 UNL     1      46.626  14.920   4.366  1.00  0.00     0.182 A 
ATOM     23  H3  UNL     1      44.689  14.893   3.711  1.00  0.00     0.168 HD
HETATM   24  N4  UNL     1      47.944  15.060   4.083  1.00  0.00    -0.355 N 
HETATM   25  C15 UNL     1      48.304  15.299   2.805  1.00  0.00     0.020 A 
ATOM     26  H4  UNL     1      48.647  14.986   4.819  1.00  0.00     0.166 HD
HETATM   27  C16 UNL     1      47.346  15.398   1.817  1.00  0.00     0.009 A 
HETATM   28  C21 UNL     1      49.732  15.459   2.416  1.00  0.00     0.058 C 
HETATM   29  C17 UNL     1      47.843  15.663   0.473  1.00  0.00     0.048 C 
HETATM   30  C18 UNL     1      48.752  16.909   0.652  1.00  0.00    -0.014 C 
HETATM   31  C19 UNL     1      48.997  17.558  -0.684  1.00  0.00     0.010 C 
HETATM   32  C20 UNL     1      49.985  16.454   1.347  1.00  0.00     0.010 C 
ENDBRANCH  18  20
ENDBRANCH  17  18
ENDBRANCH   1  17
TORSDOF 11
ENDMDL
MODEL 5
REMARK VINA RESULT: -5.583779652      1.597      3.202
REMARK  11 active torsions:
REMARK  status: ('A' for Active; 'I' for Inactive)
REMARK    1  A    between atoms: C4_5  and  N1_6 
REMARK    2  A    between atoms: N1_6  and  C5_8 
REMARK    3  A    between atoms: C5_8  and  C6_9 
REMARK    4  A    between atoms: C6_9  and  C7_10 
REMARK    5  A    between atoms: C7_10  and  C8_11 
REMARK    6  A    between atoms: C8_11  and  C9_12 
REMARK    7  A    between atoms: C9_12  and  C10_13 
REMARK    8  A    between atoms: C10_13  and  C11_14 
REMARK    9  A    between atoms: C11_14  and  C12_15 
REMARK   10  A    between atoms: C12_15  and  N2_16 
REMARK   11  A    between atoms: N2_16  and  C13_18 
ROOT
HETATM    1  C11 UNL     1      50.842  16.044   1.788  1.00  0.00     0.020 C 
ENDROOT
BRANCH   1   2
HETATM    2  C10 UNL     1      50.000  15.963   3.021  1.00  0.00     0.002 C 
BRANCH   2   3
HETATM    3  C9  UNL     1      48.667  16.642   2.858  1.00  0.00     0.000 C 
BRANCH   3   4
HETATM    4  C8  UNL     1      47.896  16.765   4.141  1.00  0.00     0.000 C 
BRANCH   4   5
HETATM    5  C7  UNL     1      48.340  18.054   4.802  1.00  0.00     0.002 C 
BRANCH   5   6
HETATM    6  C6  UNL     1      48.593  19.153   3.792  1.00  0.00     0.020 C 
BRANCH   6   7
HETATM    7  C5  UNL     1      49.825  19.950   4.166  1.00  0.00     0.121 C 
BRANCH   7   8
HETATM    8  N1  UNL     1      50.266  20.795   3.085  1.00  0.00    -0.370 N 
ATOM      9  H1  UNL     1      49.911  21.745   2.977  1.00  0.00     0.161 HD
BRANCH   8  10
HETATM   10  C4  UNL     1      51.145  20.293   2.242  1.00  0.00     0.144 A 
HETATM   11  S1  UNL     1      50.935  19.831   0.615  1.00  0.00    -0.064 SA
HETATM   12  C3  UNL     1      52.521  19.308   0.293  1.00  0.00     0.077 A 
HETATM   13  C2  UNL     1      53.147  19.524   1.492  1.00  0.00     0.014 A 
HETATM   14  C1  UNL     1      54.628  19.186   1.654  1.00  0.00     0.068 C 
HETATM   15  N5  UNL     1      52.431  20.026   2.471  1.00  0.00    -0.340 N 
ATOM     16  H5  UNL     1      52.848  20.208   3.383  1.00  0.00     0.167 HD
ENDBRANCH   8  10
ENDBRANCH   7   8
ENDBRANCH   6   7
ENDBRANCH   5   6
ENDBRANCH   4   5
ENDBRANCH   3   4
ENDBRANCH   2   3
ENDBRANCH   1   2
BRANCH   1  17
HETATM   17  C12 UNL     1      50.329  15.079   0.707  1.00  0.00     0.121 C 
BRANCH  17  18
HETATM   18  N2  UNL     1      50.175  13.786   1.158  1.00  0.00    -0.376 N 
ATOM     19  H2  UNL     1      50.857  13.641   1.903  1.00  0.00     0.161 HD
BRANCH  18  20
HETATM   20  C13 UNL     1      49.542  12.725   1.024  1.00  0.00     0.110 A 
HETATM   21  N3  UNL     1      50.166  11.835   0.157  1.00  0.00    -0.338 N 
HETATM   22  C14 UNL     1      49.591  10.661  -0.069  1.00  0.00     0.182 A 
ATOM     23  H3  UNL     1      51.047  12.079  -0.294  1.00  0.00     0.168 HD
HETATM   24  N4  UNL     1      48.422  10.280   0.500  1.00  0.00    -0.355 N 
HETATM   25  C15 UNL     1      47.809  11.137   1.342  1.00  0.00     0.020 A 
ATOM     26  H4  UNL     1      48.015   9.367   0.297  1.00  0.00     0.166 HD
HETATM   27  C16 UNL     1      48.365  12.370   1.611  1.00  0.00     0.009 A 
HETATM   28  C21 UNL     1      46.525  10.787   2.011  1.00  0.00     0.058 C 
HETATM   29  C17 UNL     1      47.620  13.220   2.530  1.00  0.00     0.048 C 
HETATM   30  C18 UNL     1      46.188  13.247   1.930  1.00  0.00    -0.014 C 
HETATM   31  C19 UNL     1      45.414  14.403   2.508  1.00  0.00     0.010 C 
HETATM   32  C20 UNL     1      45.580  11.915   2.188  1.00  0.00     0.010 C 
ENDBRANCH  18  20
ENDBRANCH  17  18
ENDBRANCH   1  17
TORSDOF 11
ENDMDL
