MODEL 1
REMARK VINA RESULT: -7.676824613      0.000      0.000
REMARK  8 active torsions:
REMARK  status: ('A' for Active; 'I' for Inactive)
REMARK    1  A    between atoms: N3_7  and  C3_8 
REMARK    2  A    between atoms: C3_8  and  C4_9 
REMARK    3  A    between atoms: C4_9  and  C5_10 
REMARK    4  A    between atoms: C5_10  and  C6_11 
REMARK    5  A    between atoms: C6_11  and  N4_12 
REMARK    6  A    between atoms: N4_12  and  S1_14 
REMARK    7  A    between atoms: S1_14  and  N5_17 
REMARK    8  A    between atoms: N5_17  and  C7_19 
ROOT
HETATM    1  N4  UNL     1      14.084  12.258  11.361  1.00  0.00    -0.303 N 
ATOM      2  H4  UNL     1      14.529  13.132  11.082  1.00  0.00     0.173 HD
ENDROOT
BRANCH   1   3
HETATM    3  C6  UNL     1      12.845  12.146  12.083  1.00  0.00     0.133 C 
BRANCH   3   4
HETATM    4  C5  UNL     1      12.979  12.664  13.492  1.00  0.00     0.022 C 
BRANCH   4   5
HETATM    5  C4  UNL     1      12.312  11.786  14.501  1.00  0.00     0.023 C 
BRANCH   5   6
HETATM    6  C3  UNL     1      13.343  11.098  15.362  1.00  0.00     0.150 C 
BRANCH   6   7
HETATM    7  N3  UNL     1      13.142  11.242  16.768  1.00  0.00    -0.245 N 
HETATM    8  C1  UNL     1      13.433  12.365  17.608  1.00  0.00     0.335 C 
HETATM    9  O1  UNL     1      14.301  13.243  17.350  1.00  0.00    -0.246 OA
HETATM   10  N1  UNL     1      12.560  12.258  18.735  1.00  0.00    -0.327 N 
HETATM   11  C2  UNL     1      11.651  11.156  18.391  1.00  0.00     0.261 C 
ATOM     12  H1  UNL     1      12.567  12.819  19.587  1.00  0.00     0.165 HD
HETATM   13  N2  UNL     1      12.594  10.287  17.665  1.00  0.00    -0.115 NA
ENDBRANCH   6   7
ENDBRANCH   5   6
ENDBRANCH   4   5
ENDBRANCH   3   4
ENDBRANCH   1   3
BRANCH   1  14
HETATM   14  S1  UNL     1      14.703  10.666  11.039  1.00  0.00     0.315 S 
HETATM   15  O2  UNL     1      13.824   9.927  10.067  1.00  0.00    -0.183 OA
HETATM   16  O3  UNL     1      14.757   9.915  12.358  1.00  0.00    -0.183 OA
BRANCH  14  17
HETATM   17  N5  UNL     1      16.298  10.757  10.411  1.00  0.00    -0.298 N 
ATOM     18  H5  UNL     1      17.030  11.386  10.740  1.00  0.00     0.174 HD
BRANCH  17  19
HETATM   19  C7  UNL     1      16.435   9.806   9.349  1.00  0.00     0.094 C 
HETATM   20  C8  UNL     1      17.385  10.295   8.255  1.00  0.00     0.026 C 
HETATM   21  C9  UNL     1      17.550   9.017   7.445  1.00  0.00     0.002 C 
HETATM   22  C10 UNL     1      17.848   8.013   8.542  1.00  0.00     0.002 C 
HETATM   23  C11 UNL     1      17.078   8.521   9.761  1.00  0.00     0.026 C 
ENDBRANCH  17  19
ENDBRANCH  14  17
ENDBRANCH   1  14
TORSDOF 8
ENDMDL
MODEL 2
REMARK VINA RESULT: -7.631695243      1.066      1.381
REMARK  8 active torsions:
REMARK  status: ('A' for Active; 'I' for Inactive)
REMARK    1  A    between atoms: N3_7  and  C3_8 
REMARK    2  A    between atoms: C3_8  and  C4_9 
REMARK    3  A    between atoms: C4_9  and  C5_10 
REMARK    4  A    between atoms: C5_10  and  C6_11 
REMARK    5  A    between atoms: C6_11  and  N4_12 
REMARK    6  A    between atoms: N4_12  and  S1_14 
REMARK    7  A    between atoms: S1_14  and  N5_17 
REMARK    8  A    between atoms: N5_17  and  C7_19 
ROOT
HETATM    1  N4  UNL     1      14.051  12.289  11.371  1.00  0.00    -0.303 N 
ATOM      2  H4  UNL     1      14.489  13.158  11.064  1.00  0.00     0.173 HD
ENDROOT
BRANCH   1   3
HETATM    3  C6  UNL     1      12.834  12.191  12.131  1.00  0.00     0.133 C 
BRANCH   3   4
HETATM    4  C5  UNL     1      13.038  12.631  13.558  1.00  0.00     0.022 C 
BRANCH   4   5
HETATM    5  C4  UNL     1      12.390  11.716  14.548  1.00  0.00     0.023 C 
BRANCH   5   6
HETATM    6  C3  UNL     1      13.379  11.311  15.614  1.00  0.00     0.150 C 
BRANCH   6   7
HETATM    7  N3  UNL     1      13.323  12.090  16.809  1.00  0.00    -0.245 N 
HETATM    8  C1  UNL     1      12.532  11.879  17.984  1.00  0.00     0.335 C 
HETATM    9  O1  UNL     1      11.447  11.238  18.009  1.00  0.00    -0.246 OA
HETATM   10  N1  UNL     1      13.225  12.528  19.054  1.00  0.00    -0.327 N 
HETATM   11  C2  UNL     1      14.511  12.929  18.467  1.00  0.00     0.261 C 
ATOM     12  H1  UNL     1      12.901  12.679  20.009  1.00  0.00     0.165 HD
HETATM   13  N2  UNL     1      14.057  13.269  17.107  1.00  0.00    -0.115 NA
ENDBRANCH   6   7
ENDBRANCH   5   6
ENDBRANCH   4   5
ENDBRANCH   3   4
ENDBRANCH   1   3
BRANCH   1  14
HETATM   14  S1  UNL     1      14.659  10.691  11.058  1.00  0.00     0.315 S 
HETATM   15  O2  UNL     1      13.761   9.944  10.111  1.00  0.00    -0.183 OA
HETATM   16  O3  UNL     1      14.733   9.956  12.386  1.00  0.00    -0.183 OA
BRANCH  14  17
HETATM   17  N5  UNL     1      16.243  10.768  10.402  1.00  0.00    -0.298 N 
ATOM     18  H5  UNL     1      16.992  11.375  10.732  1.00  0.00     0.174 HD
BRANCH  17  19
HETATM   19  C7  UNL     1      16.342   9.840   9.315  1.00  0.00     0.094 C 
HETATM   20  C8  UNL     1      17.388  10.267   8.285  1.00  0.00     0.026 C 
HETATM   21  C9  UNL     1      17.471   9.004   7.440  1.00  0.00     0.002 C 
HETATM   22  C10 UNL     1      17.616   7.944   8.514  1.00  0.00     0.002 C 
HETATM   23  C11 UNL     1      16.838   8.487   9.712  1.00  0.00     0.026 C 
ENDBRANCH  17  19
ENDBRANCH  14  17
ENDBRANCH   1  14
TORSDOF 8
ENDMDL
MODEL 3
REMARK VINA RESULT: -7.531089041      2.776      8.875
REMARK  8 active torsions:
REMARK  status: ('A' for Active; 'I' for Inactive)
REMARK    1  A    between atoms: N3_7  and  C3_8 
REMARK    2  A    between atoms: C3_8  and  C4_9 
REMARK    3  A    between atoms: C4_9  and  C5_10 
REMARK    4  A    between atoms: C5_10  and  C6_11 
REMARK    5  A    between atoms: C6_11  and  N4_12 
REMARK    6  A    between atoms: N4_12  and  S1_14 
REMARK    7  A    between atoms: S1_14  and  N5_17 
REMARK    8  A    between atoms: N5_17  and  C7_19 
ROOT
HETATM    1  N4  UNL     1      16.070  11.482  11.222  1.00  0.00    -0.303 N 
ATOM      2  H4  UNL     1      16.328  12.451  11.032  1.00  0.00     0.173 HD
ENDROOT
BRANCH   1   3
HETATM    3  C6  UNL     1      16.946  10.347  11.100  1.00  0.00     0.133 C 
BRANCH   3   4
HETATM    4  C5  UNL     1      17.991  10.569  10.036  1.00  0.00     0.022 C 
BRANCH   4   5
HETATM    5  C4  UNL     1      17.457  10.399   8.650  1.00  0.00     0.023 C 
BRANCH   5   6
HETATM    6  C3  UNL     1      16.696   9.100   8.535  1.00  0.00     0.150 C 
BRANCH   6   7
HETATM    7  N3  UNL     1      17.133   8.242   7.481  1.00  0.00    -0.245 N 
HETATM    8  C1  UNL     1      16.567   7.003   7.038  1.00  0.00     0.335 C 
HETATM    9  O1  UNL     1      15.865   6.241   7.757  1.00  0.00    -0.246 OA
HETATM   10  N1  UNL     1      16.966   6.848   5.673  1.00  0.00    -0.327 N 
HETATM   11  C2  UNL     1      17.597   8.129   5.329  1.00  0.00     0.261 C 
ATOM     12  H1  UNL     1      16.840   6.032   5.074  1.00  0.00     0.165 HD
HETATM   13  N2  UNL     1      18.245   8.431   6.618  1.00  0.00    -0.115 NA
ENDBRANCH   6   7
ENDBRANCH   5   6
ENDBRANCH   4   5
ENDBRANCH   3   4
ENDBRANCH   1   3
BRANCH   1  14
HETATM   14  S1  UNL     1      14.504  10.942  11.747  1.00  0.00     0.315 S 
HETATM   15  O2  UNL     1      14.620   9.787  12.705  1.00  0.00    -0.183 OA
HETATM   16  O3  UNL     1      13.726  10.513  10.515  1.00  0.00    -0.183 OA
BRANCH  14  17
HETATM   17  N5  UNL     1      13.647  12.224  12.500  1.00  0.00    -0.298 N 
ATOM     18  H5  UNL     1      13.264  13.041  12.025  1.00  0.00     0.174 HD
BRANCH  17  19
HETATM   19  C7  UNL     1      13.555  11.961  13.905  1.00  0.00     0.094 C 
HETATM   20  C8  UNL     1      13.807  13.214  14.745  1.00  0.00     0.026 C 
HETATM   21  C9  UNL     1      13.377  12.714  16.117  1.00  0.00     0.002 C 
HETATM   22  C10 UNL     1      12.041  12.079  15.790  1.00  0.00     0.002 C 
HETATM   23  C11 UNL     1      12.191  11.556  14.362  1.00  0.00     0.026 C 
ENDBRANCH  17  19
ENDBRANCH  14  17
ENDBRANCH   1  14
TORSDOF 8
ENDMDL
MODEL 4
REMARK VINA RESULT: -7.491310094      2.993      9.111
REMARK  8 active torsions:
REMARK  status: ('A' for Active; 'I' for Inactive)
REMARK    1  A    between atoms: N3_7  and  C3_8 
REMARK    2  A    between atoms: C3_8  and  C4_9 
REMARK    3  A    between atoms: C4_9  and  C5_10 
REMARK    4  A    between atoms: C5_10  and  C6_11 
REMARK    5  A    between atoms: C6_11  and  N4_12 
REMARK    6  A    between atoms: N4_12  and  S1_14 
REMARK    7  A    between atoms: S1_14  and  N5_17 
REMARK    8  A    between atoms: N5_17  and  C7_19 
ROOT
HETATM    1  N4  UNL     1      16.113  11.412  11.140  1.00  0.00    -0.303 N 
ATOM      2  H4  UNL     1      16.389  12.373  10.940  1.00  0.00     0.173 HD
ENDROOT
BRANCH   1   3
HETATM    3  C6  UNL     1      16.953  10.254  10.987  1.00  0.00     0.133 C 
BRANCH   3   4
HETATM    4  C5  UNL     1      17.823  10.362   9.761  1.00  0.00     0.022 C 
BRANCH   4   5
HETATM    5  C4  UNL     1      17.155   9.848   8.526  1.00  0.00     0.023 C 
BRANCH   5   6
HETATM    6  C3  UNL     1      17.266   8.345   8.454  1.00  0.00     0.150 C 
BRANCH   6   7
HETATM    7  N3  UNL     1      17.402   7.817   7.135  1.00  0.00    -0.245 N 
HETATM    8  C1  UNL     1      18.595   7.457   6.429  1.00  0.00     0.335 C 
HETATM    9  O1  UNL     1      19.737   7.936   6.665  1.00  0.00    -0.246 OA
HETATM   10  N1  UNL     1      18.204   6.485   5.454  1.00  0.00    -0.327 N 
HETATM   11  C2  UNL     1      16.804   6.183   5.781  1.00  0.00     0.261 C 
ATOM     12  H1  UNL     1      18.769   6.092   4.702  1.00  0.00     0.165 HD
HETATM   13  N2  UNL     1      16.364   7.522   6.211  1.00  0.00    -0.115 NA
ENDBRANCH   6   7
ENDBRANCH   5   6
ENDBRANCH   4   5
ENDBRANCH   3   4
ENDBRANCH   1   3
BRANCH   1  14
HETATM   14  S1  UNL     1      14.553  10.913  11.721  1.00  0.00     0.315 S 
HETATM   15  O2  UNL     1      14.674   9.775  12.697  1.00  0.00    -0.183 OA
HETATM   16  O3  UNL     1      13.730  10.478  10.521  1.00  0.00    -0.183 OA
BRANCH  14  17
HETATM   17  N5  UNL     1      13.744  12.226  12.475  1.00  0.00    -0.298 N 
ATOM     18  H5  UNL     1      13.412  13.067  12.003  1.00  0.00     0.174 HD
BRANCH  17  19
HETATM   19  C7  UNL     1      13.611  11.950  13.873  1.00  0.00     0.094 C 
HETATM   20  C8  UNL     1      13.844  13.194  14.732  1.00  0.00     0.026 C 
HETATM   21  C9  UNL     1      13.372  12.683  16.087  1.00  0.00     0.002 C 
HETATM   22  C10 UNL     1      12.042  12.057  15.715  1.00  0.00     0.002 C 
HETATM   23  C11 UNL     1      12.231  11.548  14.286  1.00  0.00     0.026 C 
ENDBRANCH  17  19
ENDBRANCH  14  17
ENDBRANCH   1  14
TORSDOF 8
ENDMDL
MODEL 5
REMARK VINA RESULT: -7.361295633      2.899      9.277
REMARK  8 active torsions:
REMARK  status: ('A' for Active; 'I' for Inactive)
REMARK    1  A    between atoms: N3_7  and  C3_8 
REMARK    2  A    between atoms: C3_8  and  C4_9 
REMARK    3  A    between atoms: C4_9  and  C5_10 
REMARK    4  A    between atoms: C5_10  and  C6_11 
REMARK    5  A    between atoms: C6_11  and  N4_12 
REMARK    6  A    between atoms: N4_12  and  S1_14 
REMARK    7  A    between atoms: S1_14  and  N5_17 
REMARK    8  A    between atoms: N5_17  and  C7_19 
ROOT
HETATM    1  N4  UNL     1      16.119  11.423  11.107  1.00  0.00    -0.303 N 
ATOM      2  H4  UNL     1      16.381  12.375  10.853  1.00  0.00     0.173 HD
ENDROOT
BRANCH   1   3
HETATM    3  C6  UNL     1      16.982  10.274  11.032  1.00  0.00     0.133 C 
BRANCH   3   4
HETATM    4  C5  UNL     1      17.671  10.188   9.694  1.00  0.00     0.022 C 
BRANCH   4   5
HETATM    5  C4  UNL     1      16.916   9.364   8.701  1.00  0.00     0.023 C 
BRANCH   5   6
HETATM    6  C3  UNL     1      17.660   9.311   7.389  1.00  0.00     0.150 C 
BRANCH   6   7
HETATM    7  N3  UNL     1      17.923   7.995   6.903  1.00  0.00    -0.245 N 
HETATM    8  C1  UNL     1      17.361   7.327   5.767  1.00  0.00     0.335 C 
HETATM    9  O1  UNL     1      16.241   7.602   5.258  1.00  0.00    -0.246 OA
HETATM   10  N1  UNL     1      18.316   6.336   5.374  1.00  0.00    -0.327 N 
HETATM   11  C2  UNL     1      19.495   6.615   6.205  1.00  0.00     0.261 C 
ATOM     12  H1  UNL     1      18.204   5.602   4.676  1.00  0.00     0.165 HD
HETATM   13  N2  UNL     1      18.820   7.036   7.445  1.00  0.00    -0.115 NA
ENDBRANCH   6   7
ENDBRANCH   5   6
ENDBRANCH   4   5
ENDBRANCH   3   4
ENDBRANCH   1   3
BRANCH   1  14
HETATM   14  S1  UNL     1      14.562  10.930  11.700  1.00  0.00     0.315 S 
HETATM   15  O2  UNL     1      14.684   9.780  12.661  1.00  0.00    -0.183 OA
HETATM   16  O3  UNL     1      13.722  10.515  10.504  1.00  0.00    -0.183 OA
BRANCH  14  17
HETATM   17  N5  UNL     1      13.772  12.241  12.477  1.00  0.00    -0.298 N 
ATOM     18  H5  UNL     1      13.470  13.103  12.024  1.00  0.00     0.174 HD
BRANCH  17  19
HETATM   19  C7  UNL     1      13.605  11.928  13.864  1.00  0.00     0.094 C 
HETATM   20  C8  UNL     1      13.880  13.133  14.765  1.00  0.00     0.026 C 
HETATM   21  C9  UNL     1      13.365  12.602  16.096  1.00  0.00     0.002 C 
HETATM   22  C10 UNL     1      12.015  12.048  15.686  1.00  0.00     0.002 C 
HETATM   23  C11 UNL     1      12.203  11.575  14.245  1.00  0.00     0.026 C 
ENDBRANCH  17  19
ENDBRANCH  14  17
ENDBRANCH   1  14
TORSDOF 8
ENDMDL
