MODEL 1
REMARK VINA RESULT: -7.772158820      0.000      0.000
REMARK  9 active torsions:
REMARK  status: ('A' for Active; 'I' for Inactive)
REMARK    1  A    between atoms: C2_2  and  C3_3 
REMARK    2  A    between atoms: N1_6  and  C6_7 
REMARK    3  A    between atoms: C6_7  and  C7_8 
REMARK    4  A    between atoms: C7_8  and  C8_9 
REMARK    5  A    between atoms: C8_9  and  C9_10 
REMARK    6  A    between atoms: C9_10  and  C10_11 
REMARK    7  A    between atoms: C10_11  and  N2_12 
REMARK    8  A    between atoms: N5_18  and  N6_20 
REMARK    9  A    between atoms: N8_25  and  C13_26 
ROOT
HETATM    1  C3  UNL     1      15.815   7.985  13.786  1.00  0.00     0.081 C 
HETATM    2  C4  UNL     1      16.549   7.732  12.509  1.00  0.00     0.042 C 
HETATM    3  C5  UNL     1      17.664   8.711  12.210  1.00  0.00     0.143 C 
HETATM    4  N1  UNL     1      17.016   9.799  11.465  1.00  0.00    -0.215 N 
HETATM    5  C12 UNL     1      15.754  10.367  11.807  1.00  0.00     0.704 C 
HETATM    6  N5  UNL     1      15.369  11.405  11.104  1.00  0.00    -0.138 N 
ATOM      7  H5  UNL     1      15.958  11.769  10.355  1.00  0.00     0.205 HD
HETATM    8  N7  UNL     1      14.852   9.948  12.820  1.00  0.00    -0.150 N 
ATOM      9  H7  UNL     1      13.871  10.200  12.702  1.00  0.00     0.199 HD
HETATM   10  N8  UNL     1      15.187   9.229  13.955  1.00  0.00    -0.212 NA
ENDROOT
BRANCH   4  11
HETATM   11  C6  UNL     1      17.669  10.346  10.309  1.00  0.00     0.141 C 
BRANCH  11  12
HETATM   12  C7  UNL     1      18.129   9.306   9.314  1.00  0.00     0.020 C 
BRANCH  12  13
HETATM   13  C8  UNL     1      17.168   9.385   8.147  1.00  0.00     0.003 C 
BRANCH  13  14
HETATM   14  C9  UNL     1      17.112   8.065   7.382  1.00  0.00     0.020 C 
BRANCH  14  15
HETATM   15  C10 UNL     1      18.082   8.216   6.229  1.00  0.00     0.122 C 
BRANCH  15  16
HETATM   16  N2  UNL     1      18.144   7.041   5.392  1.00  0.00    -0.367 N 
HETATM   17  C11 UNL     1      19.164   6.285   5.455  1.00  0.00     0.196 C 
HETATM   18  N3  UNL     1      20.227   6.582   6.326  1.00  0.00    -0.067 NA
HETATM   19  N4  UNL     1      19.229   5.135   4.637  1.00  0.00    -0.067 NA
ATOM     20  H2  UNL     1      17.376   6.820   4.757  1.00  0.00     0.161 HD
ENDBRANCH  15  16
ENDBRANCH  14  15
ENDBRANCH  13  14
ENDBRANCH  12  13
ENDBRANCH  11  12
ENDBRANCH   4  11
BRANCH   6  21
HETATM   21  N6  UNL     1      14.152  12.001  11.390  1.00  0.00    -0.331 N 
ATOM     22  H62 UNL     1      13.380  11.427  11.728  1.00  0.00     0.177 HD
ATOM     23  H61 UNL     1      14.047  13.006  11.258  1.00  0.00     0.177 HD
ENDBRANCH   6  21
BRANCH   1  24
HETATM   24  C2  UNL     1      14.833   6.864  13.971  1.00  0.00     0.017 C 
HETATM   25  C1  UNL     1      15.207   5.645  13.135  1.00  0.00     0.006 C 
ENDBRANCH   1  24
BRANCH  10  26
HETATM   26  C13 UNL     1      14.066   9.177  14.855  1.00  0.00     0.110 C 
HETATM   27  C14 UNL     1      13.484  10.563  15.085  1.00  0.00     0.023 C 
ENDBRANCH  10  26
TORSDOF 9
ENDMDL
MODEL 2
REMARK VINA RESULT: -7.691577689      0.944      1.047
REMARK  9 active torsions:
REMARK  status: ('A' for Active; 'I' for Inactive)
REMARK    1  A    between atoms: C2_2  and  C3_3 
REMARK    2  A    between atoms: N1_6  and  C6_7 
REMARK    3  A    between atoms: C6_7  and  C7_8 
REMARK    4  A    between atoms: C7_8  and  C8_9 
REMARK    5  A    between atoms: C8_9  and  C9_10 
REMARK    6  A    between atoms: C9_10  and  C10_11 
REMARK    7  A    between atoms: C10_11  and  N2_12 
REMARK    8  A    between atoms: N5_18  and  N6_20 
REMARK    9  A    between atoms: N8_25  and  C13_26 
ROOT
HETATM    1  C3  UNL     1      15.255   8.943  13.849  1.00  0.00     0.081 C 
HETATM    2  C4  UNL     1      15.699   8.344  12.554  1.00  0.00     0.042 C 
HETATM    3  C5  UNL     1      16.691   9.180  11.774  1.00  0.00     0.143 C 
HETATM    4  N1  UNL     1      15.863  10.053  10.931  1.00  0.00    -0.215 N 
HETATM    5  C12 UNL     1      14.689  10.725  11.381  1.00  0.00     0.704 C 
HETATM    6  N5  UNL     1      14.128  11.554  10.533  1.00  0.00    -0.138 N 
ATOM      7  H5  UNL     1      14.528  11.693   9.605  1.00  0.00     0.205 HD
HETATM    8  N7  UNL     1      14.044  10.612  12.639  1.00  0.00    -0.150 N 
ATOM      9  H7  UNL     1      13.053  10.851  12.677  1.00  0.00     0.199 HD
HETATM   10  N8  UNL     1      14.640  10.205  13.821  1.00  0.00    -0.212 NA
ENDROOT
BRANCH   4  11
HETATM   11  C6  UNL     1      16.231  10.261   9.558  1.00  0.00     0.141 C 
BRANCH  11  12
HETATM   12  C7  UNL     1      17.530   9.597   9.164  1.00  0.00     0.020 C 
BRANCH  12  13
HETATM   13  C8  UNL     1      17.554   9.585   7.650  1.00  0.00     0.003 C 
BRANCH  13  14
HETATM   14  C9  UNL     1      17.309   8.182   7.101  1.00  0.00     0.020 C 
BRANCH  14  15
HETATM   15  C10 UNL     1      18.126   8.089   5.829  1.00  0.00     0.122 C 
BRANCH  15  16
HETATM   16  N2  UNL     1      18.176   6.751   5.293  1.00  0.00    -0.367 N 
HETATM   17  C11 UNL     1      19.212   6.040   5.486  1.00  0.00     0.196 C 
HETATM   18  N3  UNL     1      20.305   6.545   6.214  1.00  0.00    -0.067 NA
HETATM   19  N4  UNL     1      19.266   4.729   4.962  1.00  0.00    -0.067 NA
ATOM     20  H2  UNL     1      17.387   6.378   4.763  1.00  0.00     0.161 HD
ENDBRANCH  15  16
ENDBRANCH  14  15
ENDBRANCH  13  14
ENDBRANCH  12  13
ENDBRANCH  11  12
ENDBRANCH   4  11
BRANCH   6  21
HETATM   21  N6  UNL     1      12.985  12.238  10.912  1.00  0.00    -0.331 N 
ATOM     22  H62 UNL     1      12.072  11.884  10.627  1.00  0.00     0.177 HD
ATOM     23  H61 UNL     1      13.075  13.085  11.471  1.00  0.00     0.177 HD
ENDBRANCH   6  21
BRANCH   1  24
HETATM   24  C2  UNL     1      14.372   7.937  14.531  1.00  0.00     0.017 C 
HETATM   25  C1  UNL     1      14.796   6.508  14.210  1.00  0.00     0.006 C 
ENDBRANCH   1  24
BRANCH  10  26
HETATM   26  C13 UNL     1      13.745  10.421  14.926  1.00  0.00     0.110 C 
HETATM   27  C14 UNL     1      12.766  11.546  14.626  1.00  0.00     0.023 C 
ENDBRANCH  10  26
TORSDOF 9
ENDMDL
MODEL 3
REMARK VINA RESULT: -7.651095313      1.049      1.259
REMARK  9 active torsions:
REMARK  status: ('A' for Active; 'I' for Inactive)
REMARK    1  A    between atoms: C2_2  and  C3_3 
REMARK    2  A    between atoms: N1_6  and  C6_7 
REMARK    3  A    between atoms: C6_7  and  C7_8 
REMARK    4  A    between atoms: C7_8  and  C8_9 
REMARK    5  A    between atoms: C8_9  and  C9_10 
REMARK    6  A    between atoms: C9_10  and  C10_11 
REMARK    7  A    between atoms: C10_11  and  N2_12 
REMARK    8  A    between atoms: N5_18  and  N6_20 
REMARK    9  A    between atoms: N8_25  and  C13_26 
ROOT
HETATM    1  C3  UNL     1      15.747   7.920  13.277  1.00  0.00     0.081 C 
HETATM    2  C4  UNL     1      16.086   7.451  11.899  1.00  0.00     0.042 C 
HETATM    3  C5  UNL     1      17.123   8.287  11.179  1.00  0.00     0.143 C 
HETATM    4  N1  UNL     1      16.348   9.328  10.488  1.00  0.00    -0.215 N 
HETATM    5  C12 UNL     1      15.259  10.039  11.072  1.00  0.00     0.704 C 
HETATM    6  N5  UNL     1      14.747  11.013  10.358  1.00  0.00    -0.138 N 
ATOM      7  H5  UNL     1      15.123  11.231   9.435  1.00  0.00     0.205 HD
HETATM    8  N7  UNL     1      14.653   9.827  12.337  1.00  0.00    -0.150 N 
ATOM      9  H7  UNL     1      13.691  10.145  12.451  1.00  0.00     0.199 HD
HETATM   10  N8  UNL     1      15.253   9.225  13.431  1.00  0.00    -0.212 NA
ENDROOT
BRANCH   4  11
HETATM   11  C6  UNL     1      16.683   9.672   9.135  1.00  0.00     0.141 C 
BRANCH  11  12
HETATM   12  C7  UNL     1      16.720   8.491   8.192  1.00  0.00     0.020 C 
BRANCH  12  13
HETATM   13  C8  UNL     1      17.711   8.850   7.105  1.00  0.00     0.003 C 
BRANCH  13  14
HETATM   14  C9  UNL     1      17.434   8.071   5.822  1.00  0.00     0.020 C 
BRANCH  14  15
HETATM   15  C10 UNL     1      18.392   6.897   5.839  1.00  0.00     0.122 C 
BRANCH  15  16
HETATM   16  N2  UNL     1      17.795   5.681   5.340  1.00  0.00    -0.367 N 
HETATM   17  C11 UNL     1      18.545   4.761   4.885  1.00  0.00     0.196 C 
HETATM   18  N3  UNL     1      19.942   4.917   4.861  1.00  0.00    -0.067 NA
HETATM   19  N4  UNL     1      17.965   3.569   4.395  1.00  0.00    -0.067 NA
ATOM     20  H2  UNL     1      16.782   5.562   5.354  1.00  0.00     0.161 HD
ENDBRANCH  15  16
ENDBRANCH  14  15
ENDBRANCH  13  14
ENDBRANCH  12  13
ENDBRANCH  11  12
ENDBRANCH   4  11
BRANCH   6  21
HETATM   21  N6  UNL     1      13.687  11.741  10.871  1.00  0.00    -0.331 N 
ATOM     22  H62 UNL     1      13.423  11.620  11.849  1.00  0.00     0.177 HD
ATOM     23  H61 UNL     1      13.187  12.388  10.262  1.00  0.00     0.177 HD
ENDBRANCH   6  21
BRANCH   1  24
HETATM   24  C2  UNL     1      14.801   6.919  13.874  1.00  0.00     0.017 C 
HETATM   25  C1  UNL     1      15.030   5.521  13.309  1.00  0.00     0.006 C 
ENDBRANCH   1  24
BRANCH  10  26
HETATM   26  C13 UNL     1      14.422   9.380  14.596  1.00  0.00     0.110 C 
HETATM   27  C14 UNL     1      13.636  10.681  14.539  1.00  0.00     0.023 C 
ENDBRANCH  10  26
TORSDOF 9
ENDMDL
MODEL 4
REMARK VINA RESULT: -7.562920239      1.346      1.566
REMARK  9 active torsions:
REMARK  status: ('A' for Active; 'I' for Inactive)
REMARK    1  A    between atoms: C2_2  and  C3_3 
REMARK    2  A    between atoms: N1_6  and  C6_7 
REMARK    3  A    between atoms: C6_7  and  C7_8 
REMARK    4  A    between atoms: C7_8  and  C8_9 
REMARK    5  A    between atoms: C8_9  and  C9_10 
REMARK    6  A    between atoms: C9_10  and  C10_11 
REMARK    7  A    between atoms: C10_11  and  N2_12 
REMARK    8  A    between atoms: N5_18  and  N6_20 
REMARK    9  A    between atoms: N8_25  and  C13_26 
ROOT
HETATM    1  C3  UNL     1      15.756   7.899  13.284  1.00  0.00     0.081 C 
HETATM    2  C4  UNL     1      16.095   7.461  11.896  1.00  0.00     0.042 C 
HETATM    3  C5  UNL     1      17.112   8.328  11.186  1.00  0.00     0.143 C 
HETATM    4  N1  UNL     1      16.316   9.368  10.519  1.00  0.00    -0.215 N 
HETATM    5  C12 UNL     1      15.219  10.050  11.122  1.00  0.00     0.704 C 
HETATM    6  N5  UNL     1      14.686  11.028  10.429  1.00  0.00    -0.138 N 
ATOM      7  H5  UNL     1      15.054  11.269   9.509  1.00  0.00     0.205 HD
HETATM    8  N7  UNL     1      14.625   9.803  12.387  1.00  0.00    -0.150 N 
ATOM      9  H7  UNL     1      13.658  10.104  12.512  1.00  0.00     0.199 HD
HETATM   10  N8  UNL     1      15.240   9.192  13.466  1.00  0.00    -0.212 NA
ENDROOT
BRANCH   4  11
HETATM   11  C6  UNL     1      16.637   9.742   9.170  1.00  0.00     0.141 C 
BRANCH  11  12
HETATM   12  C7  UNL     1      16.741   8.574   8.217  1.00  0.00     0.020 C 
BRANCH  12  13
HETATM   13  C8  UNL     1      17.865   8.911   7.260  1.00  0.00     0.003 C 
BRANCH  13  14
HETATM   14  C9  UNL     1      17.633   8.283   5.888  1.00  0.00     0.020 C 
BRANCH  14  15
HETATM   15  C10 UNL     1      16.902   6.983   6.149  1.00  0.00     0.122 C 
BRANCH  15  16
HETATM   16  N2  UNL     1      17.314   5.921   5.263  1.00  0.00    -0.367 N 
HETATM   17  C11 UNL     1      17.090   4.713   5.591  1.00  0.00     0.196 C 
HETATM   18  N3  UNL     1      16.449   4.404   6.804  1.00  0.00    -0.067 NA
HETATM   19  N4  UNL     1      17.493   3.670   4.727  1.00  0.00    -0.067 NA
ATOM     20  H2  UNL     1      17.780   6.138   4.381  1.00  0.00     0.161 HD
ENDBRANCH  15  16
ENDBRANCH  14  15
ENDBRANCH  13  14
ENDBRANCH  12  13
ENDBRANCH  11  12
ENDBRANCH   4  11
BRANCH   6  21
HETATM   21  N6  UNL     1      13.618  11.729  10.963  1.00  0.00    -0.331 N 
ATOM     22  H62 UNL     1      12.838  11.217  11.374  1.00  0.00     0.177 HD
ATOM     23  H61 UNL     1      13.628  12.748  10.935  1.00  0.00     0.177 HD
ENDBRANCH   6  21
BRANCH   1  24
HETATM   24  C2  UNL     1      14.830   6.871  13.868  1.00  0.00     0.017 C 
HETATM   25  C1  UNL     1      15.039   5.500  13.233  1.00  0.00     0.006 C 
ENDBRANCH   1  24
BRANCH  10  26
HETATM   26  C13 UNL     1      14.415   9.311  14.638  1.00  0.00     0.110 C 
HETATM   27  C14 UNL     1      13.649  10.625  14.637  1.00  0.00     0.023 C 
ENDBRANCH  10  26
TORSDOF 9
ENDMDL
MODEL 5
REMARK VINA RESULT: -7.510927451      2.052      2.356
REMARK  9 active torsions:
REMARK  status: ('A' for Active; 'I' for Inactive)
REMARK    1  A    between atoms: C2_2  and  C3_3 
REMARK    2  A    between atoms: N1_6  and  C6_7 
REMARK    3  A    between atoms: C6_7  and  C7_8 
REMARK    4  A    between atoms: C7_8  and  C8_9 
REMARK    5  A    between atoms: C8_9  and  C9_10 
REMARK    6  A    between atoms: C9_10  and  C10_11 
REMARK    7  A    between atoms: C10_11  and  N2_12 
REMARK    8  A    between atoms: N5_18  and  N6_20 
REMARK    9  A    between atoms: N8_25  and  C13_26 
ROOT
HETATM    1  C3  UNL     1      15.835   8.014  13.870  1.00  0.00     0.081 C 
HETATM    2  C4  UNL     1      16.621   7.783  12.620  1.00  0.00     0.042 C 
HETATM    3  C5  UNL     1      17.713   8.799  12.359  1.00  0.00     0.143 C 
HETATM    4  N1  UNL     1      17.056   9.864  11.589  1.00  0.00    -0.215 N 
HETATM    5  C12 UNL     1      15.765  10.390  11.885  1.00  0.00     0.704 C 
HETATM    6  N5  UNL     1      15.371  11.414  11.166  1.00  0.00    -0.138 N 
ATOM      7  H5  UNL     1      15.974  11.796  10.437  1.00  0.00     0.205 HD
HETATM    8  N7  UNL     1      14.842   9.943  12.866  1.00  0.00    -0.150 N 
ATOM      9  H7  UNL     1      13.858  10.162  12.713  1.00  0.00     0.199 HD
HETATM   10  N8  UNL     1      15.160   9.236  14.014  1.00  0.00    -0.212 NA
ENDROOT
BRANCH   4  11
HETATM   11  C6  UNL     1      17.731  10.431  10.455  1.00  0.00     0.141 C 
BRANCH  11  12
HETATM   12  C7  UNL     1      18.084   9.425   9.384  1.00  0.00     0.020 C 
BRANCH  12  13
HETATM   13  C8  UNL     1      16.887   9.357   8.460  1.00  0.00     0.003 C 
BRANCH  13  14
HETATM   14  C9  UNL     1      16.069   8.091   8.703  1.00  0.00     0.020 C 
BRANCH  14  15
HETATM   15  C10 UNL     1      17.057   6.945   8.644  1.00  0.00     0.122 C 
BRANCH  15  16
HETATM   16  N2  UNL     1      16.737   5.882   9.567  1.00  0.00    -0.367 N 
HETATM   17  C11 UNL     1      16.242   4.799   9.122  1.00  0.00     0.196 C 
HETATM   18  N3  UNL     1      16.003   4.628   7.747  1.00  0.00    -0.067 NA
HETATM   19  N4  UNL     1      15.926   3.757  10.022  1.00  0.00    -0.067 NA
ATOM     20  H2  UNL     1      16.907   6.000  10.566  1.00  0.00     0.161 HD
ENDBRANCH  15  16
ENDBRANCH  14  15
ENDBRANCH  13  14
ENDBRANCH  12  13
ENDBRANCH  11  12
ENDBRANCH   4  11
BRANCH   6  21
HETATM   21  N6  UNL     1      14.125  11.969  11.407  1.00  0.00    -0.331 N 
ATOM     22  H62 UNL     1      14.062  12.873  11.875  1.00  0.00     0.177 HD
ATOM     23  H61 UNL     1      13.290  11.464  11.113  1.00  0.00     0.177 HD
ENDBRANCH   6  21
BRANCH   1  24
HETATM   24  C2  UNL     1      14.884   6.861  14.023  1.00  0.00     0.017 C 
HETATM   25  C1  UNL     1      15.233   5.716  13.079  1.00  0.00     0.006 C 
ENDBRANCH   1  24
BRANCH  10  26
HETATM   26  C13 UNL     1      14.010   9.148  14.874  1.00  0.00     0.110 C 
HETATM   27  C14 UNL     1      13.501  10.531  15.251  1.00  0.00     0.023 C 
ENDBRANCH  10  26
TORSDOF 9
ENDMDL
