MODEL 1
REMARK VINA RESULT: -7.757529857      0.000      0.000
REMARK  9 active torsions:
REMARK  status: ('A' for Active; 'I' for Inactive)
REMARK    1  A    between atoms: N1_1  and  C1_4 
REMARK    2  A    between atoms: C2_9  and  C3_10 
REMARK    3  A    between atoms: C3_10  and  C4_11 
REMARK    4  A    between atoms: C4_11  and  N4_12 
REMARK    5  A    between atoms: N4_12  and  C5_13 
REMARK    6  A    between atoms: C5_13  and  C6_14 
REMARK    7  A    between atoms: C6_14  and  C7_15 
REMARK    8  A    between atoms: C7_15  and  C8_16 
REMARK    9  A    between atoms: C8_16  and  C9_17 
ROOT
HETATM    1  N4  UNL     1      16.478   8.755  12.081  1.00  0.00    -0.067 N 
HETATM    2  C12 UNL     1      17.954   8.745  12.135  1.00  0.00     0.237 C 
HETATM    3  C13 UNL     1      18.347   7.278  12.145  1.00  0.00     0.029 C 
HETATM    4  C14 UNL     1      17.332   6.785  11.100  1.00  0.00     0.029 C 
HETATM    5  C15 UNL     1      16.085   7.440  11.663  1.00  0.00     0.237 C 
ENDROOT
BRANCH   1   6
HETATM    6  C4  UNL     1      16.191   9.665  10.996  1.00  0.00     0.245 C 
BRANCH   6   7
HETATM    7  C3  UNL     1      14.856   9.632  10.388  1.00  0.00     0.106 C 
BRANCH   7   8
HETATM    8  C2  UNL     1      14.121  10.858  10.887  1.00  0.00     0.114 A 
HETATM    9  N3  UNL     1      14.596  12.112  10.924  1.00  0.00    -0.274 N 
HETATM   10  N2  UNL     1      13.635  12.878  11.429  1.00  0.00    -0.131 N 
ATOM     11  H3  UNL     1      15.521  12.419  10.622  1.00  0.00     0.189 HD
HETATM   12  C1  UNL     1      12.542  12.153  11.722  1.00  0.00     0.691 A 
ATOM     13  H2  UNL     1      13.715  13.884  11.576  1.00  0.00     0.205 HD
HETATM   14  N7  UNL     1      12.870  10.884  11.373  1.00  0.00    -0.178 N 
ATOM     15  H7  UNL     1      12.259  10.072  11.467  1.00  0.00     0.185 HD
BRANCH  12  16
HETATM   16  N1  UNL     1      11.413  12.488  12.216  1.00  0.00    -0.233 N 
ATOM     17  H12 UNL     1      10.780  13.162  11.786  1.00  0.00     0.174 HD
ATOM     18  H11 UNL     1      10.933  12.190  13.066  1.00  0.00     0.174 HD
ENDBRANCH  12  16
ENDBRANCH   7   8
ENDBRANCH   6   7
ENDBRANCH   1   6
BRANCH   1  19
HETATM   19  C5  UNL     1      15.909   9.164  13.297  1.00  0.00     0.237 C 
BRANCH  19  20
HETATM   20  C6  UNL     1      15.116   8.283  14.147  1.00  0.00     0.028 C 
BRANCH  20  21
HETATM   21  C7  UNL     1      14.150   8.862  15.120  1.00  0.00     0.008 C 
BRANCH  21  22
HETATM   22  C8  UNL     1      13.790  10.309  14.734  1.00  0.00     0.058 C 
BRANCH  22  23
HETATM   23  C9  UNL     1      13.011  10.969  15.798  1.00  0.00     0.025 A 
HETATM   24  C10 UNL     1      12.359  12.193  15.742  1.00  0.00     0.113 A 
HETATM   25  N5  UNL     1      11.752  12.419  16.942  1.00  0.00    -0.360 N 
HETATM   26  C11 UNL     1      12.024  11.360  17.716  1.00  0.00     0.180 A 
ATOM     27  H5  UNL     1      11.198  13.235  17.200  1.00  0.00     0.166 HD
HETATM   28  N6  UNL     1      12.775  10.501  17.026  1.00  0.00    -0.355 N 
ATOM     29  H6  UNL     1      13.121   9.612  17.386  1.00  0.00     0.166 HD
ENDBRANCH  22  23
ENDBRANCH  21  22
ENDBRANCH  20  21
ENDBRANCH  19  20
ENDBRANCH   1  19
TORSDOF 9
ENDMDL
MODEL 2
REMARK VINA RESULT: -7.665807324      3.306      6.966
REMARK  9 active torsions:
REMARK  status: ('A' for Active; 'I' for Inactive)
REMARK    1  A    between atoms: N1_1  and  C1_4 
REMARK    2  A    between atoms: C2_9  and  C3_10 
REMARK    3  A    between atoms: C3_10  and  C4_11 
REMARK    4  A    between atoms: C4_11  and  N4_12 
REMARK    5  A    between atoms: N4_12  and  C5_13 
REMARK    6  A    between atoms: C5_13  and  C6_14 
REMARK    7  A    between atoms: C6_14  and  C7_15 
REMARK    8  A    between atoms: C7_15  and  C8_16 
REMARK    9  A    between atoms: C8_16  and  C9_17 
ROOT
HETATM    1  N4  UNL     1      16.979   8.749  10.601  1.00  0.00    -0.067 N 
HETATM    2  C12 UNL     1      18.300   9.090  10.033  1.00  0.00     0.237 C 
HETATM    3  C13 UNL     1      18.151   8.908   8.531  1.00  0.00     0.029 C 
HETATM    4  C14 UNL     1      16.753   9.534   8.386  1.00  0.00     0.029 C 
HETATM    5  C15 UNL     1      16.051   8.792   9.508  1.00  0.00     0.237 C 
ENDROOT
BRANCH   1   6
HETATM    6  C4  UNL     1      16.691   9.869  11.467  1.00  0.00     0.245 C 
BRANCH   6   7
HETATM    7  C3  UNL     1      15.589   9.747  12.427  1.00  0.00     0.106 C 
BRANCH   7   8
HETATM    8  C2  UNL     1      14.582  10.820  12.071  1.00  0.00     0.114 A 
HETATM    9  N3  UNL     1      14.698  11.728  11.090  1.00  0.00    -0.274 N 
HETATM   10  N2  UNL     1      13.600  12.477  11.121  1.00  0.00    -0.131 N 
ATOM     11  H3  UNL     1      15.481  11.826  10.443  1.00  0.00     0.189 HD
HETATM   12  C1  UNL     1      12.770  12.078  12.098  1.00  0.00     0.691 A 
ATOM     13  H2  UNL     1      13.412  13.252  10.485  1.00  0.00     0.205 HD
HETATM   14  N7  UNL     1      13.407  11.035  12.685  1.00  0.00    -0.178 N 
ATOM     15  H7  UNL     1      13.049  10.495  13.473  1.00  0.00     0.185 HD
BRANCH  12  16
HETATM   16  N1  UNL     1      11.628  12.516  12.468  1.00  0.00    -0.233 N 
ATOM     17  H12 UNL     1      10.763  12.358  11.952  1.00  0.00     0.174 HD
ATOM     18  H11 UNL     1      11.347  13.066  13.280  1.00  0.00     0.174 HD
ENDBRANCH  12  16
ENDBRANCH   7   8
ENDBRANCH   6   7
ENDBRANCH   1   6
BRANCH   1  19
HETATM   19  C5  UNL     1      17.001   7.525  11.287  1.00  0.00     0.237 C 
BRANCH  19  20
HETATM   20  C6  UNL     1      16.381   6.308  10.774  1.00  0.00     0.028 C 
BRANCH  20  21
HETATM   21  C7  UNL     1      17.058   5.522   9.706  1.00  0.00     0.008 C 
BRANCH  21  22
HETATM   22  C8  UNL     1      16.022   4.813   8.813  1.00  0.00     0.058 C 
BRANCH  22  23
HETATM   23  C9  UNL     1      16.437   4.826   7.398  1.00  0.00     0.025 A 
HETATM   24  C10 UNL     1      16.613   5.927   6.571  1.00  0.00     0.113 A 
HETATM   25  N5  UNL     1      17.014   5.490   5.344  1.00  0.00    -0.360 N 
HETATM   26  C11 UNL     1      17.084   4.154   5.414  1.00  0.00     0.180 A 
ATOM     27  H5  UNL     1      17.221   6.068   4.530  1.00  0.00     0.166 HD
HETATM   28  N6  UNL     1      16.738   3.767   6.642  1.00  0.00    -0.355 N 
ATOM     29  H6  UNL     1      16.708   2.798   6.960  1.00  0.00     0.166 HD
ENDBRANCH  22  23
ENDBRANCH  21  22
ENDBRANCH  20  21
ENDBRANCH  19  20
ENDBRANCH   1  19
TORSDOF 9
ENDMDL
MODEL 3
REMARK VINA RESULT: -7.665731092      3.619      7.333
REMARK  9 active torsions:
REMARK  status: ('A' for Active; 'I' for Inactive)
REMARK    1  A    between atoms: N1_1  and  C1_4 
REMARK    2  A    between atoms: C2_9  and  C3_10 
REMARK    3  A    between atoms: C3_10  and  C4_11 
REMARK    4  A    between atoms: C4_11  and  N4_12 
REMARK    5  A    between atoms: N4_12  and  C5_13 
REMARK    6  A    between atoms: C5_13  and  C6_14 
REMARK    7  A    between atoms: C6_14  and  C7_15 
REMARK    8  A    between atoms: C7_15  and  C8_16 
REMARK    9  A    between atoms: C8_16  and  C9_17 
ROOT
HETATM    1  N4  UNL     1      16.897   9.418  10.220  1.00  0.00    -0.067 N 
HETATM    2  C12 UNL     1      15.988   8.390   9.672  1.00  0.00     0.237 C 
HETATM    3  C13 UNL     1      16.586   7.058  10.092  1.00  0.00     0.029 C 
HETATM    4  C14 UNL     1      16.981   7.453  11.526  1.00  0.00     0.029 C 
HETATM    5  C15 UNL     1      17.689   8.759  11.219  1.00  0.00     0.237 C 
ENDROOT
BRANCH   1   6
HETATM    6  C4  UNL     1      16.001  10.326  10.899  1.00  0.00     0.245 C 
BRANCH   6   7
HETATM    7  C3  UNL     1      14.590  10.345  10.500  1.00  0.00     0.106 C 
BRANCH   7   8
HETATM    8  C2  UNL     1      13.899  11.352  11.396  1.00  0.00     0.114 A 
HETATM    9  N3  UNL     1      13.644  12.636  11.104  1.00  0.00    -0.274 N 
HETATM   10  N2  UNL     1      13.028  13.160  12.159  1.00  0.00    -0.131 N 
ATOM     11  H3  UNL     1      13.878  13.119  10.236  1.00  0.00     0.189 HD
HETATM   12  C1  UNL     1      12.875  12.248  13.132  1.00  0.00     0.691 A 
ATOM     13  H2  UNL     1      12.713  14.128  12.221  1.00  0.00     0.205 HD
HETATM   14  N7  UNL     1      13.431  11.116  12.632  1.00  0.00    -0.178 N 
ATOM     15  H7  UNL     1      13.484  10.222  13.121  1.00  0.00     0.185 HD
BRANCH  12  16
HETATM   16  N1  UNL     1      12.345  12.330  14.292  1.00  0.00    -0.233 N 
ATOM     17  H12 UNL     1      12.112  13.211  14.750  1.00  0.00     0.174 HD
ATOM     18  H11 UNL     1      12.062  11.611  14.957  1.00  0.00     0.174 HD
ENDBRANCH  12  16
ENDBRANCH   7   8
ENDBRANCH   6   7
ENDBRANCH   1   6
BRANCH   1  19
HETATM   19  C5  UNL     1      17.649  10.047   9.216  1.00  0.00     0.237 C 
BRANCH  19  20
HETATM   20  C6  UNL     1      17.465   9.781   7.793  1.00  0.00     0.028 C 
BRANCH  20  21
HETATM   21  C7  UNL     1      18.387   8.850   7.086  1.00  0.00     0.008 C 
BRANCH  21  22
HETATM   22  C8  UNL     1      17.762   8.364   5.765  1.00  0.00     0.058 C 
BRANCH  22  23
HETATM   23  C9  UNL     1      17.527   6.909   5.788  1.00  0.00     0.025 A 
HETATM   24  C10 UNL     1      16.519   6.218   6.448  1.00  0.00     0.113 A 
HETATM   25  N5  UNL     1      16.664   4.887   6.193  1.00  0.00    -0.360 N 
HETATM   26  C11 UNL     1      17.733   4.762   5.395  1.00  0.00     0.180 A 
ATOM     27  H5  UNL     1      16.072   4.133   6.541  1.00  0.00     0.166 HD
HETATM   28  N6  UNL     1      18.241   5.972   5.160  1.00  0.00    -0.355 N 
ATOM     29  H6  UNL     1      19.060   6.156   4.580  1.00  0.00     0.166 HD
ENDBRANCH  22  23
ENDBRANCH  21  22
ENDBRANCH  20  21
ENDBRANCH  19  20
ENDBRANCH   1  19
TORSDOF 9
ENDMDL
MODEL 4
REMARK VINA RESULT: -7.602260386      3.643      7.485
REMARK  9 active torsions:
REMARK  status: ('A' for Active; 'I' for Inactive)
REMARK    1  A    between atoms: N1_1  and  C1_4 
REMARK    2  A    between atoms: C2_9  and  C3_10 
REMARK    3  A    between atoms: C3_10  and  C4_11 
REMARK    4  A    between atoms: C4_11  and  N4_12 
REMARK    5  A    between atoms: N4_12  and  C5_13 
REMARK    6  A    between atoms: C5_13  and  C6_14 
REMARK    7  A    between atoms: C6_14  and  C7_15 
REMARK    8  A    between atoms: C7_15  and  C8_16 
REMARK    9  A    between atoms: C8_16  and  C9_17 
ROOT
HETATM    1  N4  UNL     1      16.595   9.299  10.330  1.00  0.00    -0.067 N 
HETATM    2  C12 UNL     1      16.414   7.876  10.686  1.00  0.00     0.237 C 
HETATM    3  C13 UNL     1      17.809   7.359  10.997  1.00  0.00     0.029 C 
HETATM    4  C14 UNL     1      18.311   8.581  11.784  1.00  0.00     0.029 C 
HETATM    5  C15 UNL     1      17.895   9.669  10.811  1.00  0.00     0.237 C 
ENDROOT
BRANCH   1   6
HETATM    6  C4  UNL     1      15.614   9.973  11.151  1.00  0.00     0.245 C 
BRANCH   6   7
HETATM    7  C3  UNL     1      14.381  10.452  10.517  1.00  0.00     0.106 C 
BRANCH   7   8
HETATM    8  C2  UNL     1      13.770  11.462  11.465  1.00  0.00     0.114 A 
HETATM    9  N3  UNL     1      13.571  12.766  11.221  1.00  0.00    -0.274 N 
HETATM   10  N2  UNL     1      13.015  13.285  12.311  1.00  0.00    -0.131 N 
ATOM     11  H3  UNL     1      13.802  13.264  10.362  1.00  0.00     0.189 HD
HETATM   12  C1  UNL     1      12.845  12.350  13.260  1.00  0.00     0.691 A 
ATOM     13  H2  UNL     1      12.751  14.265  12.413  1.00  0.00     0.205 HD
HETATM   14  N7  UNL     1      13.328  11.210  12.708  1.00  0.00    -0.178 N 
ATOM     15  H7  UNL     1      13.352  10.299  13.167  1.00  0.00     0.185 HD
BRANCH  12  16
HETATM   16  N1  UNL     1      12.356  12.421  14.438  1.00  0.00    -0.233 N 
ATOM     17  H12 UNL     1      11.465  12.865  14.659  1.00  0.00     0.174 HD
ATOM     18  H11 UNL     1      12.706  12.084  15.335  1.00  0.00     0.174 HD
ENDBRANCH  12  16
ENDBRANCH   7   8
ENDBRANCH   6   7
ENDBRANCH   1   6
BRANCH   1  19
HETATM   19  C5  UNL     1      16.404   9.527   8.959  1.00  0.00     0.237 C 
BRANCH  19  20
HETATM   20  C6  UNL     1      17.484   9.895   8.050  1.00  0.00     0.028 C 
BRANCH  20  21
HETATM   21  C7  UNL     1      17.881   8.968   6.955  1.00  0.00     0.008 C 
BRANCH  21  22
HETATM   22  C8  UNL     1      17.056   7.669   7.017  1.00  0.00     0.058 C 
BRANCH  22  23
HETATM   23  C9  UNL     1      17.649   6.618   6.168  1.00  0.00     0.025 A 
HETATM   24  C10 UNL     1      17.035   5.475   5.674  1.00  0.00     0.113 A 
HETATM   25  N5  UNL     1      17.940   4.783   4.926  1.00  0.00    -0.360 N 
HETATM   26  C11 UNL     1      19.082   5.483   4.959  1.00  0.00     0.180 A 
ATOM     27  H5  UNL     1      17.779   3.903   4.435  1.00  0.00     0.166 HD
HETATM   28  N6  UNL     1      18.899   6.575   5.702  1.00  0.00    -0.355 N 
ATOM     29  H6  UNL     1      19.613   7.278   5.888  1.00  0.00     0.166 HD
ENDBRANCH  22  23
ENDBRANCH  21  22
ENDBRANCH  20  21
ENDBRANCH  19  20
ENDBRANCH   1  19
TORSDOF 9
ENDMDL
MODEL 5
REMARK VINA RESULT: -7.600103886      3.430      7.185
REMARK  9 active torsions:
REMARK  status: ('A' for Active; 'I' for Inactive)
REMARK    1  A    between atoms: N1_1  and  C1_4 
REMARK    2  A    between atoms: C2_9  and  C3_10 
REMARK    3  A    between atoms: C3_10  and  C4_11 
REMARK    4  A    between atoms: C4_11  and  N4_12 
REMARK    5  A    between atoms: N4_12  and  C5_13 
REMARK    6  A    between atoms: C5_13  and  C6_14 
REMARK    7  A    between atoms: C6_14  and  C7_15 
REMARK    8  A    between atoms: C7_15  and  C8_16 
REMARK    9  A    between atoms: C8_16  and  C9_17 
ROOT
HETATM    1  N4  UNL     1      16.914   8.958  10.362  1.00  0.00    -0.067 N 
HETATM    2  C12 UNL     1      16.186   7.832  10.985  1.00  0.00     0.237 C 
HETATM    3  C13 UNL     1      17.168   6.672  10.989  1.00  0.00     0.029 C 
HETATM    4  C14 UNL     1      18.422   7.465  11.396  1.00  0.00     0.029 C 
HETATM    5  C15 UNL     1      18.304   8.607  10.404  1.00  0.00     0.237 C 
ENDROOT
BRANCH   1   6
HETATM    6  C4  UNL     1      16.705  10.044  11.292  1.00  0.00     0.245 C 
BRANCH   6   7
HETATM    7  C3  UNL     1      15.662   9.900  12.313  1.00  0.00     0.106 C 
BRANCH   7   8
HETATM    8  C2  UNL     1      14.597  10.928  11.992  1.00  0.00     0.114 A 
HETATM    9  N3  UNL     1      14.653  11.861  11.029  1.00  0.00    -0.274 N 
HETATM   10  N2  UNL     1      13.519  12.550  11.089  1.00  0.00    -0.131 N 
ATOM     11  H3  UNL     1      15.421  12.011  10.375  1.00  0.00     0.189 HD
HETATM   12  C1  UNL     1      12.723  12.090  12.068  1.00  0.00     0.691 A 
ATOM     13  H2  UNL     1      13.283  13.328  10.472  1.00  0.00     0.205 HD
HETATM   14  N7  UNL     1      13.421  11.069  12.624  1.00  0.00    -0.178 N 
ATOM     15  H7  UNL     1      13.101  10.495  13.405  1.00  0.00     0.185 HD
BRANCH  12  16
HETATM   16  N1  UNL     1      11.566  12.461  12.460  1.00  0.00    -0.233 N 
ATOM     17  H12 UNL     1      10.703  12.275  11.948  1.00  0.00     0.174 HD
ATOM     18  H11 UNL     1      11.267  12.974  13.290  1.00  0.00     0.174 HD
ENDBRANCH  12  16
ENDBRANCH   7   8
ENDBRANCH   6   7
ENDBRANCH   1   6
BRANCH   1  19
HETATM   19  C5  UNL     1      16.434   9.246   9.075  1.00  0.00     0.237 C 
BRANCH  19  20
HETATM   20  C6  UNL     1      17.290   9.302   7.895  1.00  0.00     0.028 C 
BRANCH  20  21
HETATM   21  C7  UNL     1      17.354   8.139   6.968  1.00  0.00     0.008 C 
BRANCH  21  22
HETATM   22  C8  UNL     1      16.293   7.086   7.342  1.00  0.00     0.058 C 
BRANCH  22  23
HETATM   23  C9  UNL     1      16.584   5.786   6.710  1.00  0.00     0.025 A 
HETATM   24  C10 UNL     1      16.497   4.523   7.280  1.00  0.00     0.113 A 
HETATM   25  N5  UNL     1      16.843   3.597   6.342  1.00  0.00    -0.360 N 
HETATM   26  C11 UNL     1      17.134   4.273   5.223  1.00  0.00     0.180 A 
ATOM     27  H5  UNL     1      16.873   2.585   6.468  1.00  0.00     0.166 HD
HETATM   28  N6  UNL     1      16.977   5.577   5.452  1.00  0.00    -0.355 N 
ATOM     29  H6  UNL     1      17.135   6.311   4.762  1.00  0.00     0.166 HD
ENDBRANCH  22  23
ENDBRANCH  21  22
ENDBRANCH  20  21
ENDBRANCH  19  20
ENDBRANCH   1  19
TORSDOF 9
ENDMDL
