MODEL 1
REMARK VINA RESULT: -7.757853983      0.000      0.000
REMARK  8 active torsions:
REMARK  status: ('A' for Active; 'I' for Inactive)
REMARK    1  A    between atoms: C1_2  and  C2_4 
REMARK    2  A    between atoms: C4_6  and  O2_7 
REMARK    3  A    between atoms: O2_7  and  C5_8 
REMARK    4  A    between atoms: C5_8  and  C6_9 
REMARK    5  A    between atoms: C6_9  and  C7_10 
REMARK    6  A    between atoms: C7_10  and  C8_11 
REMARK    7  A    between atoms: C8_11  and  C9_12 
REMARK    8  A    between atoms: C9_12  and  N2_13 
ROOT
HETATM    1  C2  UNL     1      18.147   6.777   5.649  1.00  0.00     0.083 C 
HETATM    2  C3  UNL     1      18.192   8.204   6.182  1.00  0.00     0.046 C 
HETATM    3  C4  UNL     1      17.434   8.094   7.491  1.00  0.00     0.127 C 
HETATM    4  C11 UNL     1      16.498   6.916   7.395  1.00  0.00     0.026 C 
HETATM    5  C12 UNL     1      16.582   6.041   8.609  1.00  0.00     0.051 C 
HETATM    6  C13 UNL     1      15.958   4.714   8.337  1.00  0.00     0.056 C 
HETATM    7  N5  UNL     1      16.494   4.054   7.225  1.00  0.00    -0.402 N 
ATOM      8  H5  UNL     1      16.782   3.077   7.281  1.00  0.00     0.158 HD
HETATM    9  C14 UNL     1      16.625   4.785   6.018  1.00  0.00     0.124 C 
HETATM   10  C15 UNL     1      16.820   6.241   6.111  1.00  0.00     0.023 C 
ENDROOT
BRANCH   3  11
HETATM   11  O2  UNL     1      16.725   9.270   7.639  1.00  0.00    -0.385 OA
BRANCH  11  12
HETATM   12  C5  UNL     1      17.131  10.073   8.675  1.00  0.00     0.168 C 
BRANCH  12  13
HETATM   13  C6  UNL     1      18.239   9.486   9.520  1.00  0.00     0.026 C 
BRANCH  13  14
HETATM   14  C7  UNL     1      17.736   9.361  10.933  1.00  0.00     0.004 C 
BRANCH  14  15
HETATM   15  C8  UNL     1      17.013  10.577  11.407  1.00  0.00     0.020 C 
BRANCH  15  16
HETATM   16  C9  UNL     1      15.834  10.243  12.291  1.00  0.00     0.122 C 
BRANCH  16  17
HETATM   17  N2  UNL     1      14.822  11.252  12.087  1.00  0.00    -0.367 N 
HETATM   18  C10 UNL     1      13.955  11.179  11.144  1.00  0.00     0.196 C 
HETATM   19  N3  UNL     1      12.989  12.207  11.002  1.00  0.00    -0.067 NA
HETATM   20  N4  UNL     1      14.003  10.058  10.275  1.00  0.00    -0.067 NA
ATOM     21  H2  UNL     1      14.795  12.053  12.717  1.00  0.00     0.161 HD
ENDBRANCH  16  17
ENDBRANCH  15  16
ENDBRANCH  14  15
ENDBRANCH  13  14
ENDBRANCH  12  13
ENDBRANCH  11  12
ENDBRANCH   3  11
BRANCH   1  22
HETATM   22  C1  UNL     1      19.332   6.098   6.123  1.00  0.00     0.235 C 
HETATM   23  N1  UNL     1      20.478   6.844   6.498  1.00  0.00    -0.062 NA
HETATM   24  O1  UNL     1      19.393   4.860   6.218  1.00  0.00    -0.276 OA
ENDBRANCH   1  22
TORSDOF 8
ENDMDL
MODEL 2
REMARK VINA RESULT: -7.676910059      1.679      2.285
REMARK  8 active torsions:
REMARK  status: ('A' for Active; 'I' for Inactive)
REMARK    1  A    between atoms: C1_2  and  C2_4 
REMARK    2  A    between atoms: C4_6  and  O2_7 
REMARK    3  A    between atoms: O2_7  and  C5_8 
REMARK    4  A    between atoms: C5_8  and  C6_9 
REMARK    5  A    between atoms: C6_9  and  C7_10 
REMARK    6  A    between atoms: C7_10  and  C8_11 
REMARK    7  A    between atoms: C8_11  and  C9_12 
REMARK    8  A    between atoms: C9_12  and  N2_13 
ROOT
HETATM    1  C2  UNL     1      16.905   5.233   5.991  1.00  0.00     0.083 C 
HETATM    2  C3  UNL     1      17.993   6.277   5.763  1.00  0.00     0.046 C 
HETATM    3  C4  UNL     1      18.667   6.357   7.119  1.00  0.00     0.127 C 
HETATM    4  C11 UNL     1      17.672   5.921   8.165  1.00  0.00     0.026 C 
HETATM    5  C12 UNL     1      18.270   4.935   9.122  1.00  0.00     0.051 C 
HETATM    6  C13 UNL     1      17.196   4.241   9.890  1.00  0.00     0.056 C 
HETATM    7  N5  UNL     1      16.237   3.616   9.084  1.00  0.00    -0.402 N 
ATOM      8  H5  UNL     1      15.956   2.650   9.254  1.00  0.00     0.158 HD
HETATM    9  C14 UNL     1      15.668   4.367   8.025  1.00  0.00     0.124 C 
HETATM   10  C15 UNL     1      16.483   5.433   7.421  1.00  0.00     0.023 C 
ENDROOT
BRANCH   3  11
HETATM   11  O2  UNL     1      19.026   7.677   7.307  1.00  0.00    -0.385 OA
BRANCH  11  12
HETATM   12  C5  UNL     1      18.218   8.599   6.690  1.00  0.00     0.168 C 
BRANCH  12  13
HETATM   13  C6  UNL     1      17.609   9.617   7.627  1.00  0.00     0.026 C 
BRANCH  13  14
HETATM   14  C7  UNL     1      18.082   9.312   9.023  1.00  0.00     0.004 C 
BRANCH  14  15
HETATM   15  C8  UNL     1      18.166  10.523   9.891  1.00  0.00     0.020 C 
BRANCH  15  16
HETATM   16  C9  UNL     1      17.199  10.472  11.051  1.00  0.00     0.122 C 
BRANCH  16  17
HETATM   17  N2  UNL     1      15.885  10.803  10.553  1.00  0.00    -0.367 N 
HETATM   18  C10 UNL     1      14.808  10.439  11.148  1.00  0.00     0.196 C 
HETATM   19  N3  UNL     1      13.551  10.800  10.602  1.00  0.00    -0.067 NA
HETATM   20  N4  UNL     1      14.927   9.683  12.343  1.00  0.00    -0.067 NA
ATOM     21  H2  UNL     1      15.810  11.347   9.694  1.00  0.00     0.161 HD
ENDBRANCH  16  17
ENDBRANCH  15  16
ENDBRANCH  14  15
ENDBRANCH  13  14
ENDBRANCH  12  13
ENDBRANCH  11  12
ENDBRANCH   3  11
BRANCH   1  22
HETATM   22  C1  UNL     1      17.459   3.944   5.642  1.00  0.00     0.235 C 
HETATM   23  N1  UNL     1      17.846   3.674   4.305  1.00  0.00    -0.062 NA
HETATM   24  O1  UNL     1      17.615   3.041   6.482  1.00  0.00    -0.276 OA
ENDBRANCH   1  22
TORSDOF 8
ENDMDL
MODEL 3
REMARK VINA RESULT: -7.546961864      3.406      5.447
REMARK  8 active torsions:
REMARK  status: ('A' for Active; 'I' for Inactive)
REMARK    1  A    between atoms: C1_2  and  C2_4 
REMARK    2  A    between atoms: C4_6  and  O2_7 
REMARK    3  A    between atoms: O2_7  and  C5_8 
REMARK    4  A    between atoms: C5_8  and  C6_9 
REMARK    5  A    between atoms: C6_9  and  C7_10 
REMARK    6  A    between atoms: C7_10  and  C8_11 
REMARK    7  A    between atoms: C8_11  and  C9_12 
REMARK    8  A    between atoms: C9_12  and  N2_13 
ROOT
HETATM    1  C2  UNL     1      17.553  10.141  10.740  1.00  0.00     0.083 C 
HETATM    2  C3  UNL     1      16.198  10.455  11.365  1.00  0.00     0.046 C 
HETATM    3  C4  UNL     1      15.250   9.594  10.553  1.00  0.00     0.127 C 
HETATM    4  C11 UNL     1      15.881   9.341   9.207  1.00  0.00     0.026 C 
HETATM    5  C12 UNL     1      15.810   7.893   8.825  1.00  0.00     0.051 C 
HETATM    6  C13 UNL     1      16.753   7.605   7.707  1.00  0.00     0.056 C 
HETATM    7  N5  UNL     1      18.077   7.973   7.973  1.00  0.00    -0.402 N 
ATOM      8  H5  UNL     1      18.848   7.327   7.804  1.00  0.00     0.158 HD
HETATM    9  C14 UNL     1      18.315   9.273   8.484  1.00  0.00     0.124 C 
HETATM   10  C15 UNL     1      17.253   9.904   9.285  1.00  0.00     0.023 C 
ENDROOT
BRANCH   3  11
HETATM   11  O2  UNL     1      14.079  10.314  10.415  1.00  0.00    -0.385 OA
BRANCH  11  12
HETATM   12  C5  UNL     1      14.037  11.502  11.102  1.00  0.00     0.168 C 
BRANCH  12  13
HETATM   13  C6  UNL     1      12.673  11.852  11.654  1.00  0.00     0.026 C 
BRANCH  13  14
HETATM   14  C7  UNL     1      12.866  12.538  12.979  1.00  0.00     0.004 C 
BRANCH  14  15
HETATM   15  C8  UNL     1      13.179  11.592  14.089  1.00  0.00     0.020 C 
BRANCH  15  16
HETATM   16  C9  UNL     1      12.390  11.888  15.344  1.00  0.00     0.122 C 
BRANCH  16  17
HETATM   17  N2  UNL     1      13.261  12.575  16.267  1.00  0.00    -0.367 N 
HETATM   18  C10 UNL     1      13.231  12.363  17.532  1.00  0.00     0.196 C 
HETATM   19  N3  UNL     1      14.117  13.074  18.381  1.00  0.00    -0.067 NA
HETATM   20  N4  UNL     1      12.302  11.414  18.031  1.00  0.00    -0.067 NA
ATOM     21  H2  UNL     1      13.927  13.254  15.900  1.00  0.00     0.161 HD
ENDBRANCH  16  17
ENDBRANCH  15  16
ENDBRANCH  14  15
ENDBRANCH  13  14
ENDBRANCH  12  13
ENDBRANCH  11  12
ENDBRANCH   3  11
BRANCH   1  22
HETATM   22  C1  UNL     1      18.130   9.042  11.480  1.00  0.00     0.235 C 
HETATM   23  N1  UNL     1      17.959   8.963  12.886  1.00  0.00    -0.062 NA
HETATM   24  O1  UNL     1      18.784   8.141  10.926  1.00  0.00    -0.276 OA
ENDBRANCH   1  22
TORSDOF 8
ENDMDL
MODEL 4
REMARK VINA RESULT: -7.387150497      1.637      2.352
REMARK  8 active torsions:
REMARK  status: ('A' for Active; 'I' for Inactive)
REMARK    1  A    between atoms: C1_2  and  C2_4 
REMARK    2  A    between atoms: C4_6  and  O2_7 
REMARK    3  A    between atoms: O2_7  and  C5_8 
REMARK    4  A    between atoms: C5_8  and  C6_9 
REMARK    5  A    between atoms: C6_9  and  C7_10 
REMARK    6  A    between atoms: C7_10  and  C8_11 
REMARK    7  A    between atoms: C8_11  and  C9_12 
REMARK    8  A    between atoms: C9_12  and  N2_13 
ROOT
HETATM    1  C2  UNL     1      16.290   4.720   6.853  1.00  0.00     0.083 C 
HETATM    2  C3  UNL     1      16.556   6.039   6.136  1.00  0.00     0.046 C 
HETATM    3  C4  UNL     1      17.243   6.865   7.206  1.00  0.00     0.127 C 
HETATM    4  C11 UNL     1      16.821   6.337   8.553  1.00  0.00     0.026 C 
HETATM    5  C12 UNL     1      17.994   6.143   9.465  1.00  0.00     0.051 C 
HETATM    6  C13 UNL     1      17.616   5.280  10.621  1.00  0.00     0.056 C 
HETATM    7  N5  UNL     1      17.078   4.041  10.251  1.00  0.00    -0.402 N 
ATOM      8  H5  UNL     1      17.417   3.175  10.668  1.00  0.00     0.158 HD
HETATM    9  C14 UNL     1      16.048   4.029   9.278  1.00  0.00     0.124 C 
HETATM   10  C15 UNL     1      16.027   5.111   8.281  1.00  0.00     0.023 C 
ENDROOT
BRANCH   3  11
HETATM   11  O2  UNL     1      16.816   8.168   7.037  1.00  0.00    -0.385 OA
BRANCH  11  12
HETATM   12  C5  UNL     1      17.807   9.118   7.060  1.00  0.00     0.168 C 
BRANCH  12  13
HETATM   13  C6  UNL     1      17.465  10.353   7.863  1.00  0.00     0.026 C 
BRANCH  13  14
HETATM   14  C7  UNL     1      16.813   9.912   9.146  1.00  0.00     0.004 C 
BRANCH  14  15
HETATM   15  C8  UNL     1      17.585  10.305  10.361  1.00  0.00     0.020 C 
BRANCH  15  16
HETATM   16  C9  UNL     1      16.691  10.671  11.523  1.00  0.00     0.122 C 
BRANCH  16  17
HETATM   17  N2  UNL     1      15.407  11.064  10.991  1.00  0.00    -0.367 N 
HETATM   18  C10 UNL     1      14.329  11.017  11.685  1.00  0.00     0.196 C 
HETATM   19  N3  UNL     1      13.103  11.419  11.098  1.00  0.00    -0.067 NA
HETATM   20  N4  UNL     1      14.414  10.559  13.025  1.00  0.00    -0.067 NA
ATOM     21  H2  UNL     1      15.356  11.393  10.027  1.00  0.00     0.161 HD
ENDBRANCH  16  17
ENDBRANCH  15  16
ENDBRANCH  14  15
ENDBRANCH  13  14
ENDBRANCH  12  13
ENDBRANCH  11  12
ENDBRANCH   3  11
BRANCH   1  22
HETATM   22  C1  UNL     1      17.420   3.854   6.605  1.00  0.00     0.235 C 
HETATM   23  N1  UNL     1      17.643   3.328   5.307  1.00  0.00    -0.062 NA
HETATM   24  O1  UNL     1      18.226   3.544   7.500  1.00  0.00    -0.276 OA
ENDBRANCH   1  22
TORSDOF 8
ENDMDL
MODEL 5
REMARK VINA RESULT: -7.366662093      1.539      1.820
REMARK  8 active torsions:
REMARK  status: ('A' for Active; 'I' for Inactive)
REMARK    1  A    between atoms: C1_2  and  C2_4 
REMARK    2  A    between atoms: C4_6  and  O2_7 
REMARK    3  A    between atoms: O2_7  and  C5_8 
REMARK    4  A    between atoms: C5_8  and  C6_9 
REMARK    5  A    between atoms: C6_9  and  C7_10 
REMARK    6  A    between atoms: C7_10  and  C8_11 
REMARK    7  A    between atoms: C8_11  and  C9_12 
REMARK    8  A    between atoms: C9_12  and  N2_13 
ROOT
HETATM    1  C2  UNL     1      17.877   6.928   5.517  1.00  0.00     0.083 C 
HETATM    2  C3  UNL     1      17.980   8.334   6.096  1.00  0.00     0.046 C 
HETATM    3  C4  UNL     1      17.432   8.157   7.499  1.00  0.00     0.127 C 
HETATM    4  C11 UNL     1      16.511   6.963   7.496  1.00  0.00     0.026 C 
HETATM    5  C12 UNL     1      16.791   6.044   8.647  1.00  0.00     0.051 C 
HETATM    6  C13 UNL     1      16.154   4.716   8.417  1.00  0.00     0.056 C 
HETATM    7  N5  UNL     1      16.525   4.111   7.210  1.00  0.00    -0.402 N 
ATOM      8  H5  UNL     1      16.832   3.139   7.181  1.00  0.00     0.158 HD
HETATM    9  C14 UNL     1      16.460   4.891   6.028  1.00  0.00     0.124 C 
HETATM   10  C15 UNL     1      16.644   6.346   6.152  1.00  0.00     0.023 C 
ENDROOT
BRANCH   3  11
HETATM   11  O2  UNL     1      16.735   9.310   7.801  1.00  0.00    -0.385 OA
BRANCH  11  12
HETATM   12  C5  UNL     1      17.304  10.103   8.767  1.00  0.00     0.168 C 
BRANCH  12  13
HETATM   13  C6  UNL     1      16.784   9.851  10.164  1.00  0.00     0.026 C 
BRANCH  13  14
HETATM   14  C7  UNL     1      15.286   9.725  10.091  1.00  0.00     0.004 C 
BRANCH  14  15
HETATM   15  C8  UNL     1      14.572  10.729  10.933  1.00  0.00     0.020 C 
BRANCH  15  16
HETATM   16  C9  UNL     1      15.005  10.683  12.381  1.00  0.00     0.122 C 
BRANCH  16  17
HETATM   17  N2  UNL     1      14.100  11.509  13.144  1.00  0.00    -0.367 N 
HETATM   18  C10 UNL     1      13.565  11.116  14.241  1.00  0.00     0.196 C 
HETATM   19  N3  UNL     1      12.685  11.980  14.939  1.00  0.00    -0.067 NA
HETATM   20  N4  UNL     1      13.884   9.816  14.714  1.00  0.00    -0.067 NA
ATOM     21  H2  UNL     1      13.877  12.442  12.797  1.00  0.00     0.161 HD
ENDBRANCH  16  17
ENDBRANCH  15  16
ENDBRANCH  14  15
ENDBRANCH  13  14
ENDBRANCH  12  13
ENDBRANCH  11  12
ENDBRANCH   3  11
BRANCH   1  22
HETATM   22  C1  UNL     1      19.131   6.257   5.777  1.00  0.00     0.235 C 
HETATM   23  N1  UNL     1      19.657   5.339   4.833  1.00  0.00    -0.062 NA
HETATM   24  O1  UNL     1      19.784   6.453   6.817  1.00  0.00    -0.276 OA
ENDBRANCH   1  22
TORSDOF 8
ENDMDL
