MODEL 1
REMARK VINA RESULT: -7.746570676      0.000      0.000
REMARK  11 active torsions:
REMARK  status: ('A' for Active; 'I' for Inactive)
REMARK    1  A    between atoms: C2_2  and  C3_3 
REMARK    2  A    between atoms: C3_3  and  C4_4 
REMARK    3  A    between atoms: C4_4  and  C5_5 
REMARK    4  A    between atoms: C5_5  and  C6_6 
REMARK    5  A    between atoms: C6_6  and  C7_7 
REMARK    6  A    between atoms: C7_7  and  C8_8 
REMARK    7  A    between atoms: C8_8  and  N1_9 
REMARK    8  A    between atoms: C9_10  and  O1_11 
REMARK    9  A    between atoms: C10_15  and  N3_16 
REMARK   10  A    between atoms: N3_16  and  C11_18 
REMARK   11  A    between atoms: C14_26  and  N6_27 
ROOT
HETATM    1  N1  UNL     1      13.715  11.202  12.760  1.00  0.00    -0.146 N 
HETATM    2  C9  UNL     1      14.416  10.091  13.151  1.00  0.00     0.252 A 
HETATM    3  N2  UNL     1      15.309   9.492  12.347  1.00  0.00    -0.154 N 
ATOM      4  H2  UNL     1      15.810   8.665  12.673  1.00  0.00     0.188 HD
HETATM    5  C10 UNL     1      15.549   9.978  11.103  1.00  0.00     0.697 A 
HETATM    6  N5  UNL     1      14.873  11.062  10.709  1.00  0.00    -0.022 N 
ATOM      7  H5  UNL     1      15.034  11.448   9.779  1.00  0.00     0.203 HD
HETATM    8  C14 UNL     1      13.974  11.655  11.532  1.00  0.00     0.695 A 
ENDROOT
BRANCH   1   9
HETATM    9  C8  UNL     1      12.770  11.786  13.684  1.00  0.00     0.151 C 
BRANCH   9  10
HETATM   10  C7  UNL     1      13.401  12.815  14.576  1.00  0.00     0.021 C 
BRANCH  10  11
HETATM   11  C6  UNL     1      12.826  12.816  15.971  1.00  0.00     0.002 C 
BRANCH  11  12
HETATM   12  C5  UNL     1      13.506  11.822  16.884  1.00  0.00     0.000 C 
BRANCH  12  13
HETATM   13  C4  UNL     1      12.553  10.788  17.409  1.00  0.00     0.000 C 
BRANCH  13  14
HETATM   14  C3  UNL     1      11.385  11.385  18.160  1.00  0.00    -0.000 C 
BRANCH  14  15
HETATM   15  C2  UNL     1      11.407  10.748  19.555  1.00  0.00    -0.005 C 
HETATM   16  C1  UNL     1      11.805  11.744  20.602  1.00  0.00     0.005 C 
ENDBRANCH  14  15
ENDBRANCH  13  14
ENDBRANCH  12  13
ENDBRANCH  11  12
ENDBRANCH  10  11
ENDBRANCH   9  10
ENDBRANCH   1   9
BRANCH   2  17
HETATM   17  O1  UNL     1      14.219   9.540  14.410  1.00  0.00    -0.331 OA
ATOM     18  H1  UNL     1      14.630   8.717  14.646  1.00  0.00     0.221 HD
ENDBRANCH   2  17
BRANCH   8  19
HETATM   19  N6  UNL     1      13.356  12.677  11.080  1.00  0.00    -0.234 N 
ATOM     20  H62 UNL     1      12.730  12.528  10.288  1.00  0.00     0.174 HD
ATOM     21  H61 UNL     1      13.488  13.591  11.513  1.00  0.00     0.174 HD
ENDBRANCH   8  19
BRANCH   5  22
HETATM   22  N3  UNL     1      16.397   9.438  10.297  1.00  0.00    -0.204 N 
ATOM     23  H3  UNL     1      17.192   8.934  10.690  1.00  0.00     0.179 HD
BRANCH  22  24
HETATM   24  C11 UNL     1      16.269   9.516   8.855  1.00  0.00     0.210 C 
HETATM   25  C12 UNL     1      17.422  10.214   8.166  1.00  0.00     0.150 C 
HETATM   26  C13 UNL     1      17.712   8.990   7.380  1.00  0.00     0.222 C 
HETATM   27  O2  UNL     1      18.514   8.754   6.454  1.00  0.00    -0.273 OA
HETATM   28  N4  UNL     1      16.712   8.327   8.157  1.00  0.00    -0.339 N 
ATOM     29  H4  UNL     1      16.414   7.352   8.204  1.00  0.00     0.164 HD
ENDBRANCH  22  24
ENDBRANCH   5  22
TORSDOF 11
ENDMDL
MODEL 2
REMARK VINA RESULT: -7.695335019      1.159      1.724
REMARK  11 active torsions:
REMARK  status: ('A' for Active; 'I' for Inactive)
REMARK    1  A    between atoms: C2_2  and  C3_3 
REMARK    2  A    between atoms: C3_3  and  C4_4 
REMARK    3  A    between atoms: C4_4  and  C5_5 
REMARK    4  A    between atoms: C5_5  and  C6_6 
REMARK    5  A    between atoms: C6_6  and  C7_7 
REMARK    6  A    between atoms: C7_7  and  C8_8 
REMARK    7  A    between atoms: C8_8  and  N1_9 
REMARK    8  A    between atoms: C9_10  and  O1_11 
REMARK    9  A    between atoms: C10_15  and  N3_16 
REMARK   10  A    between atoms: N3_16  and  C11_18 
REMARK   11  A    between atoms: C14_26  and  N6_27 
ROOT
HETATM    1  N1  UNL     1      13.734  11.132  12.584  1.00  0.00    -0.146 N 
HETATM    2  C9  UNL     1      13.868  11.528  11.279  1.00  0.00     0.252 A 
HETATM    3  N2  UNL     1      14.778  10.980  10.458  1.00  0.00    -0.154 N 
ATOM      4  H2  UNL     1      14.849  11.302   9.492  1.00  0.00     0.188 HD
HETATM    5  C10 UNL     1      15.606  10.002  10.903  1.00  0.00     0.697 A 
HETATM    6  N5  UNL     1      15.486   9.606  12.175  1.00  0.00    -0.022 N 
ATOM      7  H5  UNL     1      16.096   8.872  12.535  1.00  0.00     0.203 HD
HETATM    8  C14 UNL     1      14.562  10.169  12.992  1.00  0.00     0.695 A 
ENDROOT
BRANCH   1   9
HETATM    9  C8  UNL     1      12.731  11.773  13.404  1.00  0.00     0.151 C 
BRANCH   9  10
HETATM   10  C7  UNL     1      13.311  12.830  14.297  1.00  0.00     0.021 C 
BRANCH  10  11
HETATM   11  C6  UNL     1      12.698  12.835  15.676  1.00  0.00     0.002 C 
BRANCH  11  12
HETATM   12  C5  UNL     1      13.457  11.971  16.657  1.00  0.00     0.000 C 
BRANCH  12  13
HETATM   13  C4  UNL     1      12.598  10.889  17.242  1.00  0.00     0.000 C 
BRANCH  13  14
HETATM   14  C3  UNL     1      11.416  11.424  18.017  1.00  0.00    -0.000 C 
BRANCH  14  15
HETATM   15  C2  UNL     1      11.471  10.751  19.394  1.00  0.00    -0.005 C 
HETATM   16  C1  UNL     1      11.862  11.727  20.462  1.00  0.00     0.005 C 
ENDBRANCH  14  15
ENDBRANCH  13  14
ENDBRANCH  12  13
ENDBRANCH  11  12
ENDBRANCH  10  11
ENDBRANCH   9  10
ENDBRANCH   1   9
BRANCH   2  17
HETATM   17  O1  UNL     1      13.055  12.524  10.757  1.00  0.00    -0.331 OA
ATOM     18  H1  UNL     1      13.391  13.130  10.108  1.00  0.00     0.221 HD
ENDBRANCH   2  17
BRANCH   8  19
HETATM   19  N6  UNL     1      14.518   9.749  14.197  1.00  0.00    -0.234 N 
ATOM     20  H62 UNL     1      13.675   9.961  14.732  1.00  0.00     0.174 HD
ATOM     21  H61 UNL     1      15.296   9.216  14.584  1.00  0.00     0.174 HD
ENDBRANCH   8  19
BRANCH   5  22
HETATM   22  N3  UNL     1      16.494   9.446  10.153  1.00  0.00    -0.204 N 
ATOM     23  H3  UNL     1      17.316   9.034  10.594  1.00  0.00     0.179 HD
BRANCH  22  24
HETATM   24  C11 UNL     1      16.374   9.382   8.710  1.00  0.00     0.210 C 
HETATM   25  C12 UNL     1      17.465  10.119   7.963  1.00  0.00     0.150 C 
HETATM   26  C13 UNL     1      17.875   8.863   7.291  1.00  0.00     0.222 C 
HETATM   27  O2  UNL     1      18.705   8.620   6.392  1.00  0.00    -0.273 OA
HETATM   28  N4  UNL     1      16.933   8.181   8.123  1.00  0.00    -0.339 N 
ATOM     29  H4  UNL     1      16.726   7.192   8.257  1.00  0.00     0.164 HD
ENDBRANCH  22  24
ENDBRANCH   5  22
TORSDOF 11
ENDMDL
MODEL 3
REMARK VINA RESULT: -7.688570055      1.815      2.632
REMARK  11 active torsions:
REMARK  status: ('A' for Active; 'I' for Inactive)
REMARK    1  A    between atoms: C2_2  and  C3_3 
REMARK    2  A    between atoms: C3_3  and  C4_4 
REMARK    3  A    between atoms: C4_4  and  C5_5 
REMARK    4  A    between atoms: C5_5  and  C6_6 
REMARK    5  A    between atoms: C6_6  and  C7_7 
REMARK    6  A    between atoms: C7_7  and  C8_8 
REMARK    7  A    between atoms: C8_8  and  N1_9 
REMARK    8  A    between atoms: C9_10  and  O1_11 
REMARK    9  A    between atoms: C10_15  and  N3_16 
REMARK   10  A    between atoms: N3_16  and  C11_18 
REMARK   11  A    between atoms: C14_26  and  N6_27 
ROOT
HETATM    1  N1  UNL     1      13.968  11.547  13.097  1.00  0.00    -0.146 N 
HETATM    2  C9  UNL     1      13.881  12.137  11.862  1.00  0.00     0.252 A 
HETATM    3  N2  UNL     1      14.298  11.518  10.746  1.00  0.00    -0.154 N 
ATOM      4  H2  UNL     1      14.218  11.990   9.845  1.00  0.00     0.188 HD
HETATM    5  C10 UNL     1      14.827  10.270  10.808  1.00  0.00     0.697 A 
HETATM    6  N5  UNL     1      14.918   9.684  12.007  1.00  0.00    -0.022 N 
ATOM      7  H5  UNL     1      15.312   8.746  12.082  1.00  0.00     0.203 HD
HETATM    8  C14 UNL     1      14.492  10.321  13.124  1.00  0.00     0.695 A 
ENDROOT
BRANCH   1   9
HETATM    9  C8  UNL     1      13.498  12.282  14.250  1.00  0.00     0.151 C 
BRANCH   9  10
HETATM   10  C7  UNL     1      12.156  11.805  14.725  1.00  0.00     0.021 C 
BRANCH  10  11
HETATM   11  C6  UNL     1      11.872  12.183  16.157  1.00  0.00     0.002 C 
BRANCH  11  12
HETATM   12  C5  UNL     1      12.600  11.304  17.149  1.00  0.00     0.000 C 
BRANCH  12  13
HETATM   13  C4  UNL     1      13.296  12.104  18.211  1.00  0.00     0.000 C 
BRANCH  13  14
HETATM   14  C3  UNL     1      14.447  12.925  17.676  1.00  0.00    -0.000 C 
BRANCH  14  15
HETATM   15  C2  UNL     1      15.328  13.260  18.886  1.00  0.00    -0.005 C 
HETATM   16  C1  UNL     1      16.505  14.098  18.487  1.00  0.00     0.005 C 
ENDBRANCH  14  15
ENDBRANCH  13  14
ENDBRANCH  12  13
ENDBRANCH  11  12
ENDBRANCH  10  11
ENDBRANCH   9  10
ENDBRANCH   1   9
BRANCH   2  17
HETATM   17  O1  UNL     1      13.351  13.413  11.725  1.00  0.00    -0.331 OA
ATOM     18  H1  UNL     1      12.522  13.636  12.131  1.00  0.00     0.221 HD
ENDBRANCH   2  17
BRANCH   8  19
HETATM   19  N6  UNL     1      14.626   9.703  14.234  1.00  0.00    -0.234 N 
ATOM     20  H62 UNL     1      14.017   9.989  15.001  1.00  0.00     0.174 HD
ATOM     21  H61 UNL     1      15.309   8.952  14.324  1.00  0.00     0.174 HD
ENDBRANCH   8  19
BRANCH   5  22
HETATM   22  N3  UNL     1      15.240   9.637   9.766  1.00  0.00    -0.204 N 
ATOM     23  H3  UNL     1      14.549   9.223   9.140  1.00  0.00     0.179 HD
BRANCH  22  24
HETATM   24  C11 UNL     1      16.645   9.488   9.443  1.00  0.00     0.210 C 
HETATM   25  C12 UNL     1      16.945   8.360   8.479  1.00  0.00     0.150 C 
HETATM   26  C13 UNL     1      17.538   9.319   7.515  1.00  0.00     0.222 C 
HETATM   27  O2  UNL     1      18.136   9.164   6.432  1.00  0.00    -0.273 OA
HETATM   28  N4  UNL     1      17.106  10.367   8.387  1.00  0.00    -0.339 N 
ATOM     29  H4  UNL     1      17.118  11.383   8.297  1.00  0.00     0.164 HD
ENDBRANCH  22  24
ENDBRANCH   5  22
TORSDOF 11
ENDMDL
MODEL 4
REMARK VINA RESULT: -7.596490534      2.380      9.125
REMARK  11 active torsions:
REMARK  status: ('A' for Active; 'I' for Inactive)
REMARK    1  A    between atoms: C2_2  and  C3_3 
REMARK    2  A    between atoms: C3_3  and  C4_4 
REMARK    3  A    between atoms: C4_4  and  C5_5 
REMARK    4  A    between atoms: C5_5  and  C6_6 
REMARK    5  A    between atoms: C6_6  and  C7_7 
REMARK    6  A    between atoms: C7_7  and  C8_8 
REMARK    7  A    between atoms: C8_8  and  N1_9 
REMARK    8  A    between atoms: C9_10  and  O1_11 
REMARK    9  A    between atoms: C10_15  and  N3_16 
REMARK   10  A    between atoms: N3_16  and  C11_18 
REMARK   11  A    between atoms: C14_26  and  N6_27 
ROOT
HETATM    1  N1  UNL     1      15.122  10.507  11.523  1.00  0.00    -0.146 N 
HETATM    2  C9  UNL     1      13.982  11.246  11.338  1.00  0.00     0.252 A 
HETATM    3  N2  UNL     1      13.106  11.466  12.331  1.00  0.00    -0.154 N 
ATOM      4  H2  UNL     1      12.268  12.020  12.154  1.00  0.00     0.188 HD
HETATM    5  C10 UNL     1      13.328  10.956  13.569  1.00  0.00     0.697 A 
HETATM    6  N5  UNL     1      14.436  10.233  13.763  1.00  0.00    -0.022 N 
ATOM      7  H5  UNL     1      14.626   9.838  14.684  1.00  0.00     0.203 HD
HETATM    8  C14 UNL     1      15.311  10.020  12.750  1.00  0.00     0.695 A 
ENDROOT
BRANCH   1   9
HETATM    9  C8  UNL     1      16.013  10.314  10.401  1.00  0.00     0.151 C 
BRANCH   9  10
HETATM   10  C7  UNL     1      15.671   9.091   9.601  1.00  0.00     0.021 C 
BRANCH  10  11
HETATM   11  C6  UNL     1      16.857   8.189   9.370  1.00  0.00     0.002 C 
BRANCH  11  12
HETATM   12  C5  UNL     1      18.044   8.922   8.785  1.00  0.00     0.000 C 
BRANCH  12  13
HETATM   13  C4  UNL     1      17.806   9.344   7.365  1.00  0.00     0.000 C 
BRANCH  13  14
HETATM   14  C3  UNL     1      18.492   8.450   6.357  1.00  0.00    -0.000 C 
BRANCH  14  15
HETATM   15  C2  UNL     1      17.396   7.980   5.392  1.00  0.00    -0.005 C 
HETATM   16  C1  UNL     1      16.695   6.763   5.916  1.00  0.00     0.005 C 
ENDBRANCH  14  15
ENDBRANCH  13  14
ENDBRANCH  12  13
ENDBRANCH  11  12
ENDBRANCH  10  11
ENDBRANCH   9  10
ENDBRANCH   1   9
BRANCH   2  17
HETATM   17  O1  UNL     1      13.693  11.796  10.097  1.00  0.00    -0.331 OA
ATOM     18  H1  UNL     1      14.090  12.616   9.828  1.00  0.00     0.221 HD
ENDBRANCH   2  17
BRANCH   8  19
HETATM   19  N6  UNL     1      16.338   9.307  13.009  1.00  0.00    -0.234 N 
ATOM     20  H62 UNL     1      16.261   8.303  12.845  1.00  0.00     0.174 HD
ATOM     21  H61 UNL     1      17.193   9.744  13.352  1.00  0.00     0.174 HD
ENDBRANCH   8  19
BRANCH   5  22
HETATM   22  N3  UNL     1      12.517  11.140  14.552  1.00  0.00    -0.204 N 
ATOM     23  H3  UNL     1      11.522  10.972  14.403  1.00  0.00     0.179 HD
BRANCH  22  24
HETATM   24  C11 UNL     1      12.958  11.577  15.862  1.00  0.00     0.210 C 
HETATM   25  C12 UNL     1      11.893  12.287  16.671  1.00  0.00     0.150 C 
HETATM   26  C13 UNL     1      12.002  11.265  17.740  1.00  0.00     0.222 C 
HETATM   27  O2  UNL     1      11.486  11.171  18.872  1.00  0.00    -0.273 OA
HETATM   28  N4  UNL     1      12.894  10.550  16.882  1.00  0.00    -0.339 N 
ATOM     29  H4  UNL     1      13.334   9.632  16.959  1.00  0.00     0.164 HD
ENDBRANCH  22  24
ENDBRANCH   5  22
TORSDOF 11
ENDMDL
MODEL 5
REMARK VINA RESULT: -7.548478812      1.442      1.995
REMARK  11 active torsions:
REMARK  status: ('A' for Active; 'I' for Inactive)
REMARK    1  A    between atoms: C2_2  and  C3_3 
REMARK    2  A    between atoms: C3_3  and  C4_4 
REMARK    3  A    between atoms: C4_4  and  C5_5 
REMARK    4  A    between atoms: C5_5  and  C6_6 
REMARK    5  A    between atoms: C6_6  and  C7_7 
REMARK    6  A    between atoms: C7_7  and  C8_8 
REMARK    7  A    between atoms: C8_8  and  N1_9 
REMARK    8  A    between atoms: C9_10  and  O1_11 
REMARK    9  A    between atoms: C10_15  and  N3_16 
REMARK   10  A    between atoms: N3_16  and  C11_18 
REMARK   11  A    between atoms: C14_26  and  N6_27 
ROOT
HETATM    1  N1  UNL     1      13.601  11.372  13.046  1.00  0.00    -0.146 N 
HETATM    2  C9  UNL     1      14.300  10.248  13.403  1.00  0.00     0.252 A 
HETATM    3  N2  UNL     1      15.212   9.688  12.592  1.00  0.00    -0.154 N 
ATOM      4  H2  UNL     1      15.712   8.851  12.893  1.00  0.00     0.188 HD
HETATM    5  C10 UNL     1      15.473  10.227  11.375  1.00  0.00     0.697 A 
HETATM    6  N5  UNL     1      14.797  11.324  11.014  1.00  0.00    -0.022 N 
ATOM      7  H5  UNL     1      14.974  11.749  10.104  1.00  0.00     0.203 HD
HETATM    8  C14 UNL     1      13.880  11.877  11.844  1.00  0.00     0.695 A 
ENDROOT
BRANCH   1   9
HETATM    9  C8  UNL     1      12.635  11.912  13.976  1.00  0.00     0.151 C 
BRANCH   9  10
HETATM   10  C7  UNL     1      13.263  12.820  14.992  1.00  0.00     0.021 C 
BRANCH  10  11
HETATM   11  C6  UNL     1      12.702  12.628  16.379  1.00  0.00     0.002 C 
BRANCH  11  12
HETATM   12  C5  UNL     1      13.729  12.108  17.358  1.00  0.00     0.000 C 
BRANCH  12  13
HETATM   13  C4  UNL     1      13.471  12.586  18.758  1.00  0.00     0.000 C 
BRANCH  13  14
HETATM   14  C3  UNL     1      14.640  13.338  19.352  1.00  0.00    -0.000 C 
BRANCH  14  15
HETATM   15  C2  UNL     1      15.736  13.335  18.279  1.00  0.00    -0.005 C 
HETATM   16  C1  UNL     1      16.734  14.428  18.518  1.00  0.00     0.005 C 
ENDBRANCH  14  15
ENDBRANCH  13  14
ENDBRANCH  12  13
ENDBRANCH  11  12
ENDBRANCH  10  11
ENDBRANCH   9  10
ENDBRANCH   1   9
BRANCH   2  17
HETATM   17  O1  UNL     1      14.083   9.644  14.634  1.00  0.00    -0.331 OA
ATOM     18  H1  UNL     1      13.673   8.789  14.686  1.00  0.00     0.221 HD
ENDBRANCH   2  17
BRANCH   8  19
HETATM   19  N6  UNL     1      13.265  12.914  11.423  1.00  0.00    -0.234 N 
ATOM     20  H62 UNL     1      12.444  13.213  11.950  1.00  0.00     0.174 HD
ATOM     21  H61 UNL     1      13.602  13.413  10.600  1.00  0.00     0.174 HD
ENDBRANCH   8  19
BRANCH   5  22
HETATM   22  N3  UNL     1      16.338   9.726  10.563  1.00  0.00    -0.204 N 
ATOM     23  H3  UNL     1      17.179   9.297  10.950  1.00  0.00     0.179 HD
BRANCH  22  24
HETATM   24  C11 UNL     1      16.168   9.745   9.124  1.00  0.00     0.210 C 
HETATM   25  C12 UNL     1      17.395  10.196   8.359  1.00  0.00     0.150 C 
HETATM   26  C13 UNL     1      17.443   8.900   7.641  1.00  0.00     0.222 C 
HETATM   27  O2  UNL     1      18.156   8.480   6.708  1.00  0.00    -0.273 OA
HETATM   28  N4  UNL     1      16.377   8.461   8.486  1.00  0.00    -0.339 N 
ATOM     29  H4  UNL     1      15.920   7.556   8.601  1.00  0.00     0.164 HD
ENDBRANCH  22  24
ENDBRANCH   5  22
TORSDOF 11
ENDMDL
