MODEL 1
REMARK VINA RESULT: -6.527440698      0.000      0.000
REMARK  12 active torsions:
REMARK  status: ('A' for Active; 'I' for Inactive)
REMARK    1  A    between atoms: C2_2  and  N1_3 
REMARK    2  A    between atoms: N1_3  and  C3_4 
REMARK    3  A    between atoms: C3_4  and  C4_5 
REMARK    4  A    between atoms: C4_5  and  C5_6 
REMARK    5  A    between atoms: C5_6  and  C6_7 
REMARK    6  A    between atoms: C6_7  and  N2_8 
REMARK    7  A    between atoms: N2_8  and  C9_11 
REMARK    8  A    between atoms: C9_11  and  C10_12 
REMARK    9  A    between atoms: C10_12  and  O1_13 
REMARK   10  A    between atoms: C13_17  and  O2_18 
REMARK   11  A    between atoms: C14_20  and  O3_21 
REMARK   12  A    between atoms: C15_23  and  O4_24 
ROOT
HETATM    1  N1  UNL     1      17.454   6.342   7.149  1.00  0.00    -0.039 N 
HETATM    2  C11 UNL     1      18.794   6.632   6.712  1.00  0.00     0.243 C 
HETATM    3  C12 UNL     1      19.548   5.506   6.120  1.00  0.00     0.062 C 
HETATM    4  C13 UNL     1      18.774   4.606   5.224  1.00  0.00     0.152 C 
HETATM    5  C14 UNL     1      17.334   4.451   5.557  1.00  0.00     0.203 C 
HETATM    6  C15 UNL     1      16.679   5.621   6.175  1.00  0.00     0.354 C 
ENDROOT
BRANCH   1   7
HETATM    7  C2  UNL     1      17.340   5.820   8.463  1.00  0.00     0.236 C 
HETATM    8  C1  UNL     1      16.004   5.309   8.872  1.00  0.00     0.035 C 
ENDBRANCH   1   7
BRANCH   1   9
HETATM    9  C3  UNL     1      16.810   7.676   7.198  1.00  0.00     0.240 C 
BRANCH   9  10
HETATM   10  C4  UNL     1      17.800   8.782   7.313  1.00  0.00     0.030 C 
BRANCH  10  11
HETATM   11  C5  UNL     1      17.195   9.790   8.299  1.00  0.00     0.029 C 
BRANCH  11  12
HETATM   12  C6  UNL     1      17.707   9.412   9.670  1.00  0.00     0.236 C 
BRANCH  12  13
HETATM   13  N2  UNL     1      16.698   9.458  10.684  1.00  0.00    -0.073 N 
HETATM   14  C7  UNL     1      16.526   8.112  11.243  1.00  0.00     0.272 C 
HETATM   15  C8  UNL     1      17.034  10.325  11.784  1.00  0.00     0.272 C 
BRANCH  13  16
HETATM   16  C9  UNL     1      15.446   9.812  10.071  1.00  0.00     0.262 C 
BRANCH  16  17
HETATM   17  C10 UNL     1      14.579  10.678  10.944  1.00  0.00     0.192 C 
BRANCH  17  18
HETATM   18  O1  UNL     1      13.239  10.629  10.593  1.00  0.00    -0.399 OA
ATOM     19  H1  UNL     1      12.687  11.151  11.163  1.00  0.00     0.209 HD
ENDBRANCH  17  18
ENDBRANCH  16  17
ENDBRANCH  13  16
ENDBRANCH  12  13
ENDBRANCH  11  12
ENDBRANCH  10  11
ENDBRANCH   9  10
ENDBRANCH   1   9
BRANCH   6  20
HETATM   20  O4  UNL     1      16.338   6.521   5.138  1.00  0.00    -0.367 OA
ATOM     21  H4  UNL     1      15.522   6.945   5.376  1.00  0.00     0.212 HD
ENDBRANCH   6  20
BRANCH   5  22
HETATM   22  O3  UNL     1      17.113   3.264   6.287  1.00  0.00    -0.389 OA
ATOM     23  H3  UNL     1      16.576   2.657   5.791  1.00  0.00     0.210 HD
ENDBRANCH   5  22
BRANCH   4  24
HETATM   24  O2  UNL     1      18.938   4.992   3.873  1.00  0.00    -0.393 OA
ATOM     25  H2  UNL     1      19.407   4.321   3.390  1.00  0.00     0.210 HD
ENDBRANCH   4  24
TORSDOF 12
ENDMDL
MODEL 2
REMARK VINA RESULT: -6.330952595      1.828      6.802
REMARK  12 active torsions:
REMARK  status: ('A' for Active; 'I' for Inactive)
REMARK    1  A    between atoms: C2_2  and  N1_3 
REMARK    2  A    between atoms: N1_3  and  C3_4 
REMARK    3  A    between atoms: C3_4  and  C4_5 
REMARK    4  A    between atoms: C4_5  and  C5_6 
REMARK    5  A    between atoms: C5_6  and  C6_7 
REMARK    6  A    between atoms: C6_7  and  N2_8 
REMARK    7  A    between atoms: N2_8  and  C9_11 
REMARK    8  A    between atoms: C9_11  and  C10_12 
REMARK    9  A    between atoms: C10_12  and  O1_13 
REMARK   10  A    between atoms: C13_17  and  O2_18 
REMARK   11  A    between atoms: C14_20  and  O3_21 
REMARK   12  A    between atoms: C15_23  and  O4_24 
ROOT
HETATM    1  N1  UNL     1      17.358   9.251   9.775  1.00  0.00    -0.039 N 
HETATM    2  C11 UNL     1      16.018   9.377   9.267  1.00  0.00     0.243 C 
HETATM    3  C12 UNL     1      14.954   9.592  10.272  1.00  0.00     0.062 C 
HETATM    4  C13 UNL     1      15.293  10.513  11.389  1.00  0.00     0.152 C 
HETATM    5  C14 UNL     1      16.722  10.532  11.796  1.00  0.00     0.203 C 
HETATM    6  C15 UNL     1      17.707  10.274  10.725  1.00  0.00     0.354 C 
ENDROOT
BRANCH   1   7
HETATM    7  C2  UNL     1      17.738   7.946  10.181  1.00  0.00     0.236 C 
HETATM    8  C1  UNL     1      16.693   6.889  10.121  1.00  0.00     0.035 C 
ENDBRANCH   1   7
BRANCH   1   9
HETATM    9  C3  UNL     1      18.204   9.559   8.597  1.00  0.00     0.240 C 
BRANCH   9  10
HETATM   10  C4  UNL     1      17.530   9.229   7.312  1.00  0.00     0.030 C 
BRANCH  10  11
HETATM   11  C5  UNL     1      18.519   8.354   6.529  1.00  0.00     0.029 C 
BRANCH  11  12
HETATM   12  C6  UNL     1      17.690   7.351   5.760  1.00  0.00     0.236 C 
BRANCH  12  13
HETATM   13  N2  UNL     1      17.893   6.001   6.190  1.00  0.00    -0.073 N 
HETATM   14  C7  UNL     1      18.909   5.987   7.249  1.00  0.00     0.272 C 
HETATM   15  C8  UNL     1      16.709   5.394   6.743  1.00  0.00     0.272 C 
BRANCH  13  16
HETATM   16  C9  UNL     1      18.434   5.245   5.092  1.00  0.00     0.262 C 
BRANCH  16  17
HETATM   17  C10 UNL     1      17.711   3.948   4.848  1.00  0.00     0.192 C 
BRANCH  17  18
HETATM   18  O1  UNL     1      17.686   3.587   3.510  1.00  0.00    -0.399 OA
ATOM     19  H1  UNL     1      16.810   3.584   3.143  1.00  0.00     0.209 HD
ENDBRANCH  17  18
ENDBRANCH  16  17
ENDBRANCH  13  16
ENDBRANCH  12  13
ENDBRANCH  11  12
ENDBRANCH  10  11
ENDBRANCH   9  10
ENDBRANCH   1   9
BRANCH   6  20
HETATM   20  O4  UNL     1      17.898  11.482  10.015  1.00  0.00    -0.367 OA
ATOM     21  H4  UNL     1      18.740  11.840  10.269  1.00  0.00     0.212 HD
ENDBRANCH   6  20
BRANCH   5  22
HETATM   22  O3  UNL     1      16.933   9.715  12.928  1.00  0.00    -0.389 OA
ATOM     23  H3  UNL     1      17.360  10.204  13.622  1.00  0.00     0.210 HD
ENDBRANCH   5  22
BRANCH   4  24
HETATM   24  O2  UNL     1      14.834  11.821  11.110  1.00  0.00    -0.393 OA
ATOM     25  H2  UNL     1      15.522  12.457  11.272  1.00  0.00     0.210 HD
ENDBRANCH   4  24
TORSDOF 12
ENDMDL
MODEL 3
REMARK VINA RESULT: -6.277567778      4.636      7.012
REMARK  12 active torsions:
REMARK  status: ('A' for Active; 'I' for Inactive)
REMARK    1  A    between atoms: C2_2  and  N1_3 
REMARK    2  A    between atoms: N1_3  and  C3_4 
REMARK    3  A    between atoms: C3_4  and  C4_5 
REMARK    4  A    between atoms: C4_5  and  C5_6 
REMARK    5  A    between atoms: C5_6  and  C6_7 
REMARK    6  A    between atoms: C6_7  and  N2_8 
REMARK    7  A    between atoms: N2_8  and  C9_11 
REMARK    8  A    between atoms: C9_11  and  C10_12 
REMARK    9  A    between atoms: C10_12  and  O1_13 
REMARK   10  A    between atoms: C13_17  and  O2_18 
REMARK   11  A    between atoms: C14_20  and  O3_21 
REMARK   12  A    between atoms: C15_23  and  O4_24 
ROOT
HETATM    1  N1  UNL     1      15.850   9.869  11.663  1.00  0.00    -0.039 N 
HETATM    2  C11 UNL     1      17.008  10.701  11.476  1.00  0.00     0.243 C 
HETATM    3  C12 UNL     1      17.901  10.337  10.354  1.00  0.00     0.062 C 
HETATM    4  C13 UNL     1      17.228   9.906   9.102  1.00  0.00     0.152 C 
HETATM    5  C14 UNL     1      15.926   9.210   9.278  1.00  0.00     0.203 C 
HETATM    6  C15 UNL     1      15.122   9.621  10.447  1.00  0.00     0.354 C 
ENDROOT
BRANCH   1   7
HETATM    7  C2  UNL     1      16.053   8.705  12.449  1.00  0.00     0.236 C 
HETATM    8  C1  UNL     1      17.448   8.413  12.874  1.00  0.00     0.035 C 
ENDBRANCH   1   7
BRANCH   1   9
HETATM    9  C3  UNL     1      14.935  10.724  12.456  1.00  0.00     0.240 C 
BRANCH   9  10
HETATM   10  C4  UNL     1      14.456  10.050  13.693  1.00  0.00     0.030 C 
BRANCH  10  11
HETATM   11  C5  UNL     1      13.652  11.105  14.465  1.00  0.00     0.029 C 
BRANCH  11  12
HETATM   12  C6  UNL     1      13.562  10.618  15.893  1.00  0.00     0.236 C 
BRANCH  12  13
HETATM   13  N2  UNL     1      12.907  11.542  16.767  1.00  0.00    -0.073 N 
HETATM   14  C7  UNL     1      13.923  12.275  17.532  1.00  0.00     0.272 C 
HETATM   15  C8  UNL     1      12.121  12.528  16.070  1.00  0.00     0.272 C 
BRANCH  13  16
HETATM   16  C9  UNL     1      12.130  10.800  17.723  1.00  0.00     0.262 C 
BRANCH  16  17
HETATM   17  C10 UNL     1      12.023  11.479  19.062  1.00  0.00     0.192 C 
BRANCH  17  18
HETATM   18  O1  UNL     1      10.732  11.484  19.563  1.00  0.00    -0.399 OA
ATOM     19  H1  UNL     1      10.141  10.925  19.071  1.00  0.00     0.209 HD
ENDBRANCH  17  18
ENDBRANCH  16  17
ENDBRANCH  13  16
ENDBRANCH  12  13
ENDBRANCH  11  12
ENDBRANCH  10  11
ENDBRANCH   9  10
ENDBRANCH   1   9
BRANCH   6  20
HETATM   20  O4  UNL     1      14.435  10.808  10.101  1.00  0.00    -0.367 OA
ATOM     21  H4  UNL     1      14.937  11.543  10.432  1.00  0.00     0.212 HD
ENDBRANCH   6  20
BRANCH   5  22
HETATM   22  O3  UNL     1      16.091   7.810   9.205  1.00  0.00    -0.389 OA
ATOM     23  H3  UNL     1      15.517   7.436   8.547  1.00  0.00     0.210 HD
ENDBRANCH   5  22
BRANCH   4  24
HETATM   24  O2  UNL     1      17.097  10.994   8.209  1.00  0.00    -0.393 OA
ATOM     25  H2  UNL     1      17.632  11.726   8.495  1.00  0.00     0.210 HD
ENDBRANCH   4  24
TORSDOF 12
ENDMDL
MODEL 4
REMARK VINA RESULT: -6.233929012      1.475      2.486
REMARK  12 active torsions:
REMARK  status: ('A' for Active; 'I' for Inactive)
REMARK    1  A    between atoms: C2_2  and  N1_3 
REMARK    2  A    between atoms: N1_3  and  C3_4 
REMARK    3  A    between atoms: C3_4  and  C4_5 
REMARK    4  A    between atoms: C4_5  and  C5_6 
REMARK    5  A    between atoms: C5_6  and  C6_7 
REMARK    6  A    between atoms: C6_7  and  N2_8 
REMARK    7  A    between atoms: N2_8  and  C9_11 
REMARK    8  A    between atoms: C9_11  and  C10_12 
REMARK    9  A    between atoms: C10_12  and  O1_13 
REMARK   10  A    between atoms: C13_17  and  O2_18 
REMARK   11  A    between atoms: C14_20  and  O3_21 
REMARK   12  A    between atoms: C15_23  and  O4_24 
ROOT
HETATM    1  N1  UNL     1      17.382   6.139   6.802  1.00  0.00    -0.039 N 
HETATM    2  C11 UNL     1      16.637   4.956   7.143  1.00  0.00     0.243 C 
HETATM    3  C12 UNL     1      16.804   3.795   6.241  1.00  0.00     0.062 C 
HETATM    4  C13 UNL     1      18.184   3.549   5.748  1.00  0.00     0.152 C 
HETATM    5  C14 UNL     1      19.030   4.758   5.575  1.00  0.00     0.203 C 
HETATM    6  C15 UNL     1      18.765   5.876   6.503  1.00  0.00     0.354 C 
ENDROOT
BRANCH   1   7
HETATM    7  C2  UNL     1      16.756   7.009   5.872  1.00  0.00     0.236 C 
HETATM    8  C1  UNL     1      17.548   8.177   5.403  1.00  0.00     0.035 C 
ENDBRANCH   1   7
BRANCH   1   9
HETATM    9  C3  UNL     1      17.433   6.894   8.076  1.00  0.00     0.240 C 
BRANCH   9  10
HETATM   10  C4  UNL     1      16.078   7.188   8.617  1.00  0.00     0.030 C 
BRANCH  10  11
HETATM   11  C5  UNL     1      16.133   8.632   9.134  1.00  0.00     0.029 C 
BRANCH  11  12
HETATM   12  C6  UNL     1      16.028   8.554  10.640  1.00  0.00     0.236 C 
BRANCH  12  13
HETATM   13  N2  UNL     1      15.729   9.812  11.253  1.00  0.00    -0.073 N 
HETATM   14  C7  UNL     1      15.322   9.578  12.644  1.00  0.00     0.272 C 
HETATM   15  C8  UNL     1      16.855  10.709  11.295  1.00  0.00     0.272 C 
BRANCH  13  16
HETATM   16  C9  UNL     1      14.593  10.391  10.586  1.00  0.00     0.262 C 
BRANCH  16  17
HETATM   17  C10 UNL     1      13.931  11.486  11.377  1.00  0.00     0.192 C 
BRANCH  17  18
HETATM   18  O1  UNL     1      13.156  12.325  10.593  1.00  0.00    -0.399 OA
ATOM     19  H1  UNL     1      13.081  13.202  10.951  1.00  0.00     0.209 HD
ENDBRANCH  17  18
ENDBRANCH  16  17
ENDBRANCH  13  16
ENDBRANCH  12  13
ENDBRANCH  11  12
ENDBRANCH  10  11
ENDBRANCH   9  10
ENDBRANCH   1   9
BRANCH   6  20
HETATM   20  O4  UNL     1      19.428   5.592   7.719  1.00  0.00    -0.367 OA
ATOM     21  H4  UNL     1      20.215   6.122   7.754  1.00  0.00     0.212 HD
ENDBRANCH   6  20
BRANCH   5  22
HETATM   22  O3  UNL     1      19.044   5.172   4.225  1.00  0.00    -0.389 OA
ATOM     23  H3  UNL     1      18.178   5.103   3.841  1.00  0.00     0.210 HD
ENDBRANCH   5  22
BRANCH   4  24
HETATM   24  O2  UNL     1      18.837   2.592   6.558  1.00  0.00    -0.393 OA
ATOM     25  H2  UNL     1      19.704   2.404   6.218  1.00  0.00     0.210 HD
ENDBRANCH   4  24
TORSDOF 12
ENDMDL
MODEL 5
REMARK VINA RESULT: -6.202950738      1.334      2.513
REMARK  12 active torsions:
REMARK  status: ('A' for Active; 'I' for Inactive)
REMARK    1  A    between atoms: C2_2  and  N1_3 
REMARK    2  A    between atoms: N1_3  and  C3_4 
REMARK    3  A    between atoms: C3_4  and  C4_5 
REMARK    4  A    between atoms: C4_5  and  C5_6 
REMARK    5  A    between atoms: C5_6  and  C6_7 
REMARK    6  A    between atoms: C6_7  and  N2_8 
REMARK    7  A    between atoms: N2_8  and  C9_11 
REMARK    8  A    between atoms: C9_11  and  C10_12 
REMARK    9  A    between atoms: C10_12  and  O1_13 
REMARK   10  A    between atoms: C13_17  and  O2_18 
REMARK   11  A    between atoms: C14_20  and  O3_21 
REMARK   12  A    between atoms: C15_23  and  O4_24 
ROOT
HETATM    1  N1  UNL     1      17.514   6.009   6.683  1.00  0.00    -0.039 N 
HETATM    2  C11 UNL     1      16.824   4.776   6.954  1.00  0.00     0.243 C 
HETATM    3  C12 UNL     1      17.037   3.680   5.983  1.00  0.00     0.062 C 
HETATM    4  C13 UNL     1      18.424   3.526   5.471  1.00  0.00     0.152 C 
HETATM    5  C14 UNL     1      19.214   4.780   5.369  1.00  0.00     0.203 C 
HETATM    6  C15 UNL     1      18.905   5.827   6.364  1.00  0.00     0.354 C 
ENDROOT
BRANCH   1   7
HETATM    7  C2  UNL     1      16.845   6.905   5.809  1.00  0.00     0.236 C 
HETATM    8  C1  UNL     1      17.550   8.169   5.470  1.00  0.00     0.035 C 
ENDBRANCH   1   7
BRANCH   1   9
HETATM    9  C3  UNL     1      17.538   6.688   8.000  1.00  0.00     0.240 C 
BRANCH   9  10
HETATM   10  C4  UNL     1      16.420   6.256   8.883  1.00  0.00     0.030 C 
BRANCH  10  11
HETATM   11  C5  UNL     1      16.531   7.110  10.153  1.00  0.00     0.029 C 
BRANCH  11  12
HETATM   12  C6  UNL     1      17.480   8.241   9.830  1.00  0.00     0.236 C 
BRANCH  12  13
HETATM   13  N2  UNL     1      17.044   9.508  10.335  1.00  0.00    -0.073 N 
HETATM   14  C7  UNL     1      16.909   9.416  11.794  1.00  0.00     0.272 C 
HETATM   15  C8  UNL     1      17.972  10.578  10.071  1.00  0.00     0.272 C 
BRANCH  13  16
HETATM   16  C9  UNL     1      15.731   9.782   9.817  1.00  0.00     0.262 C 
BRANCH  16  17
HETATM   17  C10 UNL     1      14.796  10.366  10.842  1.00  0.00     0.192 C 
BRANCH  17  18
HETATM   18  O1  UNL     1      13.502  10.515  10.369  1.00  0.00    -0.399 OA
ATOM     19  H1  UNL     1      12.989  11.128  10.883  1.00  0.00     0.209 HD
ENDBRANCH  17  18
ENDBRANCH  16  17
ENDBRANCH  13  16
ENDBRANCH  12  13
ENDBRANCH  11  12
ENDBRANCH  10  11
ENDBRANCH   9  10
ENDBRANCH   1   9
BRANCH   6  20
HETATM   20  O4  UNL     1      19.587   5.500   7.559  1.00  0.00    -0.367 OA
ATOM     21  H4  UNL     1      19.228   6.036   8.256  1.00  0.00     0.212 HD
ENDBRANCH   6  20
BRANCH   5  22
HETATM   22  O3  UNL     1      19.203   5.274   4.047  1.00  0.00    -0.389 OA
ATOM     23  H3  UNL     1      20.041   5.661   3.824  1.00  0.00     0.210 HD
ENDBRANCH   5  22
BRANCH   4  24
HETATM   24  O2  UNL     1      19.123   2.552   6.221  1.00  0.00    -0.393 OA
ATOM     25  H2  UNL     1      19.374   1.822   5.666  1.00  0.00     0.210 HD
ENDBRANCH   4  24
TORSDOF 12
ENDMDL
