MODEL 1
REMARK VINA RESULT: -7.464572766      0.000      0.000
REMARK  10 active torsions:
REMARK  status: ('A' for Active; 'I' for Inactive)
REMARK    1  A    between atoms: C2_2  and  C4_4 
REMARK    2  A    between atoms: C4_4  and  C5_5 
REMARK    3  A    between atoms: C5_5  and  N1_6 
REMARK    4  A    between atoms: C5_5  and  C19_29 
REMARK       I    between atoms: N1_6  and  C6_8 
REMARK    5  A    between atoms: C6_8  and  C7_10 
REMARK    6  A    between atoms: C7_10  and  N2_11 
REMARK    7  A    between atoms: C7_10  and  C13_23 
REMARK       I    between atoms: N2_11  and  C8_13 
REMARK    8  A    between atoms: C8_13  and  C9_15 
REMARK    9  A    between atoms: C9_15  and  N3_16 
REMARK   10  A    between atoms: C9_15  and  C10_20 
ROOT
HETATM    1  C7  UNL     1      16.292   8.293  13.082  1.00  0.00     0.180 C 
ENDROOT
BRANCH   1   2
HETATM    2  C6  UNL     1      15.031   8.906  13.598  1.00  0.00     0.241 C 
HETATM    3  N1  UNL     1      14.708  10.234  13.187  1.00  0.00    -0.346 N 
ATOM      4  H1  UNL     1      15.337  10.732  12.557  1.00  0.00     0.163 HD
HETATM    5  O1  UNL     1      14.252   8.299  14.374  1.00  0.00    -0.271 OA
BRANCH   3   6
HETATM    6  C5  UNL     1      13.476  10.898  13.663  1.00  0.00     0.174 C 
BRANCH   6   7
HETATM    7  C4  UNL     1      13.714  11.510  15.002  1.00  0.00     0.038 C 
BRANCH   7   8
HETATM    8  C2  UNL     1      12.688  11.294  16.044  1.00  0.00    -0.020 C 
HETATM    9  C1  UNL     1      12.272  12.684  16.575  1.00  0.00     0.009 C 
HETATM   10  C3  UNL     1      13.299  10.529  17.209  1.00  0.00     0.009 C 
ENDBRANCH   7   8
ENDBRANCH   6   7
BRANCH   6  11
HETATM   11  C19 UNL     1      13.095  11.827  12.593  1.00  0.00     0.254 C 
HETATM   12  N4  UNL     1      12.939  11.388  11.266  1.00  0.00    -0.060 NA
HETATM   13  O3  UNL     1      12.898  13.046  12.824  1.00  0.00    -0.275 OA
ENDBRANCH   6  11
ENDBRANCH   3   6
ENDBRANCH   1   2
BRANCH   1  14
HETATM   14  N2  UNL     1      16.554   8.878  11.804  1.00  0.00    -0.346 N 
HETATM   15  C8  UNL     1      17.875   9.078  11.333  1.00  0.00     0.249 C 
HETATM   16  O2  UNL     1      18.875   8.742  12.029  1.00  0.00    -0.271 OA
ATOM     17  H2  UNL     1      15.770   9.159  11.217  1.00  0.00     0.163 HD
BRANCH  15  18
HETATM   18  C9  UNL     1      18.147   9.685  10.004  1.00  0.00     0.278 C 
BRANCH  18  19
HETATM   19  N3  UNL     1      17.532  11.002   9.917  1.00  0.00    -0.066 N 
ATOM     20  H33 UNL     1      16.628  11.033  10.388  1.00  0.00     0.275 HD
ATOM     21  H32 UNL     1      18.022  11.690  10.489  1.00  0.00     0.275 HD
ATOM     22  H31 UNL     1      17.463  11.296   8.943  1.00  0.00     0.275 HD
ENDBRANCH  18  19
BRANCH  18  23
HETATM   23  C10 UNL     1      17.620   8.750   8.949  1.00  0.00     0.017 C 
HETATM   24  C11 UNL     1      17.681   9.411   7.572  1.00  0.00     0.012 C 
HETATM   25  C12 UNL     1      18.576   7.575   8.868  1.00  0.00     0.012 C 
ENDBRANCH  18  23
ENDBRANCH  15  18
ENDBRANCH   1  14
BRANCH   1  26
HETATM   26  C13 UNL     1      16.129   6.766  12.988  1.00  0.00     0.018 C 
HETATM   27  C14 UNL     1      16.098   6.292  11.587  1.00  0.00     0.007 C 
HETATM   28  C15 UNL     1      17.004   5.116  11.308  1.00  0.00     0.000 C 
HETATM   29  C16 UNL     1      16.825   4.139  12.461  1.00  0.00     0.000 C 
HETATM   30  C17 UNL     1      17.552   4.766  13.631  1.00  0.00     0.000 C 
HETATM   31  C18 UNL     1      17.178   6.179  13.857  1.00  0.00     0.007 C 
ENDBRANCH   1  26
TORSDOF 10
ENDMDL
MODEL 2
REMARK VINA RESULT: -7.408218507      1.046      1.307
REMARK  10 active torsions:
REMARK  status: ('A' for Active; 'I' for Inactive)
REMARK    1  A    between atoms: C2_2  and  C4_4 
REMARK    2  A    between atoms: C4_4  and  C5_5 
REMARK    3  A    between atoms: C5_5  and  N1_6 
REMARK    4  A    between atoms: C5_5  and  C19_29 
REMARK       I    between atoms: N1_6  and  C6_8 
REMARK    5  A    between atoms: C6_8  and  C7_10 
REMARK    6  A    between atoms: C7_10  and  N2_11 
REMARK    7  A    between atoms: C7_10  and  C13_23 
REMARK       I    between atoms: N2_11  and  C8_13 
REMARK    8  A    between atoms: C8_13  and  C9_15 
REMARK    9  A    between atoms: C9_15  and  N3_16 
REMARK   10  A    between atoms: C9_15  and  C10_20 
ROOT
HETATM    1  C7  UNL     1      16.098   8.408  13.236  1.00  0.00     0.180 C 
ENDROOT
BRANCH   1   2
HETATM    2  C6  UNL     1      14.840   9.029  13.751  1.00  0.00     0.241 C 
HETATM    3  N1  UNL     1      14.535  10.365  13.353  1.00  0.00    -0.346 N 
ATOM      4  H1  UNL     1      15.174  10.864  12.733  1.00  0.00     0.163 HD
HETATM    5  O1  UNL     1      14.049   8.422  14.515  1.00  0.00    -0.271 OA
BRANCH   3   6
HETATM    6  C5  UNL     1      13.307  11.038  13.828  1.00  0.00     0.174 C 
BRANCH   6   7
HETATM    7  C4  UNL     1      13.546  11.642  15.171  1.00  0.00     0.038 C 
BRANCH   7   8
HETATM    8  C2  UNL     1      12.621  11.269  16.262  1.00  0.00    -0.020 C 
HETATM    9  C1  UNL     1      12.136  12.579  16.921  1.00  0.00     0.009 C 
HETATM   10  C3  UNL     1      13.376  10.482  17.323  1.00  0.00     0.009 C 
ENDBRANCH   7   8
ENDBRANCH   6   7
BRANCH   6  11
HETATM   11  C19 UNL     1      12.937  11.975  12.761  1.00  0.00     0.254 C 
HETATM   12  N4  UNL     1      12.744  11.536  11.439  1.00  0.00    -0.060 NA
HETATM   13  O3  UNL     1      12.783  13.201  12.991  1.00  0.00    -0.275 OA
ENDBRANCH   6  11
ENDBRANCH   3   6
ENDBRANCH   1   2
BRANCH   1  14
HETATM   14  N2  UNL     1      16.027   8.431  11.809  1.00  0.00    -0.346 N 
HETATM   15  C8  UNL     1      16.596   9.484  11.051  1.00  0.00     0.249 C 
HETATM   16  O2  UNL     1      17.191  10.446  11.614  1.00  0.00    -0.271 OA
ATOM     17  H2  UNL     1      15.554   7.669  11.324  1.00  0.00     0.163 HD
BRANCH  15  18
HETATM   18  C9  UNL     1      16.522   9.507   9.567  1.00  0.00     0.278 C 
BRANCH  18  19
HETATM   19  N3  UNL     1      15.792   8.345   9.081  1.00  0.00    -0.066 N 
ATOM     20  H33 UNL     1      14.787   8.513   9.048  1.00  0.00     0.275 HD
ATOM     21  H32 UNL     1      15.950   8.184   8.086  1.00  0.00     0.275 HD
ATOM     22  H31 UNL     1      16.022   7.523   9.641  1.00  0.00     0.275 HD
ENDBRANCH  18  19
BRANCH  18  23
HETATM   23  C10 UNL     1      17.929   9.548   9.033  1.00  0.00     0.017 C 
HETATM   24  C11 UNL     1      18.663   8.247   9.362  1.00  0.00     0.012 C 
HETATM   25  C12 UNL     1      17.836   9.579   7.518  1.00  0.00     0.012 C 
ENDBRANCH  18  23
ENDBRANCH  15  18
ENDBRANCH   1  14
BRANCH   1  26
HETATM   26  C13 UNL     1      16.231   6.975  13.779  1.00  0.00     0.018 C 
HETATM   27  C14 UNL     1      15.727   5.966  12.822  1.00  0.00     0.007 C 
HETATM   28  C15 UNL     1      16.661   4.800  12.598  1.00  0.00     0.000 C 
HETATM   29  C16 UNL     1      17.178   4.380  13.966  1.00  0.00     0.000 C 
HETATM   30  C17 UNL     1      18.173   5.449  14.361  1.00  0.00     0.000 C 
HETATM   31  C18 UNL     1      17.642   6.822  14.213  1.00  0.00     0.007 C 
ENDBRANCH   1  26
TORSDOF 10
ENDMDL
MODEL 3
REMARK VINA RESULT: -7.363262713      1.071      1.154
REMARK  10 active torsions:
REMARK  status: ('A' for Active; 'I' for Inactive)
REMARK    1  A    between atoms: C2_2  and  C4_4 
REMARK    2  A    between atoms: C4_4  and  C5_5 
REMARK    3  A    between atoms: C5_5  and  N1_6 
REMARK    4  A    between atoms: C5_5  and  C19_29 
REMARK       I    between atoms: N1_6  and  C6_8 
REMARK    5  A    between atoms: C6_8  and  C7_10 
REMARK    6  A    between atoms: C7_10  and  N2_11 
REMARK    7  A    between atoms: C7_10  and  C13_23 
REMARK       I    between atoms: N2_11  and  C8_13 
REMARK    8  A    between atoms: C8_13  and  C9_15 
REMARK    9  A    between atoms: C9_15  and  N3_16 
REMARK   10  A    between atoms: C9_15  and  C10_20 
ROOT
HETATM    1  C7  UNL     1      15.975   8.088  13.437  1.00  0.00     0.180 C 
ENDROOT
BRANCH   1   2
HETATM    2  C6  UNL     1      14.769   8.835  13.907  1.00  0.00     0.241 C 
HETATM    3  N1  UNL     1      14.538  10.142  13.382  1.00  0.00    -0.346 N 
ATOM      4  H1  UNL     1      15.191  10.535  12.705  1.00  0.00     0.163 HD
HETATM    5  O1  UNL     1      13.960   8.358  14.740  1.00  0.00    -0.271 OA
BRANCH   3   6
HETATM    6  C5  UNL     1      13.363  10.934  13.806  1.00  0.00     0.174 C 
BRANCH   6   7
HETATM    7  C4  UNL     1      13.633  11.574  15.126  1.00  0.00     0.038 C 
BRANCH   7   8
HETATM    8  C2  UNL     1      12.680  11.304  16.223  1.00  0.00    -0.020 C 
HETATM    9  C1  UNL     1      12.158  12.669  16.725  1.00  0.00     0.009 C 
HETATM   10  C3  UNL     1      13.412  10.646  17.384  1.00  0.00     0.009 C 
ENDBRANCH   7   8
ENDBRANCH   6   7
BRANCH   6  11
HETATM   11  C19 UNL     1      13.088  11.851  12.694  1.00  0.00     0.254 C 
HETATM   12  N4  UNL     1      13.003  11.387  11.369  1.00  0.00    -0.060 NA
HETATM   13  O3  UNL     1      12.922  13.081  12.886  1.00  0.00    -0.275 OA
ENDBRANCH   6  11
ENDBRANCH   3   6
ENDBRANCH   1   2
BRANCH   1  14
HETATM   14  N2  UNL     1      15.965   8.126  12.009  1.00  0.00    -0.346 N 
HETATM   15  C8  UNL     1      17.110   8.507  11.265  1.00  0.00     0.249 C 
HETATM   16  O2  UNL     1      18.187   8.827  11.842  1.00  0.00    -0.271 OA
ATOM     17  H2  UNL     1      15.112   7.872  11.511  1.00  0.00     0.163 HD
BRANCH  15  18
HETATM   18  C9  UNL     1      17.100   8.545   9.780  1.00  0.00     0.278 C 
BRANCH  18  19
HETATM   19  N3  UNL     1      16.349   9.701   9.310  1.00  0.00    -0.066 N 
ATOM     20  H33 UNL     1      16.368  10.466   9.983  1.00  0.00     0.275 HD
ATOM     21  H32 UNL     1      16.817  10.170   8.536  1.00  0.00     0.275 HD
ATOM     22  H31 UNL     1      15.395   9.429   9.070  1.00  0.00     0.275 HD
ENDBRANCH  18  19
BRANCH  18  23
HETATM   23  C10 UNL     1      16.505   7.253   9.286  1.00  0.00     0.017 C 
HETATM   24  C11 UNL     1      16.438   7.246   7.758  1.00  0.00     0.012 C 
HETATM   25  C12 UNL     1      17.475   6.142   9.645  1.00  0.00     0.012 C 
ENDBRANCH  18  23
ENDBRANCH  15  18
ENDBRANCH   1  14
BRANCH   1  26
HETATM   26  C13 UNL     1      15.936   6.646  13.971  1.00  0.00     0.018 C 
HETATM   27  C14 UNL     1      15.220   5.731  13.056  1.00  0.00     0.007 C 
HETATM   28  C15 UNL     1      15.953   4.442  12.765  1.00  0.00     0.000 C 
HETATM   29  C16 UNL     1      16.502   3.939  14.093  1.00  0.00     0.000 C 
HETATM   30  C17 UNL     1      17.669   4.847  14.411  1.00  0.00     0.000 C 
HETATM   31  C18 UNL     1      17.336   6.284  14.300  1.00  0.00     0.007 C 
ENDBRANCH   1  26
TORSDOF 10
ENDMDL
MODEL 4
REMARK VINA RESULT: -7.352386268      3.541      7.696
REMARK  10 active torsions:
REMARK  status: ('A' for Active; 'I' for Inactive)
REMARK    1  A    between atoms: C2_2  and  C4_4 
REMARK    2  A    between atoms: C4_4  and  C5_5 
REMARK    3  A    between atoms: C5_5  and  N1_6 
REMARK    4  A    between atoms: C5_5  and  C19_29 
REMARK       I    between atoms: N1_6  and  C6_8 
REMARK    5  A    between atoms: C6_8  and  C7_10 
REMARK    6  A    between atoms: C7_10  and  N2_11 
REMARK    7  A    between atoms: C7_10  and  C13_23 
REMARK       I    between atoms: N2_11  and  C8_13 
REMARK    8  A    between atoms: C8_13  and  C9_15 
REMARK    9  A    between atoms: C9_15  and  N3_16 
REMARK   10  A    between atoms: C9_15  and  C10_20 
ROOT
HETATM    1  C7  UNL     1      16.581   6.264  10.049  1.00  0.00     0.180 C 
ENDROOT
BRANCH   1   2
HETATM    2  C6  UNL     1      17.898   6.144   9.353  1.00  0.00     0.241 C 
HETATM    3  N1  UNL     1      17.908   5.681   8.004  1.00  0.00    -0.346 N 
ATOM      4  H1  UNL     1      17.028   5.445   7.545  1.00  0.00     0.163 HD
HETATM    5  O1  UNL     1      18.986   6.433   9.910  1.00  0.00    -0.271 OA
BRANCH   3   6
HETATM    6  C5  UNL     1      19.178   5.539   7.259  1.00  0.00     0.174 C 
BRANCH   6   7
HETATM    7  C4  UNL     1      19.073   4.412   6.288  1.00  0.00     0.038 C 
BRANCH   7   8
HETATM    8  C2  UNL     1      19.370   3.052   6.785  1.00  0.00    -0.020 C 
HETATM    9  C1  UNL     1      20.564   3.167   7.758  1.00  0.00     0.009 C 
HETATM   10  C3  UNL     1      19.814   2.171   5.626  1.00  0.00     0.009 C 
ENDBRANCH   7   8
ENDBRANCH   6   7
BRANCH   6  11
HETATM   11  C19 UNL     1      19.441   6.861   6.680  1.00  0.00     0.254 C 
HETATM   12  N4  UNL     1      18.560   7.438   5.747  1.00  0.00    -0.060 NA
HETATM   13  O3  UNL     1      20.463   7.522   6.994  1.00  0.00    -0.275 OA
ENDBRANCH   6  11
ENDBRANCH   3   6
ENDBRANCH   1   2
BRANCH   1  14
HETATM   14  N2  UNL     1      16.399   7.644  10.374  1.00  0.00    -0.346 N 
HETATM   15  C8  UNL     1      16.194   8.626   9.373  1.00  0.00     0.249 C 
HETATM   16  O2  UNL     1      16.162   8.313   8.149  1.00  0.00    -0.271 OA
ATOM     17  H2  UNL     1      16.418   7.930  11.353  1.00  0.00     0.163 HD
BRANCH  15  18
HETATM   18  C9  UNL     1      16.004  10.060   9.712  1.00  0.00     0.278 C 
BRANCH  18  19
HETATM   19  N3  UNL     1      17.284  10.754   9.698  1.00  0.00    -0.066 N 
ATOM     20  H33 UNL     1      18.022  10.185   9.282  1.00  0.00     0.275 HD
ATOM     21  H32 UNL     1      17.293  11.523   9.028  1.00  0.00     0.275 HD
ATOM     22  H31 UNL     1      17.528  11.065  10.638  1.00  0.00     0.275 HD
ENDBRANCH  18  19
BRANCH  18  23
HETATM   23  C10 UNL     1      15.342  10.135  11.062  1.00  0.00     0.017 C 
HETATM   24  C11 UNL     1      16.319  10.674  12.106  1.00  0.00     0.012 C 
HETATM   25  C12 UNL     1      14.244  11.178  10.969  1.00  0.00     0.012 C 
ENDBRANCH  18  23
ENDBRANCH  15  18
ENDBRANCH   1  14
BRANCH   1  26
HETATM   26  C13 UNL     1      16.571   5.375  11.304  1.00  0.00     0.018 C 
HETATM   27  C14 UNL     1      15.982   6.064  12.473  1.00  0.00     0.007 C 
HETATM   28  C15 UNL     1      14.953   5.250  13.222  1.00  0.00     0.000 C 
HETATM   29  C16 UNL     1      15.516   3.843  13.354  1.00  0.00     0.000 C 
HETATM   30  C17 UNL     1      15.390   3.232  11.976  1.00  0.00     0.000 C 
HETATM   31  C18 UNL     1      15.932   4.096  10.905  1.00  0.00     0.007 C 
ENDBRANCH   1  26
TORSDOF 10
ENDMDL
MODEL 5
REMARK VINA RESULT: -7.338314990      2.251      6.198
REMARK  10 active torsions:
REMARK  status: ('A' for Active; 'I' for Inactive)
REMARK    1  A    between atoms: C2_2  and  C4_4 
REMARK    2  A    between atoms: C4_4  and  C5_5 
REMARK    3  A    between atoms: C5_5  and  N1_6 
REMARK    4  A    between atoms: C5_5  and  C19_29 
REMARK       I    between atoms: N1_6  and  C6_8 
REMARK    5  A    between atoms: C6_8  and  C7_10 
REMARK    6  A    between atoms: C7_10  and  N2_11 
REMARK    7  A    between atoms: C7_10  and  C13_23 
REMARK       I    between atoms: N2_11  and  C8_13 
REMARK    8  A    between atoms: C8_13  and  C9_15 
REMARK    9  A    between atoms: C9_15  and  N3_16 
REMARK   10  A    between atoms: C9_15  and  C10_20 
ROOT
HETATM    1  C7  UNL     1      17.107   9.311   9.166  1.00  0.00     0.180 C 
ENDROOT
BRANCH   1   2
HETATM    2  C6  UNL     1      17.958   8.641  10.196  1.00  0.00     0.241 C 
HETATM    3  N1  UNL     1      17.434   7.494  10.863  1.00  0.00    -0.346 N 
ATOM      4  H1  UNL     1      16.500   7.158  10.627  1.00  0.00     0.163 HD
HETATM    5  O1  UNL     1      19.108   9.049  10.492  1.00  0.00    -0.271 OA
BRANCH   3   6
HETATM    6  C5  UNL     1      18.225   6.786  11.892  1.00  0.00     0.174 C 
BRANCH   6   7
HETATM    7  C4  UNL     1      17.314   6.040  12.807  1.00  0.00     0.038 C 
BRANCH   7   8
HETATM    8  C2  UNL     1      15.918   5.837  12.366  1.00  0.00    -0.020 C 
HETATM    9  C1  UNL     1      15.013   6.007  13.607  1.00  0.00     0.009 C 
HETATM   10  C3  UNL     1      15.742   4.408  11.871  1.00  0.00     0.009 C 
ENDBRANCH   7   8
ENDBRANCH   6   7
BRANCH   6  11
HETATM   11  C19 UNL     1      19.193   5.972  11.149  1.00  0.00     0.254 C 
HETATM   12  N4  UNL     1      18.780   5.101  10.124  1.00  0.00    -0.060 NA
HETATM   13  O3  UNL     1      20.422   6.022  11.403  1.00  0.00    -0.275 OA
ENDBRANCH   6  11
ENDBRANCH   3   6
ENDBRANCH   1   2
BRANCH   1  14
HETATM   14  N2  UNL     1      15.869   9.649   9.797  1.00  0.00    -0.346 N 
HETATM   15  C8  UNL     1      15.757  10.758  10.673  1.00  0.00     0.249 C 
HETATM   16  O2  UNL     1      16.754  11.492  10.928  1.00  0.00    -0.271 OA
ATOM     17  H2  UNL     1      15.045   9.078   9.612  1.00  0.00     0.163 HD
BRANCH  15  18
HETATM   18  C9  UNL     1      14.471  11.110  11.327  1.00  0.00     0.278 C 
BRANCH  18  19
HETATM   19  N3  UNL     1      14.006  12.408  10.859  1.00  0.00    -0.066 N 
ATOM     20  H33 UNL     1      14.736  13.118  10.917  1.00  0.00     0.275 HD
ATOM     21  H32 UNL     1      13.865  12.420   9.849  1.00  0.00     0.275 HD
ATOM     22  H31 UNL     1      13.165  12.685  11.365  1.00  0.00     0.275 HD
ENDBRANCH  18  19
BRANCH  18  23
HETATM   23  C10 UNL     1      14.688  11.097  12.817  1.00  0.00     0.017 C 
HETATM   24  C11 UNL     1      13.410  11.512  13.546  1.00  0.00     0.012 C 
HETATM   25  C12 UNL     1      14.928   9.656  13.226  1.00  0.00     0.012 C 
ENDBRANCH  18  23
ENDBRANCH  15  18
ENDBRANCH   1  14
BRANCH   1  26
HETATM   26  C13 UNL     1      16.899   8.369   7.969  1.00  0.00     0.018 C 
HETATM   27  C14 UNL     1      18.171   8.042   7.288  1.00  0.00     0.007 C 
HETATM   28  C15 UNL     1      18.370   6.569   7.015  1.00  0.00     0.000 C 
HETATM   29  C16 UNL     1      17.047   6.038   6.483  1.00  0.00     0.000 C 
HETATM   30  C17 UNL     1      16.133   5.967   7.686  1.00  0.00     0.000 C 
HETATM   31  C18 UNL     1      16.109   7.219   8.473  1.00  0.00     0.007 C 
ENDBRANCH   1  26
TORSDOF 10
ENDMDL
