MODEL 1
REMARK VINA RESULT: -7.563798090      0.000      0.000
REMARK  10 active torsions:
REMARK  status: ('A' for Active; 'I' for Inactive)
REMARK    1  A    between atoms: N1_3  and  C3_5 
REMARK    2  A    between atoms: C3_5  and  C4_6 
REMARK    3  A    between atoms: C3_5  and  C11_22 
REMARK    4  A    between atoms: C4_6  and  N2_7 
REMARK    5  A    between atoms: C4_6  and  C5_11 
REMARK       I    between atoms: C5_11  and  N3_13 
REMARK    6  A    between atoms: N3_13  and  C6_15 
REMARK    7  A    between atoms: C6_15  and  C7_16 
REMARK    8  A    between atoms: C6_15  and  C8_19 
REMARK    9  A    between atoms: C11_22  and  C12_23 
REMARK   10  A    between atoms: C11_22  and  C15_26 
ROOT
HETATM    1  C1  UNL     1      19.028   7.602  13.557  1.00  0.00     0.037 C 
HETATM    2  C2  UNL     1      18.481   8.191  12.644  1.00  0.00    -0.001 C 
HETATM    3  N1  UNL     1      17.902   8.855  11.602  1.00  0.00    -0.317 N 
ATOM      4  H1  UNL     1      18.353   9.719  11.299  1.00  0.00     0.176 HD
ENDROOT
BRANCH   3   5
HETATM    5  C3  UNL     1      16.681   8.443  10.867  1.00  0.00     0.060 C 
BRANCH   5   6
HETATM    6  C4  UNL     1      15.813   9.592  10.772  1.00  0.00     0.325 C 
BRANCH   6   7
HETATM    7  N2  UNL     1      16.549  10.623   9.967  1.00  0.00    -0.061 N 
ATOM      8  H23 UNL     1      16.304  11.581  10.218  1.00  0.00     0.275 HD
ATOM      9  H22 UNL     1      17.541  10.680  10.196  1.00  0.00     0.275 HD
ATOM     10  H21 UNL     1      16.374  10.408   8.985  1.00  0.00     0.275 HD
ENDBRANCH   6   7
BRANCH   6  11
HETATM   11  C5  UNL     1      15.643  10.439  12.054  1.00  0.00     0.258 C 
HETATM   12  O1  UNL     1      16.599  11.218  12.321  1.00  0.00    -0.270 OA
HETATM   13  N3  UNL     1      14.510  10.289  12.798  1.00  0.00    -0.324 N 
ATOM     14  H3  UNL     1      13.866   9.637  12.351  1.00  0.00     0.169 HD
BRANCH  13  15
HETATM   15  C6  UNL     1      13.965  10.781  14.024  1.00  0.00     0.081 C 
BRANCH  15  16
HETATM   16  C7  UNL     1      13.859   9.744  15.057  1.00  0.00     0.277 C 
HETATM   17  N4  UNL     1      13.587   9.821  16.420  1.00  0.00    -0.056 NA
HETATM   18  O2  UNL     1      14.056   8.536  14.628  1.00  0.00    -0.270 OA
ENDBRANCH  15  16
BRANCH  15  19
HETATM   19  C8  UNL     1      12.773  11.689  13.972  1.00  0.00     0.033 C 
HETATM   20  C9  UNL     1      12.990  12.881  14.904  1.00  0.00     0.016 C 
HETATM   21  C10 UNL     1      12.705  12.412  12.593  1.00  0.00     0.016 C 
ENDBRANCH  15  19
ENDBRANCH  13  15
ENDBRANCH   6  11
ENDBRANCH   5   6
BRANCH   5  22
HETATM   22  C11 UNL     1      16.944   7.441   9.831  1.00  0.00    -0.047 C 
BRANCH  22  23
HETATM   23  C12 UNL     1      16.752   5.990  10.215  1.00  0.00     0.009 C 
HETATM   24  C13 UNL     1      18.058   5.253  10.342  1.00  0.00     0.014 C 
HETATM   25  C14 UNL     1      15.995   5.803  11.508  1.00  0.00     0.014 C 
ENDBRANCH  22  23
BRANCH  22  26
HETATM   26  C15 UNL     1      16.745   7.765   8.391  1.00  0.00     0.017 C 
HETATM   27  C16 UNL     1      16.624   6.460   7.560  1.00  0.00     0.009 C 
HETATM   28  C17 UNL     1      16.449   6.915   6.110  1.00  0.00     0.001 C 
HETATM   29  C18 UNL     1      17.767   7.452   5.590  1.00  0.00     0.000 C 
HETATM   30  C19 UNL     1      18.011   8.728   6.412  1.00  0.00     0.001 C 
HETATM   31  C20 UNL     1      18.072   8.350   7.847  1.00  0.00     0.009 C 
ENDBRANCH  22  26
ENDBRANCH   5  22
ENDBRANCH   3   5
TORSDOF 10
ENDMDL
MODEL 2
REMARK VINA RESULT: -7.272780401      3.925      7.113
REMARK  10 active torsions:
REMARK  status: ('A' for Active; 'I' for Inactive)
REMARK    1  A    between atoms: N1_3  and  C3_5 
REMARK    2  A    between atoms: C3_5  and  C4_6 
REMARK    3  A    between atoms: C3_5  and  C11_22 
REMARK    4  A    between atoms: C4_6  and  N2_7 
REMARK    5  A    between atoms: C4_6  and  C5_11 
REMARK       I    between atoms: C5_11  and  N3_13 
REMARK    6  A    between atoms: N3_13  and  C6_15 
REMARK    7  A    between atoms: C6_15  and  C7_16 
REMARK    8  A    between atoms: C6_15  and  C8_19 
REMARK    9  A    between atoms: C11_22  and  C12_23 
REMARK   10  A    between atoms: C11_22  and  C15_26 
ROOT
HETATM    1  C1  UNL     1      14.835   6.963  14.202  1.00  0.00     0.037 C 
HETATM    2  C2  UNL     1      15.186   6.124  13.394  1.00  0.00    -0.001 C 
HETATM    3  N1  UNL     1      15.541   5.174  12.482  1.00  0.00    -0.317 N 
ATOM      4  H1  UNL     1      15.082   4.266  12.559  1.00  0.00     0.176 HD
ENDROOT
BRANCH   3   5
HETATM    5  C3  UNL     1      16.533   5.333  11.388  1.00  0.00     0.060 C 
BRANCH   5   6
HETATM    6  C4  UNL     1      16.115   4.498  10.289  1.00  0.00     0.325 C 
BRANCH   6   7
HETATM    7  N2  UNL     1      15.860   3.132  10.856  1.00  0.00    -0.061 N 
ATOM      8  H23 UNL     1      16.622   2.791  11.443  1.00  0.00     0.275 HD
ATOM      9  H22 UNL     1      15.133   3.123  11.572  1.00  0.00     0.275 HD
ATOM     10  H21 UNL     1      15.656   2.520  10.067  1.00  0.00     0.275 HD
ENDBRANCH   6   7
BRANCH   6  11
HETATM   11  C5  UNL     1      17.209   4.082   9.279  1.00  0.00     0.258 C 
HETATM   12  O1  UNL     1      17.810   3.005   9.543  1.00  0.00    -0.270 OA
HETATM   13  N3  UNL     1      17.455   4.887   8.206  1.00  0.00    -0.324 N 
ATOM     14  H3  UNL     1      16.806   5.674   8.185  1.00  0.00     0.169 HD
BRANCH  13  15
HETATM   15  C6  UNL     1      18.359   4.945   7.100  1.00  0.00     0.081 C 
BRANCH  15  16
HETATM   16  C7  UNL     1      19.615   5.631   7.429  1.00  0.00     0.277 C 
HETATM   17  N4  UNL     1      20.143   6.846   7.001  1.00  0.00    -0.056 NA
HETATM   18  O2  UNL     1      20.374   4.993   8.264  1.00  0.00    -0.270 OA
ENDBRANCH  15  16
BRANCH  15  19
HETATM   19  C8  UNL     1      17.825   5.304   5.747  1.00  0.00     0.033 C 
HETATM   20  C9  UNL     1      17.201   4.070   5.094  1.00  0.00     0.016 C 
HETATM   21  C10 UNL     1      16.572   6.220   5.887  1.00  0.00     0.016 C 
ENDBRANCH  15  19
ENDBRANCH  13  15
ENDBRANCH   6  11
ENDBRANCH   5   6
BRANCH   5  22
HETATM   22  C11 UNL     1      17.094   6.684  11.314  1.00  0.00    -0.047 C 
BRANCH  22  23
HETATM   23  C12 UNL     1      18.531   6.856  11.756  1.00  0.00     0.009 C 
HETATM   24  C13 UNL     1      18.641   7.497  13.113  1.00  0.00     0.014 C 
HETATM   25  C14 UNL     1      19.307   5.562  11.800  1.00  0.00     0.014 C 
ENDBRANCH  22  23
BRANCH  22  26
HETATM   26  C15 UNL     1      16.606   7.656  10.296  1.00  0.00     0.017 C 
HETATM   27  C16 UNL     1      17.794   8.196   9.457  1.00  0.00     0.009 C 
HETATM   28  C17 UNL     1      17.180   9.192   8.473  1.00  0.00     0.001 C 
HETATM   29  C18 UNL     1      16.775  10.448   9.218  1.00  0.00     0.000 C 
HETATM   30  C19 UNL     1      15.630   9.994  10.138  1.00  0.00     0.001 C 
HETATM   31  C20 UNL     1      16.152   8.937  11.041  1.00  0.00     0.009 C 
ENDBRANCH  22  26
ENDBRANCH   5  22
ENDBRANCH   3   5
TORSDOF 10
ENDMDL
MODEL 3
REMARK VINA RESULT: -7.189450906      4.313      7.210
REMARK  10 active torsions:
REMARK  status: ('A' for Active; 'I' for Inactive)
REMARK    1  A    between atoms: N1_3  and  C3_5 
REMARK    2  A    between atoms: C3_5  and  C4_6 
REMARK    3  A    between atoms: C3_5  and  C11_22 
REMARK    4  A    between atoms: C4_6  and  N2_7 
REMARK    5  A    between atoms: C4_6  and  C5_11 
REMARK       I    between atoms: C5_11  and  N3_13 
REMARK    6  A    between atoms: N3_13  and  C6_15 
REMARK    7  A    between atoms: C6_15  and  C7_16 
REMARK    8  A    between atoms: C6_15  and  C8_19 
REMARK    9  A    between atoms: C11_22  and  C12_23 
REMARK   10  A    between atoms: C11_22  and  C15_26 
ROOT
HETATM    1  C1  UNL     1      20.343   5.069  11.870  1.00  0.00     0.037 C 
HETATM    2  C2  UNL     1      19.168   4.904  11.601  1.00  0.00    -0.001 C 
HETATM    3  N1  UNL     1      17.843   4.712  11.338  1.00  0.00    -0.317 N 
ATOM      4  H1  UNL     1      17.407   3.886  11.749  1.00  0.00     0.176 HD
ENDROOT
BRANCH   3   5
HETATM    5  C3  UNL     1      16.975   5.589  10.513  1.00  0.00     0.060 C 
BRANCH   5   6
HETATM    6  C4  UNL     1      16.341   4.765   9.512  1.00  0.00     0.325 C 
BRANCH   6   7
HETATM    7  N2  UNL     1      16.418   3.350  10.005  1.00  0.00    -0.061 N 
ATOM      8  H23 UNL     1      17.372   3.039  10.190  1.00  0.00     0.275 HD
ATOM      9  H22 UNL     1      16.060   3.234  10.953  1.00  0.00     0.275 HD
ATOM     10  H21 UNL     1      15.934   2.773   9.318  1.00  0.00     0.275 HD
ENDBRANCH   6   7
BRANCH   6  11
HETATM   11  C5  UNL     1      17.121   4.550   8.195  1.00  0.00     0.258 C 
HETATM   12  O1  UNL     1      17.802   3.490   8.135  1.00  0.00    -0.270 OA
HETATM   13  N3  UNL     1      17.034   5.495   7.216  1.00  0.00    -0.324 N 
ATOM     14  H3  UNL     1      16.383   6.234   7.481  1.00  0.00     0.169 HD
BRANCH  13  15
HETATM   15  C6  UNL     1      17.591   5.748   5.924  1.00  0.00     0.081 C 
BRANCH  15  16
HETATM   16  C7  UNL     1      18.053   4.525   5.255  1.00  0.00     0.277 C 
HETATM   17  N4  UNL     1      19.329   3.999   5.070  1.00  0.00    -0.056 NA
HETATM   18  O2  UNL     1      17.107   3.805   4.738  1.00  0.00    -0.270 OA
ENDBRANCH  15  16
BRANCH  15  19
HETATM   19  C8  UNL     1      18.528   6.905   5.755  1.00  0.00     0.033 C 
HETATM   20  C9  UNL     1      17.729   8.205   5.645  1.00  0.00     0.016 C 
HETATM   21  C10 UNL     1      19.313   7.162   7.076  1.00  0.00     0.016 C 
ENDBRANCH  15  19
ENDBRANCH  13  15
ENDBRANCH   6  11
ENDBRANCH   5   6
BRANCH   5  22
HETATM   22  C11 UNL     1      16.371   6.683  11.276  1.00  0.00    -0.047 C 
BRANCH  22  23
HETATM   23  C12 UNL     1      16.077   6.420  12.737  1.00  0.00     0.009 C 
HETATM   24  C13 UNL     1      15.562   7.642  13.448  1.00  0.00     0.014 C 
HETATM   25  C14 UNL     1      15.079   5.309  12.961  1.00  0.00     0.014 C 
ENDBRANCH  22  23
BRANCH  22  26
HETATM   26  C15 UNL     1      16.637   8.102  10.912  1.00  0.00     0.017 C 
HETATM   27  C16 UNL     1      15.919   8.458   9.583  1.00  0.00     0.009 C 
HETATM   28  C17 UNL     1      16.281   9.917   9.302  1.00  0.00     0.001 C 
HETATM   29  C18 UNL     1      17.729   9.999   8.863  1.00  0.00     0.000 C 
HETATM   30  C19 UNL     1      18.530   9.593  10.112  1.00  0.00     0.001 C 
HETATM   31  C20 UNL     1      18.124   8.216  10.495  1.00  0.00     0.009 C 
ENDBRANCH  22  26
ENDBRANCH   5  22
ENDBRANCH   3   5
TORSDOF 10
ENDMDL
MODEL 4
REMARK VINA RESULT: -7.133044265      3.098      6.666
REMARK  10 active torsions:
REMARK  status: ('A' for Active; 'I' for Inactive)
REMARK    1  A    between atoms: N1_3  and  C3_5 
REMARK    2  A    between atoms: C3_5  and  C4_6 
REMARK    3  A    between atoms: C3_5  and  C11_22 
REMARK    4  A    between atoms: C4_6  and  N2_7 
REMARK    5  A    between atoms: C4_6  and  C5_11 
REMARK       I    between atoms: C5_11  and  N3_13 
REMARK    6  A    between atoms: N3_13  and  C6_15 
REMARK    7  A    between atoms: C6_15  and  C7_16 
REMARK    8  A    between atoms: C6_15  and  C8_19 
REMARK    9  A    between atoms: C11_22  and  C12_23 
REMARK   10  A    between atoms: C11_22  and  C15_26 
ROOT
HETATM    1  C1  UNL     1      19.461   7.224  15.422  1.00  0.00     0.037 C 
HETATM    2  C2  UNL     1      19.128   7.550  14.298  1.00  0.00    -0.001 C 
HETATM    3  N1  UNL     1      18.784   7.894  13.023  1.00  0.00    -0.317 N 
ATOM      4  H1  UNL     1      19.540   8.200  12.409  1.00  0.00     0.176 HD
ENDROOT
BRANCH   3   5
HETATM    5  C3  UNL     1      17.418   7.869  12.444  1.00  0.00     0.060 C 
BRANCH   5   6
HETATM    6  C4  UNL     1      17.500   8.381  11.097  1.00  0.00     0.325 C 
BRANCH   6   7
HETATM    7  N2  UNL     1      16.107   8.360  10.542  1.00  0.00    -0.061 N 
ATOM      8  H23 UNL     1      15.388   8.253  11.258  1.00  0.00     0.275 HD
ATOM      9  H22 UNL     1      15.801   9.267  10.189  1.00  0.00     0.275 HD
ATOM     10  H21 UNL     1      16.083   7.625   9.835  1.00  0.00     0.275 HD
ENDBRANCH   6   7
BRANCH   6  11
HETATM   11  C5  UNL     1      18.139   7.451  10.040  1.00  0.00     0.258 C 
HETATM   12  O1  UNL     1      19.279   6.998  10.335  1.00  0.00    -0.270 OA
HETATM   13  N3  UNL     1      17.456   7.196   8.887  1.00  0.00    -0.324 N 
ATOM     14  H3  UNL     1      16.537   7.638   8.905  1.00  0.00     0.169 HD
BRANCH  13  15
HETATM   15  C6  UNL     1      17.657   6.488   7.662  1.00  0.00     0.081 C 
BRANCH  15  16
HETATM   16  C7  UNL     1      17.479   7.338   6.478  1.00  0.00     0.277 C 
HETATM   17  N4  UNL     1      18.325   8.262   5.869  1.00  0.00    -0.056 NA
HETATM   18  O2  UNL     1      16.329   7.213   5.894  1.00  0.00    -0.270 OA
ENDBRANCH  15  16
BRANCH  15  19
HETATM   19  C8  UNL     1      17.054   5.125   7.508  1.00  0.00     0.033 C 
HETATM   20  C9  UNL     1      18.038   4.065   8.003  1.00  0.00     0.016 C 
HETATM   21  C10 UNL     1      15.889   4.932   8.525  1.00  0.00     0.016 C 
ENDBRANCH  15  19
ENDBRANCH  13  15
ENDBRANCH   6  11
ENDBRANCH   5   6
BRANCH   5  22
HETATM   22  C11 UNL     1      16.615   6.739  12.917  1.00  0.00    -0.047 C 
BRANCH  22  23
HETATM   23  C12 UNL     1      15.425   7.063  13.794  1.00  0.00     0.009 C 
HETATM   24  C13 UNL     1      15.629   6.630  15.221  1.00  0.00     0.014 C 
HETATM   25  C14 UNL     1      15.068   8.530  13.810  1.00  0.00     0.014 C 
ENDBRANCH  22  23
BRANCH  22  26
HETATM   26  C15 UNL     1      16.509   5.490  12.113  1.00  0.00     0.017 C 
HETATM   27  C16 UNL     1      15.357   4.601  12.651  1.00  0.00     0.009 C 
HETATM   28  C17 UNL     1      15.362   3.350  11.771  1.00  0.00     0.001 C 
HETATM   29  C18 UNL     1      16.559   2.492  12.125  1.00  0.00     0.000 C 
HETATM   30  C19 UNL     1      17.772   3.329  11.685  1.00  0.00     0.001 C 
HETATM   31  C20 UNL     1      17.745   4.612  12.433  1.00  0.00     0.009 C 
ENDBRANCH  22  26
ENDBRANCH   5  22
ENDBRANCH   3   5
TORSDOF 10
ENDMDL
MODEL 5
REMARK VINA RESULT: -7.091711584      3.891      7.257
REMARK  10 active torsions:
REMARK  status: ('A' for Active; 'I' for Inactive)
REMARK    1  A    between atoms: N1_3  and  C3_5 
REMARK    2  A    between atoms: C3_5  and  C4_6 
REMARK    3  A    between atoms: C3_5  and  C11_22 
REMARK    4  A    between atoms: C4_6  and  N2_7 
REMARK    5  A    between atoms: C4_6  and  C5_11 
REMARK       I    between atoms: C5_11  and  N3_13 
REMARK    6  A    between atoms: N3_13  and  C6_15 
REMARK    7  A    between atoms: C6_15  and  C7_16 
REMARK    8  A    between atoms: C6_15  and  C8_19 
REMARK    9  A    between atoms: C11_22  and  C12_23 
REMARK   10  A    between atoms: C11_22  and  C15_26 
ROOT
HETATM    1  C1  UNL     1      14.969   6.296  13.857  1.00  0.00     0.037 C 
HETATM    2  C2  UNL     1      15.449   5.685  12.921  1.00  0.00    -0.001 C 
HETATM    3  N1  UNL     1      15.952   4.981  11.866  1.00  0.00    -0.317 N 
ATOM      4  H1  UNL     1      15.768   3.977  11.853  1.00  0.00     0.176 HD
ENDROOT
BRANCH   3   5
HETATM    5  C3  UNL     1      16.742   5.533  10.737  1.00  0.00     0.060 C 
BRANCH   5   6
HETATM    6  C4  UNL     1      16.190   5.005   9.513  1.00  0.00     0.325 C 
BRANCH   6   7
HETATM    7  N2  UNL     1      15.953   3.541   9.743  1.00  0.00    -0.061 N 
ATOM      8  H23 UNL     1      15.194   3.354  10.399  1.00  0.00     0.275 HD
ATOM      9  H22 UNL     1      15.544   3.069   8.936  1.00  0.00     0.275 HD
ATOM     10  H21 UNL     1      16.844   3.141  10.035  1.00  0.00     0.275 HD
ENDBRANCH   6   7
BRANCH   6  11
HETATM   11  C5  UNL     1      17.165   4.853   8.323  1.00  0.00     0.258 C 
HETATM   12  O1  UNL     1      18.103   4.027   8.491  1.00  0.00    -0.270 OA
HETATM   13  N3  UNL     1      16.962   5.608   7.205  1.00  0.00    -0.324 N 
ATOM     14  H3  UNL     1      16.112   6.164   7.291  1.00  0.00     0.169 HD
BRANCH  13  15
HETATM   15  C6  UNL     1      17.598   5.844   5.947  1.00  0.00     0.081 C 
BRANCH  15  16
HETATM   16  C7  UNL     1      18.075   4.609   5.310  1.00  0.00     0.277 C 
HETATM   17  N4  UNL     1      19.360   4.113   5.104  1.00  0.00    -0.056 NA
HETATM   18  O2  UNL     1      17.136   3.842   4.853  1.00  0.00    -0.270 OA
ENDBRANCH  15  16
BRANCH  15  19
HETATM   19  C8  UNL     1      18.564   6.983   5.827  1.00  0.00     0.033 C 
HETATM   20  C9  UNL     1      17.802   8.308   5.805  1.00  0.00     0.016 C 
HETATM   21  C10 UNL     1      19.377   7.142   7.147  1.00  0.00     0.016 C 
ENDBRANCH  15  19
ENDBRANCH  13  15
ENDBRANCH   6  11
ENDBRANCH   5   6
BRANCH   5  22
HETATM   22  C11 UNL     1      17.216   6.897  10.982  1.00  0.00    -0.047 C 
BRANCH  22  23
HETATM   23  C12 UNL     1      18.651   7.054  11.434  1.00  0.00     0.009 C 
HETATM   24  C13 UNL     1      18.756   7.464  12.878  1.00  0.00     0.014 C 
HETATM   25  C14 UNL     1      19.481   5.806  11.253  1.00  0.00     0.014 C 
ENDBRANCH  22  23
BRANCH  22  26
HETATM   26  C15 UNL     1      16.641   8.049  10.232  1.00  0.00     0.017 C 
HETATM   27  C16 UNL     1      17.773   8.994   9.749  1.00  0.00     0.009 C 
HETATM   28  C17 UNL     1      17.066  10.138   9.022  1.00  0.00     0.001 C 
HETATM   29  C18 UNL     1      16.379  11.029  10.037  1.00  0.00     0.000 C 
HETATM   30  C19 UNL     1      15.266  10.147  10.628  1.00  0.00     0.001 C 
HETATM   31  C20 UNL     1      15.901   8.955  11.247  1.00  0.00     0.009 C 
ENDBRANCH  22  26
ENDBRANCH   5  22
ENDBRANCH   3   5
TORSDOF 10
ENDMDL
