MODEL 1
REMARK VINA RESULT: -8.658367053      0.000      0.000
REMARK  9 active torsions:
REMARK  status: ('A' for Active; 'I' for Inactive)
REMARK    1  A    between atoms: C2_2  and  C3_3 
REMARK    2  A    between atoms: C9_10  and  C10_11 
REMARK    3  A    between atoms: C10_11  and  N2_12 
REMARK       I    between atoms: N2_12  and  C11_13 
REMARK       I    between atoms: C11_13  and  N3_15 
REMARK    4  A    between atoms: N3_15  and  C12_17 
REMARK    5  A    between atoms: C12_17  and  C13_18 
REMARK    6  A    between atoms: C13_18  and  C14_19 
REMARK    7  A    between atoms: C14_19  and  N4_20 
REMARK       I    between atoms: N4_20  and  C15_22 
REMARK       I    between atoms: C15_22  and  N5_23 
REMARK    8  A    between atoms: C16_27  and  C17_28 
REMARK    9  A    between atoms: C17_28  and  C18_29 
ROOT
HETATM    1  C10 UNL     1      16.098  10.448   9.963  1.00  0.00     0.196 C 
ENDROOT
BRANCH   1   2
HETATM    2  C9  UNL     1      16.373   8.964  10.200  1.00  0.00     0.275 C 
HETATM    3  N1  UNL     1      17.553   8.668  10.910  1.00  0.00     0.100 N 
HETATM    4  C4  UNL     1      17.413   8.262  12.283  1.00  0.00     0.282 C 
HETATM    5  C5  UNL     1      18.278   7.548  10.296  1.00  0.00     0.278 C 
HETATM    6  C3  UNL     1      16.785   6.933  12.537  1.00  0.00     0.040 C 
HETATM    7  C16 UNL     1      16.456   6.115  11.389  1.00  0.00     0.001 C 
HETATM    8  C6  UNL     1      17.274   6.464  10.146  1.00  0.00     0.019 C 
HETATM    9  C7  UNL     1      16.357   6.851   8.971  1.00  0.00     0.009 C 
HETATM   10  C8  UNL     1      16.321   8.338   8.804  1.00  0.00     0.043 C 
BRANCH   6  11
HETATM   11  C2  UNL     1      15.577   7.272  13.404  1.00  0.00    -0.030 C 
HETATM   12  C1  UNL     1      15.171   8.471  13.698  1.00  0.00     0.007 C 
ENDBRANCH   6  11
BRANCH   7  13
HETATM   13  C17 UNL     1      16.636   4.628  11.495  1.00  0.00     0.005 C 
BRANCH  13  14
HETATM   14  C18 UNL     1      15.567   3.688  11.744  1.00  0.00    -0.004 C 
HETATM   15  C19 UNL     1      14.878   3.765  13.066  1.00  0.00     0.005 C 
ENDBRANCH  13  14
ENDBRANCH   7  13
ENDBRANCH   1   2
BRANCH   1  16
HETATM   16  N2  UNL     1      15.050  11.034  10.508  1.00  0.00    -0.367 NA
HETATM   17  C11 UNL     1      13.926  11.661  11.059  1.00  0.00     0.393 C 
HETATM   18  O1  UNL     1      12.991  12.150  10.459  1.00  0.00    -0.230 OA
HETATM   19  N3  UNL     1      13.896  11.718  12.499  1.00  0.00    -0.331 N 
ATOM     20  H3  UNL     1      14.665  11.320  13.038  1.00  0.00     0.165 HD
BRANCH  19  21
HETATM   21  C12 UNL     1      12.795  12.330  13.177  1.00  0.00     0.127 C 
BRANCH  21  22
HETATM   22  C13 UNL     1      12.709  11.766  14.600  1.00  0.00     0.039 C 
BRANCH  22  23
HETATM   23  C14 UNL     1      12.626  12.900  15.590  1.00  0.00     0.126 C 
BRANCH  23  24
HETATM   24  N4  UNL     1      12.249  12.439  16.898  1.00  0.00    -0.343 N 
HETATM   25  C15 UNL     1      13.111  12.568  18.005  1.00  0.00     0.313 C 
HETATM   26  N5  UNL     1      12.764  12.095  19.217  1.00  0.00    -0.352 N 
HETATM   27  O2  UNL     1      14.231  13.132  17.851  1.00  0.00    -0.248 OA
ATOM     28  H52 UNL     1      11.860  11.640  19.341  1.00  0.00     0.160 HD
ATOM     29  H51 UNL     1      13.388  12.188  20.020  1.00  0.00     0.160 HD
ATOM     30  H4  UNL     1      11.334  12.008  17.028  1.00  0.00     0.164 HD
ENDBRANCH  23  24
ENDBRANCH  22  23
ENDBRANCH  21  22
ENDBRANCH  19  21
ENDBRANCH   1  16
TORSDOF 9
ENDMDL
MODEL 2
REMARK VINA RESULT: -8.390932528      1.856      2.747
REMARK  9 active torsions:
REMARK  status: ('A' for Active; 'I' for Inactive)
REMARK    1  A    between atoms: C2_2  and  C3_3 
REMARK    2  A    between atoms: C9_10  and  C10_11 
REMARK    3  A    between atoms: C10_11  and  N2_12 
REMARK       I    between atoms: N2_12  and  C11_13 
REMARK       I    between atoms: C11_13  and  N3_15 
REMARK    4  A    between atoms: N3_15  and  C12_17 
REMARK    5  A    between atoms: C12_17  and  C13_18 
REMARK    6  A    between atoms: C13_18  and  C14_19 
REMARK    7  A    between atoms: C14_19  and  N4_20 
REMARK       I    between atoms: N4_20  and  C15_22 
REMARK       I    between atoms: C15_22  and  N5_23 
REMARK    8  A    between atoms: C16_27  and  C17_28 
REMARK    9  A    between atoms: C17_28  and  C18_29 
ROOT
HETATM    1  C10 UNL     1      14.805  10.781  12.099  1.00  0.00     0.196 C 
ENDROOT
BRANCH   1   2
HETATM    2  C9  UNL     1      15.514   9.554  11.532  1.00  0.00     0.275 C 
HETATM    3  N1  UNL     1      16.740   9.221  12.142  1.00  0.00     0.100 N 
HETATM    4  C4  UNL     1      16.750   8.091  13.033  1.00  0.00     0.282 C 
HETATM    5  C5  UNL     1      17.758   8.874  11.141  1.00  0.00     0.278 C 
HETATM    6  C3  UNL     1      16.552   6.745  12.422  1.00  0.00     0.040 C 
HETATM    7  C16 UNL     1      16.465   6.667  10.979  1.00  0.00     0.001 C 
HETATM    8  C6  UNL     1      17.122   7.852  10.271  1.00  0.00     0.019 C 
HETATM    9  C7  UNL     1      16.113   8.586   9.368  1.00  0.00     0.009 C 
HETATM   10  C8  UNL     1      15.630   9.837  10.032  1.00  0.00     0.043 C 
BRANCH   6  11
HETATM   11  C2  UNL     1      15.312   6.212  13.132  1.00  0.00    -0.030 C 
HETATM   12  C1  UNL     1      14.991   4.958  13.249  1.00  0.00     0.007 C 
ENDBRANCH   6  11
BRANCH   7  13
HETATM   13  C17 UNL     1      17.083   5.487  10.287  1.00  0.00     0.005 C 
BRANCH  13  14
HETATM   14  C18 UNL     1      16.356   4.537   9.477  1.00  0.00    -0.004 C 
HETATM   15  C19 UNL     1      15.940   4.974   8.112  1.00  0.00     0.005 C 
ENDBRANCH  13  14
ENDBRANCH   7  13
ENDBRANCH   1   2
BRANCH   1  16
HETATM   16  N2  UNL     1      14.262  10.750  13.301  1.00  0.00    -0.367 NA
HETATM   17  C11 UNL     1      13.696  10.690  14.580  1.00  0.00     0.393 C 
HETATM   18  O1  UNL     1      13.684   9.738  15.332  1.00  0.00    -0.230 OA
HETATM   19  N3  UNL     1      13.067  11.904  15.034  1.00  0.00    -0.331 N 
ATOM     20  H3  UNL     1      13.055  12.726  14.429  1.00  0.00     0.165 HD
BRANCH  19  21
HETATM   21  C12 UNL     1      12.457  11.966  16.327  1.00  0.00     0.127 C 
BRANCH  21  22
HETATM   22  C13 UNL     1      13.393  12.711  17.285  1.00  0.00     0.039 C 
BRANCH  22  23
HETATM   23  C14 UNL     1      13.548  11.920  18.559  1.00  0.00     0.126 C 
BRANCH  23  24
HETATM   24  N4  UNL     1      12.809  12.504  19.643  1.00  0.00    -0.343 N 
HETATM   25  C15 UNL     1      13.451  13.204  20.683  1.00  0.00     0.313 C 
HETATM   26  N5  UNL     1      12.753  13.713  21.717  1.00  0.00    -0.352 N 
HETATM   27  O2  UNL     1      14.705  13.350  20.645  1.00  0.00    -0.248 OA
ATOM     28  H52 UNL     1      11.740  13.595  21.747  1.00  0.00     0.160 HD
ATOM     29  H51 UNL     1      13.218  14.220  22.471  1.00  0.00     0.160 HD
ATOM     30  H4  UNL     1      11.794  12.410  19.660  1.00  0.00     0.164 HD
ENDBRANCH  23  24
ENDBRANCH  22  23
ENDBRANCH  21  22
ENDBRANCH  19  21
ENDBRANCH   1  16
TORSDOF 9
ENDMDL
MODEL 3
REMARK VINA RESULT: -8.333943144      2.312      4.077
REMARK  9 active torsions:
REMARK  status: ('A' for Active; 'I' for Inactive)
REMARK    1  A    between atoms: C2_2  and  C3_3 
REMARK    2  A    between atoms: C9_10  and  C10_11 
REMARK    3  A    between atoms: C10_11  and  N2_12 
REMARK       I    between atoms: N2_12  and  C11_13 
REMARK       I    between atoms: C11_13  and  N3_15 
REMARK    4  A    between atoms: N3_15  and  C12_17 
REMARK    5  A    between atoms: C12_17  and  C13_18 
REMARK    6  A    between atoms: C13_18  and  C14_19 
REMARK    7  A    between atoms: C14_19  and  N4_20 
REMARK       I    between atoms: N4_20  and  C15_22 
REMARK       I    between atoms: C15_22  and  N5_23 
REMARK    8  A    between atoms: C16_27  and  C17_28 
REMARK    9  A    between atoms: C17_28  and  C18_29 
ROOT
HETATM    1  C10 UNL     1      16.879   8.941  11.914  1.00  0.00     0.196 C 
ENDROOT
BRANCH   1   2
HETATM    2  C9  UNL     1      16.807   7.944  10.759  1.00  0.00     0.275 C 
HETATM    3  N1  UNL     1      17.944   7.132  10.583  1.00  0.00     0.100 N 
HETATM    4  C4  UNL     1      17.848   5.759  11.004  1.00  0.00     0.282 C 
HETATM    5  C5  UNL     1      18.311   7.027   9.165  1.00  0.00     0.278 C 
HETATM    6  C3  UNL     1      16.945   4.871  10.218  1.00  0.00     0.040 C 
HETATM    7  C16 UNL     1      16.314   5.426   9.039  1.00  0.00     0.001 C 
HETATM    8  C6  UNL     1      17.065   6.627   8.463  1.00  0.00     0.019 C 
HETATM    9  C7  UNL     1      16.157   7.870   8.403  1.00  0.00     0.009 C 
HETATM   10  C8  UNL     1      16.466   8.799   9.536  1.00  0.00     0.043 C 
BRANCH   6  11
HETATM   11  C2  UNL     1      15.947   4.369  11.257  1.00  0.00    -0.030 C 
HETATM   12  C1  UNL     1      15.589   5.010  12.329  1.00  0.00     0.007 C 
ENDBRANCH   6  11
BRANCH   7  13
HETATM   13  C17 UNL     1      16.137   4.543   7.838  1.00  0.00     0.005 C 
BRANCH  13  14
HETATM   14  C18 UNL     1      16.936   4.620   6.637  1.00  0.00    -0.004 C 
HETATM   15  C19 UNL     1      17.953   3.549   6.417  1.00  0.00     0.005 C 
ENDBRANCH  13  14
ENDBRANCH   7  13
ENDBRANCH   1   2
BRANCH   1  16
HETATM   16  N2  UNL     1      15.920   8.995  12.817  1.00  0.00    -0.367 NA
HETATM   17  C11 UNL     1      14.905   9.024  13.781  1.00  0.00     0.393 C 
HETATM   18  O1  UNL     1      14.440   8.079  14.384  1.00  0.00    -0.230 OA
HETATM   19  N3  UNL     1      14.370  10.330  14.075  1.00  0.00    -0.331 N 
ATOM     20  H3  UNL     1      14.734  11.148  13.587  1.00  0.00     0.165 HD
BRANCH  19  21
HETATM   21  C12 UNL     1      13.332  10.486  15.047  1.00  0.00     0.127 C 
BRANCH  21  22
HETATM   22  C13 UNL     1      12.621  11.822  14.806  1.00  0.00     0.039 C 
BRANCH  22  23
HETATM   23  C14 UNL     1      11.872  11.770  13.498  1.00  0.00     0.126 C 
BRANCH  23  24
HETATM   24  N4  UNL     1      12.420  12.683  12.534  1.00  0.00    -0.343 N 
HETATM   25  C15 UNL     1      13.123  12.228  11.401  1.00  0.00     0.313 C 
HETATM   26  N5  UNL     1      13.668  13.094  10.524  1.00  0.00    -0.352 N 
HETATM   27  O2  UNL     1      13.248  10.986  11.211  1.00  0.00    -0.248 OA
ATOM     28  H52 UNL     1      13.567  14.097  10.678  1.00  0.00     0.160 HD
ATOM     29  H51 UNL     1      14.178  12.765   9.704  1.00  0.00     0.160 HD
ATOM     30  H4  UNL     1      12.296  13.685  12.673  1.00  0.00     0.164 HD
ENDBRANCH  23  24
ENDBRANCH  22  23
ENDBRANCH  21  22
ENDBRANCH  19  21
ENDBRANCH   1  16
TORSDOF 9
ENDMDL
MODEL 4
REMARK VINA RESULT: -8.259859844      1.207      1.545
REMARK  9 active torsions:
REMARK  status: ('A' for Active; 'I' for Inactive)
REMARK    1  A    between atoms: C2_2  and  C3_3 
REMARK    2  A    between atoms: C9_10  and  C10_11 
REMARK    3  A    between atoms: C10_11  and  N2_12 
REMARK       I    between atoms: N2_12  and  C11_13 
REMARK       I    between atoms: C11_13  and  N3_15 
REMARK    4  A    between atoms: N3_15  and  C12_17 
REMARK    5  A    between atoms: C12_17  and  C13_18 
REMARK    6  A    between atoms: C13_18  and  C14_19 
REMARK    7  A    between atoms: C14_19  and  N4_20 
REMARK       I    between atoms: N4_20  and  C15_22 
REMARK       I    between atoms: C15_22  and  N5_23 
REMARK    8  A    between atoms: C16_27  and  C17_28 
REMARK    9  A    between atoms: C17_28  and  C18_29 
ROOT
HETATM    1  C10 UNL     1      16.575  10.499  10.437  1.00  0.00     0.196 C 
ENDROOT
BRANCH   1   2
HETATM    2  C9  UNL     1      16.658   9.001  10.153  1.00  0.00     0.275 C 
HETATM    3  N1  UNL     1      17.791   8.344  10.670  1.00  0.00     0.100 N 
HETATM    4  C4  UNL     1      17.603   7.519  11.835  1.00  0.00     0.282 C 
HETATM    5  C5  UNL     1      18.367   7.417   9.687  1.00  0.00     0.278 C 
HETATM    6  C3  UNL     1      16.811   6.268  11.659  1.00  0.00     0.040 C 
HETATM    7  C16 UNL     1      16.378   5.929  10.319  1.00  0.00     0.001 C 
HETATM    8  C6  UNL     1      17.232   6.575   9.228  1.00  0.00     0.019 C 
HETATM    9  C7  UNL     1      16.370   7.442   8.292  1.00  0.00     0.009 C 
HETATM   10  C8  UNL     1      16.524   8.892   8.632  1.00  0.00     0.043 C 
BRANCH   6  11
HETATM   11  C2  UNL     1      15.657   6.437  12.642  1.00  0.00    -0.030 C 
HETATM   12  C1  UNL     1      15.062   5.474  13.278  1.00  0.00     0.007 C 
ENDBRANCH   6  11
BRANCH   7  13
HETATM   13  C17 UNL     1      16.367   4.483   9.915  1.00  0.00     0.005 C 
BRANCH  13  14
HETATM   14  C18 UNL     1      17.199   3.459  10.504  1.00  0.00    -0.004 C 
HETATM   15  C19 UNL     1      18.437   3.071   9.766  1.00  0.00     0.005 C 
ENDBRANCH  13  14
ENDBRANCH   7  13
ENDBRANCH   1   2
BRANCH   1  16
HETATM   16  N2  UNL     1      15.425  11.063  10.750  1.00  0.00    -0.367 NA
HETATM   17  C11 UNL     1      14.196  11.661  11.055  1.00  0.00     0.393 C 
HETATM   18  O1  UNL     1      13.338  12.014  10.272  1.00  0.00    -0.230 OA
HETATM   19  N3  UNL     1      13.942  11.870  12.458  1.00  0.00    -0.331 N 
ATOM     20  H3  UNL     1      14.640  11.588  13.146  1.00  0.00     0.165 HD
BRANCH  19  21
HETATM   21  C12 UNL     1      12.718  12.469  12.892  1.00  0.00     0.127 C 
BRANCH  21  22
HETATM   22  C13 UNL     1      12.269  11.799  14.195  1.00  0.00     0.039 C 
BRANCH  22  23
HETATM   23  C14 UNL     1      12.925  12.482  15.368  1.00  0.00     0.126 C 
BRANCH  23  24
HETATM   24  N4  UNL     1      12.081  12.475  16.530  1.00  0.00    -0.343 N 
HETATM   25  C15 UNL     1      12.195  11.481  17.522  1.00  0.00     0.313 C 
HETATM   26  N5  UNL     1      11.371  11.460  18.587  1.00  0.00    -0.352 N 
HETATM   27  O2  UNL     1      13.084  10.591  17.403  1.00  0.00    -0.248 OA
ATOM     28  H52 UNL     1      10.654  12.179  18.684  1.00  0.00     0.160 HD
ATOM     29  H51 UNL     1      11.453  10.740  19.306  1.00  0.00     0.160 HD
ATOM     30  H4  UNL     1      11.381  13.208  16.640  1.00  0.00     0.164 HD
ENDBRANCH  23  24
ENDBRANCH  22  23
ENDBRANCH  21  22
ENDBRANCH  19  21
ENDBRANCH   1  16
TORSDOF 9
ENDMDL
MODEL 5
REMARK VINA RESULT: -8.177606223      2.368      4.699
REMARK  9 active torsions:
REMARK  status: ('A' for Active; 'I' for Inactive)
REMARK    1  A    between atoms: C2_2  and  C3_3 
REMARK    2  A    between atoms: C9_10  and  C10_11 
REMARK    3  A    between atoms: C10_11  and  N2_12 
REMARK       I    between atoms: N2_12  and  C11_13 
REMARK       I    between atoms: C11_13  and  N3_15 
REMARK    4  A    between atoms: N3_15  and  C12_17 
REMARK    5  A    between atoms: C12_17  and  C13_18 
REMARK    6  A    between atoms: C13_18  and  C14_19 
REMARK    7  A    between atoms: C14_19  and  N4_20 
REMARK       I    between atoms: N4_20  and  C15_22 
REMARK       I    between atoms: C15_22  and  N5_23 
REMARK    8  A    between atoms: C16_27  and  C17_28 
REMARK    9  A    between atoms: C17_28  and  C18_29 
ROOT
HETATM    1  C10 UNL     1      17.050   7.732  12.636  1.00  0.00     0.196 C 
ENDROOT
BRANCH   1   2
HETATM    2  C9  UNL     1      16.984   7.674  11.112  1.00  0.00     0.275 C 
HETATM    3  N1  UNL     1      18.141   7.190  10.469  1.00  0.00     0.100 N 
HETATM    4  C4  UNL     1      18.094   5.853   9.940  1.00  0.00     0.282 C 
HETATM    5  C5  UNL     1      18.483   8.008   9.298  1.00  0.00     0.278 C 
HETATM    6  C3  UNL     1      17.202   5.619   8.769  1.00  0.00     0.040 C 
HETATM    7  C16 UNL     1      16.532   6.767   8.194  1.00  0.00     0.001 C 
HETATM    8  C6  UNL     1      17.235   8.090   8.497  1.00  0.00     0.019 C 
HETATM    9  C7  UNL     1      16.290   9.064   9.224  1.00  0.00     0.009 C 
HETATM   10  C8  UNL     1      16.594   9.092  10.690  1.00  0.00     0.043 C 
BRANCH   6  11
HETATM   11  C2  UNL     1      16.240   4.543   9.263  1.00  0.00    -0.030 C 
HETATM   12  C1  UNL     1      16.132   4.137  10.493  1.00  0.00     0.007 C 
ENDBRANCH   6  11
BRANCH   7  13
HETATM   13  C17 UNL     1      16.357   6.821   6.704  1.00  0.00     0.005 C 
BRANCH  13  14
HETATM   14  C18 UNL     1      17.344   7.329   5.779  1.00  0.00    -0.004 C 
HETATM   15  C19 UNL     1      18.536   6.473   5.507  1.00  0.00     0.005 C 
ENDBRANCH  13  14
ENDBRANCH   7  13
ENDBRANCH   1   2
BRANCH   1  16
HETATM   16  N2  UNL     1      15.988   8.064  13.344  1.00  0.00    -0.367 NA
HETATM   17  C11 UNL     1      14.857   8.388  14.104  1.00  0.00     0.393 C 
HETATM   18  O1  UNL     1      14.160   7.627  14.742  1.00  0.00    -0.230 OA
HETATM   19  N3  UNL     1      14.503   9.785  14.117  1.00  0.00    -0.331 N 
ATOM     20  H3  UNL     1      15.063  10.455  13.591  1.00  0.00     0.165 HD
BRANCH  19  21
HETATM   21  C12 UNL     1      13.369  10.238  14.863  1.00  0.00     0.127 C 
BRANCH  21  22
HETATM   22  C13 UNL     1      13.282  11.764  14.761  1.00  0.00     0.039 C 
BRANCH  22  23
HETATM   23  C14 UNL     1      12.250  12.146  13.730  1.00  0.00     0.126 C 
BRANCH  23  24
HETATM   24  N4  UNL     1      12.836  12.857  12.627  1.00  0.00    -0.343 N 
HETATM   25  C15 UNL     1      13.257  12.192  11.459  1.00  0.00     0.313 C 
HETATM   26  N5  UNL     1      13.843  12.862  10.447  1.00  0.00    -0.352 N 
HETATM   27  O2  UNL     1      13.088  10.944  11.365  1.00  0.00    -0.248 OA
ATOM     28  H52 UNL     1      13.980  13.870  10.523  1.00  0.00     0.160 HD
ATOM     29  H51 UNL     1      14.149  12.381   9.601  1.00  0.00     0.160 HD
ATOM     30  H4  UNL     1      12.949  13.868  12.692  1.00  0.00     0.164 HD
ENDBRANCH  23  24
ENDBRANCH  22  23
ENDBRANCH  21  22
ENDBRANCH  19  21
ENDBRANCH   1  16
TORSDOF 9
ENDMDL
