MODEL 1
REMARK VINA RESULT: -8.186386123      0.000      0.000
REMARK  10 active torsions:
REMARK  status: ('A' for Active; 'I' for Inactive)
REMARK    1  A    between atoms: N1_2  and  C3_4 
REMARK    2  A    between atoms: C3_4  and  C4_5 
REMARK    3  A    between atoms: C9_10  and  N2_11 
REMARK       I    between atoms: N2_11  and  C10_13 
REMARK    4  A    between atoms: C10_13  and  C11_15 
REMARK    5  A    between atoms: C11_15  and  C12_16 
REMARK    6  A    between atoms: C11_15  and  N3_23 
REMARK    7  A    between atoms: C12_16  and  C13_17 
REMARK    8  A    between atoms: N3_23  and  C19_25 
REMARK    9  A    between atoms: C19_25  and  C20_29 
REMARK   10  A    between atoms: C20_29  and  N5_30 
ROOT
HETATM    1  C11 UNL     1      14.555  10.627  13.014  1.00  0.00     0.175 C 
ENDROOT
BRANCH   1   2
HETATM    2  C10 UNL     1      15.779  10.027  12.444  1.00  0.00     0.240 C 
HETATM    3  N2  UNL     1      16.254  10.333  11.168  1.00  0.00    -0.354 N 
ATOM      4  H2  UNL     1      15.726  11.006  10.613  1.00  0.00     0.162 HD
HETATM    5  O1  UNL     1      16.423   9.213  13.131  1.00  0.00    -0.271 OA
BRANCH   3   6
HETATM    6  C9  UNL     1      17.448   9.756  10.577  1.00  0.00     0.090 C 
HETATM    7  C4  UNL     1      17.248   8.301  10.197  1.00  0.00     0.036 C 
HETATM    8  C5  UNL     1      16.386   8.302   8.958  1.00  0.00     0.008 C 
HETATM    9  C6  UNL     1      17.198   8.894   7.852  1.00  0.00     0.001 C 
HETATM   10  C7  UNL     1      17.726  10.260   8.104  1.00  0.00     0.002 C 
HETATM   11  C8  UNL     1      18.062  10.580   9.502  1.00  0.00     0.026 C 
BRANCH   7  12
HETATM   12  C3  UNL     1      18.580   7.641   9.947  1.00  0.00     0.278 C 
BRANCH  12  13
HETATM   13  N1  UNL     1      18.471   6.227  10.268  1.00  0.00     0.080 N 
HETATM   14  C1  UNL     1      18.847   5.390   9.159  1.00  0.00     0.309 C 
HETATM   15  C2  UNL     1      19.344   5.940  11.381  1.00  0.00     0.309 C 
ENDBRANCH  12  13
ENDBRANCH   7  12
ENDBRANCH   3   6
ENDBRANCH   1   2
BRANCH   1  16
HETATM   16  C12 UNL     1      14.183   9.933  14.244  1.00  0.00     0.039 C 
BRANCH  16  17
HETATM   17  C13 UNL     1      13.390  10.627  15.294  1.00  0.00    -0.012 C 
HETATM   18  C14 UNL     1      13.686  12.090  15.490  1.00  0.00     0.005 C 
HETATM   19  C15 UNL     1      12.419  12.774  16.063  1.00  0.00     0.000 C 
HETATM   20  C16 UNL     1      11.873  11.815  17.094  1.00  0.00     0.000 C 
HETATM   21  C17 UNL     1      12.970  10.939  17.673  1.00  0.00     0.000 C 
HETATM   22  C18 UNL     1      13.516   9.971  16.654  1.00  0.00     0.005 C 
ENDBRANCH  16  17
ENDBRANCH   1  16
BRANCH   1  23
HETATM   23  N3  UNL     1      13.601  10.862  11.991  1.00  0.00    -0.365 N 
ATOM     24  H3  UNL     1      13.226  10.095  11.432  1.00  0.00     0.161 HD
BRANCH  23  25
HETATM   25  C19 UNL     1      13.179  12.220  11.768  1.00  0.00     0.097 C 
HETATM   26  N4  UNL     1      13.834  12.974  10.959  1.00  0.00    -0.388 N 
ATOM     27  H42 UNL     1      14.654  12.594  10.487  1.00  0.00     0.157 HD
ATOM     28  H41 UNL     1      13.535  13.936  10.801  1.00  0.00     0.157 HD
BRANCH  25  29
HETATM   29  C20 UNL     1      11.992  12.770  12.450  1.00  0.00     0.304 C 
BRANCH  29  30
HETATM   30  N5  UNL     1      11.121  11.679  12.895  1.00  0.00    -0.073 N 
ATOM     31  H53 UNL     1      11.219  10.848  12.311  1.00  0.00     0.274 HD
ATOM     32  H52 UNL     1      11.433  11.276  13.778  1.00  0.00     0.274 HD
ATOM     33  H51 UNL     1      10.155  12.002  12.941  1.00  0.00     0.274 HD
ENDBRANCH  29  30
ENDBRANCH  25  29
ENDBRANCH  23  25
ENDBRANCH   1  23
TORSDOF 10
ENDMDL
MODEL 2
REMARK VINA RESULT: -8.126138845      0.436      1.070
REMARK  10 active torsions:
REMARK  status: ('A' for Active; 'I' for Inactive)
REMARK    1  A    between atoms: N1_2  and  C3_4 
REMARK    2  A    between atoms: C3_4  and  C4_5 
REMARK    3  A    between atoms: C9_10  and  N2_11 
REMARK       I    between atoms: N2_11  and  C10_13 
REMARK    4  A    between atoms: C10_13  and  C11_15 
REMARK    5  A    between atoms: C11_15  and  C12_16 
REMARK    6  A    between atoms: C11_15  and  N3_23 
REMARK    7  A    between atoms: C12_16  and  C13_17 
REMARK    8  A    between atoms: N3_23  and  C19_25 
REMARK    9  A    between atoms: C19_25  and  C20_29 
REMARK   10  A    between atoms: C20_29  and  N5_30 
ROOT
HETATM    1  C11 UNL     1      14.359  10.592  13.274  1.00  0.00     0.175 C 
ENDROOT
BRANCH   1   2
HETATM    2  C10 UNL     1      15.579  10.023  12.666  1.00  0.00     0.240 C 
HETATM    3  N2  UNL     1      16.127  10.495  11.473  1.00  0.00    -0.354 N 
ATOM      4  H2  UNL     1      15.658  11.273  11.010  1.00  0.00     0.162 HD
HETATM    5  O1  UNL     1      16.150   9.078  13.242  1.00  0.00    -0.271 OA
BRANCH   3   6
HETATM    6  C9  UNL     1      17.319   9.953  10.846  1.00  0.00     0.090 C 
HETATM    7  C4  UNL     1      17.129   8.510  10.418  1.00  0.00     0.036 C 
HETATM    8  C5  UNL     1      16.250   8.544   9.191  1.00  0.00     0.008 C 
HETATM    9  C6  UNL     1      17.040   9.183   8.096  1.00  0.00     0.001 C 
HETATM   10  C7  UNL     1      17.557  10.546   8.388  1.00  0.00     0.002 C 
HETATM   11  C8  UNL     1      17.909  10.821   9.791  1.00  0.00     0.026 C 
BRANCH   7  12
HETATM   12  C3  UNL     1      18.465   7.874  10.127  1.00  0.00     0.278 C 
BRANCH  12  13
HETATM   13  N1  UNL     1      18.362   6.442  10.351  1.00  0.00     0.080 N 
HETATM   14  C1  UNL     1      18.727   5.684   9.184  1.00  0.00     0.309 C 
HETATM   15  C2  UNL     1      19.247   6.080  11.433  1.00  0.00     0.309 C 
ENDBRANCH  12  13
ENDBRANCH   7  12
ENDBRANCH   3   6
ENDBRANCH   1   2
BRANCH   1  16
HETATM   16  C12 UNL     1      14.045   9.892  14.516  1.00  0.00     0.039 C 
BRANCH  16  17
HETATM   17  C13 UNL     1      13.273  10.568  15.592  1.00  0.00    -0.012 C 
HETATM   18  C14 UNL     1      13.503  12.049  15.744  1.00  0.00     0.005 C 
HETATM   19  C15 UNL     1      12.235  12.682  16.369  1.00  0.00     0.000 C 
HETATM   20  C16 UNL     1      11.791  11.720  17.446  1.00  0.00     0.000 C 
HETATM   21  C17 UNL     1      12.960  10.912  17.983  1.00  0.00     0.000 C 
HETATM   22  C18 UNL     1      13.501   9.950  16.956  1.00  0.00     0.005 C 
ENDBRANCH  16  17
ENDBRANCH   1  16
BRANCH   1  23
HETATM   23  N3  UNL     1      13.367  10.802  12.282  1.00  0.00    -0.365 N 
ATOM     24  H3  UNL     1      13.282  10.177  11.480  1.00  0.00     0.161 HD
BRANCH  23  25
HETATM   25  C19 UNL     1      12.484  11.928  12.445  1.00  0.00     0.097 C 
HETATM   26  N4  UNL     1      11.273  11.746  12.833  1.00  0.00    -0.388 N 
ATOM     27  H42 UNL     1      10.952  10.795  13.015  1.00  0.00     0.157 HD
ATOM     28  H41 UNL     1      10.647  12.543  12.949  1.00  0.00     0.157 HD
BRANCH  25  29
HETATM   29  C20 UNL     1      12.949  13.303  12.183  1.00  0.00     0.304 C 
BRANCH  29  30
HETATM   30  N5  UNL     1      13.728  13.339  10.942  1.00  0.00    -0.073 N 
ATOM     31  H53 UNL     1      14.728  13.233  11.115  1.00  0.00     0.274 HD
ATOM     32  H52 UNL     1      13.585  12.503  10.376  1.00  0.00     0.274 HD
ATOM     33  H51 UNL     1      13.518  14.193  10.425  1.00  0.00     0.274 HD
ENDBRANCH  29  30
ENDBRANCH  25  29
ENDBRANCH  23  25
ENDBRANCH   1  23
TORSDOF 10
ENDMDL
MODEL 3
REMARK VINA RESULT: -8.068833804      1.435      2.091
REMARK  10 active torsions:
REMARK  status: ('A' for Active; 'I' for Inactive)
REMARK    1  A    between atoms: N1_2  and  C3_4 
REMARK    2  A    between atoms: C3_4  and  C4_5 
REMARK    3  A    between atoms: C9_10  and  N2_11 
REMARK       I    between atoms: N2_11  and  C10_13 
REMARK    4  A    between atoms: C10_13  and  C11_15 
REMARK    5  A    between atoms: C11_15  and  C12_16 
REMARK    6  A    between atoms: C11_15  and  N3_23 
REMARK    7  A    between atoms: C12_16  and  C13_17 
REMARK    8  A    between atoms: N3_23  and  C19_25 
REMARK    9  A    between atoms: C19_25  and  C20_29 
REMARK   10  A    between atoms: C20_29  and  N5_30 
ROOT
HETATM    1  C11 UNL     1      14.587  10.702  12.905  1.00  0.00     0.175 C 
ENDROOT
BRANCH   1   2
HETATM    2  C10 UNL     1      15.805  10.098  12.326  1.00  0.00     0.240 C 
HETATM    3  N2  UNL     1      15.874   8.765  11.919  1.00  0.00    -0.354 N 
ATOM      4  H2  UNL     1      15.037   8.192  12.026  1.00  0.00     0.162 HD
HETATM    5  O1  UNL     1      16.819  10.807  12.190  1.00  0.00    -0.271 OA
BRANCH   3   6
HETATM    6  C9  UNL     1      17.056   8.139  11.353  1.00  0.00     0.090 C 
HETATM    7  C4  UNL     1      17.501   6.934  12.160  1.00  0.00     0.036 C 
HETATM    8  C5  UNL     1      16.517   5.831  11.851  1.00  0.00     0.008 C 
HETATM    9  C6  UNL     1      16.715   5.448  10.420  1.00  0.00     0.001 C 
HETATM   10  C7  UNL     1      16.568   6.550   9.434  1.00  0.00     0.002 C 
HETATM   11  C8  UNL     1      16.979   7.889   9.889  1.00  0.00     0.026 C 
BRANCH   7  12
HETATM   12  C3  UNL     1      18.907   6.546  11.782  1.00  0.00     0.278 C 
BRANCH  12  13
HETATM   13  N1  UNL     1      19.665   6.285  12.995  1.00  0.00     0.080 N 
HETATM   14  C1  UNL     1      20.954   5.710  12.715  1.00  0.00     0.309 C 
HETATM   15  C2  UNL     1      19.857   7.532  13.696  1.00  0.00     0.309 C 
ENDBRANCH  12  13
ENDBRANCH   7  12
ENDBRANCH   3   6
ENDBRANCH   1   2
BRANCH   1  16
HETATM   16  C12 UNL     1      14.235  10.024  14.150  1.00  0.00     0.039 C 
BRANCH  16  17
HETATM   17  C13 UNL     1      13.425  10.716  15.186  1.00  0.00    -0.012 C 
HETATM   18  C14 UNL     1      13.722  12.178  15.395  1.00  0.00     0.005 C 
HETATM   19  C15 UNL     1      12.448  12.865  15.944  1.00  0.00     0.000 C 
HETATM   20  C16 UNL     1      11.876  11.905  16.960  1.00  0.00     0.000 C 
HETATM   21  C17 UNL     1      12.958  11.021  17.557  1.00  0.00     0.000 C 
HETATM   22  C18 UNL     1      13.520  10.054  16.545  1.00  0.00     0.005 C 
ENDBRANCH  16  17
ENDBRANCH   1  16
BRANCH   1  23
HETATM   23  N3  UNL     1      13.618  10.923  11.893  1.00  0.00    -0.365 N 
ATOM     24  H3  UNL     1      13.254  10.151  11.334  1.00  0.00     0.161 HD
BRANCH  23  25
HETATM   25  C19 UNL     1      13.167  12.273  11.682  1.00  0.00     0.097 C 
HETATM   26  N4  UNL     1      13.839  13.067  10.928  1.00  0.00    -0.388 N 
ATOM     27  H42 UNL     1      14.696  12.725  10.492  1.00  0.00     0.157 HD
ATOM     28  H41 UNL     1      13.519  14.024  10.778  1.00  0.00     0.157 HD
BRANCH  25  29
HETATM   29  C20 UNL     1      11.928  12.769  12.312  1.00  0.00     0.304 C 
BRANCH  29  30
HETATM   30  N5  UNL     1      11.162  11.646  12.859  1.00  0.00    -0.073 N 
ATOM     31  H53 UNL     1      10.247  11.555  12.418  1.00  0.00     0.274 HD
ATOM     32  H52 UNL     1      11.551  10.745  12.581  1.00  0.00     0.274 HD
ATOM     33  H51 UNL     1      11.090  11.735  13.873  1.00  0.00     0.274 HD
ENDBRANCH  29  30
ENDBRANCH  25  29
ENDBRANCH  23  25
ENDBRANCH   1  23
TORSDOF 10
ENDMDL
MODEL 4
REMARK VINA RESULT: -7.908521076      2.789      3.720
REMARK  10 active torsions:
REMARK  status: ('A' for Active; 'I' for Inactive)
REMARK    1  A    between atoms: N1_2  and  C3_4 
REMARK    2  A    between atoms: C3_4  and  C4_5 
REMARK    3  A    between atoms: C9_10  and  N2_11 
REMARK       I    between atoms: N2_11  and  C10_13 
REMARK    4  A    between atoms: C10_13  and  C11_15 
REMARK    5  A    between atoms: C11_15  and  C12_16 
REMARK    6  A    between atoms: C11_15  and  N3_23 
REMARK    7  A    between atoms: C12_16  and  C13_17 
REMARK    8  A    between atoms: N3_23  and  C19_25 
REMARK    9  A    between atoms: C19_25  and  C20_29 
REMARK   10  A    between atoms: C20_29  and  N5_30 
ROOT
HETATM    1  C11 UNL     1      14.817  10.002  13.141  1.00  0.00     0.175 C 
ENDROOT
BRANCH   1   2
HETATM    2  C10 UNL     1      15.864   8.979  12.944  1.00  0.00     0.240 C 
HETATM    3  N2  UNL     1      15.606   7.609  12.980  1.00  0.00    -0.354 N 
ATOM      4  H2  UNL     1      14.645   7.310  13.147  1.00  0.00     0.162 HD
HETATM    5  O1  UNL     1      17.034   9.352  12.733  1.00  0.00    -0.271 OA
BRANCH   3   6
HETATM    6  C9  UNL     1      16.613   6.578  12.798  1.00  0.00     0.090 C 
HETATM    7  C4  UNL     1      16.341   5.360  13.660  1.00  0.00     0.036 C 
HETATM    8  C5  UNL     1      15.186   4.634  13.014  1.00  0.00     0.008 C 
HETATM    9  C6  UNL     1      15.673   4.097  11.708  1.00  0.00     0.001 C 
HETATM   10  C7  UNL     1      16.230   5.103  10.767  1.00  0.00     0.002 C 
HETATM   11  C8  UNL     1      16.914   6.256  11.377  1.00  0.00     0.026 C 
BRANCH   7  12
HETATM   12  C3  UNL     1      17.571   4.491  13.735  1.00  0.00     0.278 C 
BRANCH  12  13
HETATM   13  N1  UNL     1      17.821   4.150  15.126  1.00  0.00     0.080 N 
HETATM   14  C1  UNL     1      17.165   5.056  16.032  1.00  0.00     0.309 C 
HETATM   15  C2  UNL     1      17.328   2.815  15.369  1.00  0.00     0.309 C 
ENDBRANCH  12  13
ENDBRANCH   7  12
ENDBRANCH   3   6
ENDBRANCH   1   2
BRANCH   1  16
HETATM   16  C12 UNL     1      14.030   9.690  14.331  1.00  0.00     0.039 C 
BRANCH  16  17
HETATM   17  C13 UNL     1      13.725  10.744  15.335  1.00  0.00    -0.012 C 
HETATM   18  C14 UNL     1      13.289  10.261  16.693  1.00  0.00     0.005 C 
HETATM   19  C15 UNL     1      13.655  11.342  17.741  1.00  0.00     0.000 C 
HETATM   20  C16 UNL     1      13.307  12.663  17.096  1.00  0.00     0.000 C 
HETATM   21  C17 UNL     1      12.205  12.503  16.062  1.00  0.00     0.000 C 
HETATM   22  C18 UNL     1      12.668  11.719  14.860  1.00  0.00     0.005 C 
ENDBRANCH  16  17
ENDBRANCH   1  16
BRANCH   1  23
HETATM   23  N3  UNL     1      14.188  10.306  11.908  1.00  0.00    -0.365 N 
ATOM     24  H3  UNL     1      13.486   9.684  11.506  1.00  0.00     0.161 HD
BRANCH  23  25
HETATM   25  C19 UNL     1      14.573  11.523  11.241  1.00  0.00     0.097 C 
HETATM   26  N4  UNL     1      15.808  11.742  10.962  1.00  0.00    -0.388 N 
ATOM     27  H42 UNL     1      16.503  11.044  11.226  1.00  0.00     0.157 HD
ATOM     28  H41 UNL     1      16.081  12.604  10.490  1.00  0.00     0.157 HD
BRANCH  25  29
HETATM   29  C20 UNL     1      13.567  12.533  10.859  1.00  0.00     0.304 C 
BRANCH  29  30
HETATM   30  N5  UNL     1      12.263  12.178  11.425  1.00  0.00    -0.073 N 
ATOM     31  H53 UNL     1      12.058  11.183  11.323  1.00  0.00     0.274 HD
ATOM     32  H52 UNL     1      12.262  12.224  12.444  1.00  0.00     0.274 HD
ATOM     33  H51 UNL     1      11.535  12.762  11.015  1.00  0.00     0.274 HD
ENDBRANCH  29  30
ENDBRANCH  25  29
ENDBRANCH  23  25
ENDBRANCH   1  23
TORSDOF 10
ENDMDL
MODEL 5
REMARK VINA RESULT: -7.876334285      2.323      3.680
REMARK  10 active torsions:
REMARK  status: ('A' for Active; 'I' for Inactive)
REMARK    1  A    between atoms: N1_2  and  C3_4 
REMARK    2  A    between atoms: C3_4  and  C4_5 
REMARK    3  A    between atoms: C9_10  and  N2_11 
REMARK       I    between atoms: N2_11  and  C10_13 
REMARK    4  A    between atoms: C10_13  and  C11_15 
REMARK    5  A    between atoms: C11_15  and  C12_16 
REMARK    6  A    between atoms: C11_15  and  N3_23 
REMARK    7  A    between atoms: C12_16  and  C13_17 
REMARK    8  A    between atoms: N3_23  and  C19_25 
REMARK    9  A    between atoms: C19_25  and  C20_29 
REMARK   10  A    between atoms: C20_29  and  N5_30 
ROOT
HETATM    1  C11 UNL     1      15.370  10.159  11.953  1.00  0.00     0.175 C 
ENDROOT
BRANCH   1   2
HETATM    2  C10 UNL     1      16.407   9.571  11.080  1.00  0.00     0.240 C 
HETATM    3  N2  UNL     1      16.162   8.495  10.226  1.00  0.00    -0.354 N 
ATOM      4  H2  UNL     1      15.219   8.108  10.208  1.00  0.00     0.162 HD
HETATM    5  O1  UNL     1      17.554  10.055  11.102  1.00  0.00    -0.271 OA
BRANCH   3   6
HETATM    6  C9  UNL     1      17.160   7.890   9.361  1.00  0.00     0.090 C 
HETATM    7  C4  UNL     1      17.507   6.479   9.798  1.00  0.00     0.036 C 
HETATM    8  C5  UNL     1      16.337   5.612   9.399  1.00  0.00     0.008 C 
HETATM    9  C6  UNL     1      16.304   5.571   7.906  1.00  0.00     0.001 C 
HETATM   10  C7  UNL     1      16.212   6.890   7.228  1.00  0.00     0.002 C 
HETATM   11  C8  UNL     1      16.873   8.017   7.907  1.00  0.00     0.026 C 
BRANCH   7  12
HETATM   12  C3  UNL     1      18.783   6.029   9.134  1.00  0.00     0.278 C 
BRANCH  12  13
HETATM   13  N1  UNL     1      19.207   4.774   9.733  1.00  0.00     0.080 N 
HETATM   14  C1  UNL     1      20.224   4.119   8.953  1.00  0.00     0.309 C 
HETATM   15  C2  UNL     1      19.736   5.046  11.048  1.00  0.00     0.309 C 
ENDBRANCH  12  13
ENDBRANCH   7  12
ENDBRANCH   3   6
ENDBRANCH   1   2
BRANCH   1  16
HETATM   16  C12 UNL     1      15.253   9.382  13.184  1.00  0.00     0.039 C 
BRANCH  16  17
HETATM   17  C13 UNL     1      15.680   7.958  13.224  1.00  0.00    -0.012 C 
HETATM   18  C14 UNL     1      14.810   7.026  14.025  1.00  0.00     0.005 C 
HETATM   19  C15 UNL     1      14.964   5.596  13.451  1.00  0.00     0.000 C 
HETATM   20  C16 UNL     1      16.437   5.433  13.161  1.00  0.00     0.000 C 
HETATM   21  C17 UNL     1      17.280   6.323  14.058  1.00  0.00     0.000 C 
HETATM   22  C18 UNL     1      17.094   7.785  13.740  1.00  0.00     0.005 C 
ENDBRANCH  16  17
ENDBRANCH   1  16
BRANCH   1  23
HETATM   23  N3  UNL     1      14.224  10.503  11.193  1.00  0.00    -0.365 N 
ATOM     24  H3  UNL     1      13.833   9.857  10.507  1.00  0.00     0.161 HD
BRANCH  23  25
HETATM   25  C19 UNL     1      13.630  11.794  11.421  1.00  0.00     0.097 C 
HETATM   26  N4  UNL     1      13.945  12.790  10.672  1.00  0.00    -0.388 N 
ATOM     27  H42 UNL     1      14.621  12.647   9.922  1.00  0.00     0.157 HD
ATOM     28  H41 UNL     1      13.524  13.705  10.834  1.00  0.00     0.157 HD
BRANCH  25  29
HETATM   29  C20 UNL     1      12.651  12.001  12.505  1.00  0.00     0.304 C 
BRANCH  29  30
HETATM   30  N5  UNL     1      11.397  12.520  11.953  1.00  0.00    -0.073 N 
ATOM     31  H53 UNL     1      11.054  13.327  12.474  1.00  0.00     0.274 HD
ATOM     32  H52 UNL     1      11.535  12.974  11.050  1.00  0.00     0.274 HD
ATOM     33  H51 UNL     1      10.703  11.774  11.904  1.00  0.00     0.274 HD
ENDBRANCH  29  30
ENDBRANCH  25  29
ENDBRANCH  23  25
ENDBRANCH   1  23
TORSDOF 10
ENDMDL
