MODEL 1
REMARK VINA RESULT: -7.969251095      0.000      0.000
REMARK  10 active torsions:
REMARK  status: ('A' for Active; 'I' for Inactive)
REMARK       I    between atoms: C2_4  and  N2_5 
REMARK       I    between atoms: C2_4  and  N4_25 
REMARK    1  A    between atoms: N2_5  and  C3_7 
REMARK    2  A    between atoms: C3_7  and  C4_8 
REMARK    3  A    between atoms: C4_8  and  C5_9 
REMARK    4  A    between atoms: C5_9  and  N3_10 
REMARK       I    between atoms: N3_10  and  C6_12 
REMARK    5  A    between atoms: C6_12  and  C7_14 
REMARK    6  A    between atoms: C7_14  and  C8_15 
REMARK    7  A    between atoms: C8_15  and  C9_16 
REMARK    8  A    between atoms: C9_16  and  C10_17 
REMARK    9  A    between atoms: C10_17  and  C11_18 
REMARK   10  A    between atoms: N4_25  and  C17_27 
ROOT
HETATM    1  C5  UNL     1      16.429   7.794  12.170  1.00  0.00     0.124 C 
ENDROOT
BRANCH   1   2
HETATM    2  C4  UNL     1      15.524   8.222  13.261  1.00  0.00     0.040 C 
BRANCH   2   3
HETATM    3  C3  UNL     1      15.150   9.672  13.285  1.00  0.00     0.139 C 
BRANCH   3   4
HETATM    4  N2  UNL     1      13.962   9.967  13.989  1.00  0.00    -0.226 N 
HETATM    5  C2  UNL     1      13.514  11.252  14.336  1.00  0.00     0.674 C 
HETATM    6  N1  UNL     1      12.966  11.456  15.500  1.00  0.00    -0.231 N 
HETATM    7  N4  UNL     1      13.640  12.316  13.411  1.00  0.00    -0.182 N 
HETATM    8  C1  UNL     1      12.517  12.779  15.827  1.00  0.00     0.165 C 
ATOM      9  H1  UNL     1      12.858  10.691  16.166  1.00  0.00     0.177 HD
ATOM     10  H4  UNL     1      14.276  13.087  13.614  1.00  0.00     0.185 HD
ATOM     11  H2  UNL     1      13.378   9.178  14.270  1.00  0.00     0.177 HD
BRANCH   7  12
HETATM   12  C17 UNL     1      12.897  12.322  12.213  1.00  0.00     0.087 C 
HETATM   13  C18 UNL     1      13.595  12.168  10.911  1.00  0.00     0.089 C 
HETATM   14  N5  UNL     1      11.618  12.462  12.244  1.00  0.00    -0.389 N 
ATOM     15  H52 UNL     1      11.138  12.568  13.138  1.00  0.00     0.157 HD
ATOM     16  H51 UNL     1      11.080  12.466  11.378  1.00  0.00     0.157 HD
ENDBRANCH   7  12
ENDBRANCH   3   4
ENDBRANCH   2   3
ENDBRANCH   1   2
BRANCH   1  17
HETATM   17  N3  UNL     1      16.718   8.885  11.268  1.00  0.00    -0.361 N 
HETATM   18  C6  UNL     1      18.011   9.080  10.744  1.00  0.00     0.217 C 
HETATM   19  O1  UNL     1      18.952   8.336  11.036  1.00  0.00    -0.274 OA
ATOM     20  H3  UNL     1      15.970   9.527  11.006  1.00  0.00     0.162 HD
BRANCH  18  21
HETATM   21  C7  UNL     1      18.290  10.214   9.803  1.00  0.00     0.103 C 
BRANCH  21  22
HETATM   22  C8  UNL     1      17.206  10.277   8.775  1.00  0.00     0.009 C 
BRANCH  22  23
HETATM   23  C9  UNL     1      17.201   9.031   7.959  1.00  0.00     0.001 C 
BRANCH  23  24
HETATM   24  C10 UNL     1      18.026   9.132   6.697  1.00  0.00     0.005 C 
BRANCH  24  25
HETATM   25  C11 UNL     1      18.323   7.695   6.261  1.00  0.00    -0.006 C 
HETATM   26  C12 UNL     1      19.142   7.082   7.345  1.00  0.00     0.014 C 
HETATM   27  C13 UNL     1      19.202   5.590   7.134  1.00  0.00     0.054 C 
HETATM   28  S1  UNL     1      17.520   5.260   6.592  1.00  0.00    -0.261 SA
HETATM   29  C14 UNL     1      16.530   4.609   7.912  1.00  0.00     0.068 C 
HETATM   30  C15 UNL     1      17.478   4.251   5.120  1.00  0.00     0.068 C 
HETATM   31  C16 UNL     1      17.000   6.967   6.228  1.00  0.00     0.058 C 
ENDBRANCH  24  25
ENDBRANCH  23  24
ENDBRANCH  22  23
ENDBRANCH  21  22
ENDBRANCH  18  21
ENDBRANCH   1  17
TORSDOF 10
ENDMDL
MODEL 2
REMARK VINA RESULT: -7.945979623      2.459      4.220
REMARK  10 active torsions:
REMARK  status: ('A' for Active; 'I' for Inactive)
REMARK       I    between atoms: C2_4  and  N2_5 
REMARK       I    between atoms: C2_4  and  N4_25 
REMARK    1  A    between atoms: N2_5  and  C3_7 
REMARK    2  A    between atoms: C3_7  and  C4_8 
REMARK    3  A    between atoms: C4_8  and  C5_9 
REMARK    4  A    between atoms: C5_9  and  N3_10 
REMARK       I    between atoms: N3_10  and  C6_12 
REMARK    5  A    between atoms: C6_12  and  C7_14 
REMARK    6  A    between atoms: C7_14  and  C8_15 
REMARK    7  A    between atoms: C8_15  and  C9_16 
REMARK    8  A    between atoms: C9_16  and  C10_17 
REMARK    9  A    between atoms: C10_17  and  C11_18 
REMARK   10  A    between atoms: N4_25  and  C17_27 
ROOT
HETATM    1  C5  UNL     1      13.095  12.230  12.913  1.00  0.00     0.124 C 
ENDROOT
BRANCH   1   2
HETATM    2  C4  UNL     1      12.736  11.889  14.310  1.00  0.00     0.040 C 
BRANCH   2   3
HETATM    3  C3  UNL     1      13.044  12.926  15.347  1.00  0.00     0.139 C 
BRANCH   3   4
HETATM    4  N2  UNL     1      12.194  12.905  16.476  1.00  0.00    -0.226 N 
HETATM    5  C2  UNL     1      12.354  12.085  17.605  1.00  0.00     0.674 C 
HETATM    6  N1  UNL     1      11.310  11.545  18.166  1.00  0.00    -0.231 N 
HETATM    7  N4  UNL     1      13.645  11.867  18.140  1.00  0.00    -0.182 N 
HETATM    8  C1  UNL     1      11.503  10.712  19.319  1.00  0.00     0.165 C 
ATOM      9  H1  UNL     1      10.375  11.711  17.795  1.00  0.00     0.177 HD
ATOM     10  H4  UNL     1      14.059  10.935  18.093  1.00  0.00     0.185 HD
ATOM     11  H2  UNL     1      11.397  13.542  16.470  1.00  0.00     0.177 HD
BRANCH   7  12
HETATM   12  C17 UNL     1      14.367  12.921  18.738  1.00  0.00     0.087 C 
HETATM   13  C18 UNL     1      15.663  13.351  18.154  1.00  0.00     0.089 C 
HETATM   14  N5  UNL     1      13.906  13.508  19.786  1.00  0.00    -0.389 N 
ATOM     15  H52 UNL     1      13.017  13.213  20.187  1.00  0.00     0.157 HD
ATOM     16  H51 UNL     1      14.428  14.271  20.219  1.00  0.00     0.157 HD
ENDBRANCH   7  12
ENDBRANCH   3   4
ENDBRANCH   2   3
ENDBRANCH   1   2
BRANCH   1  17
HETATM   17  N3  UNL     1      14.425  11.773  12.586  1.00  0.00    -0.361 N 
HETATM   18  C6  UNL     1      14.667  10.972  11.452  1.00  0.00     0.217 C 
HETATM   19  O1  UNL     1      13.757  10.621  10.696  1.00  0.00    -0.274 OA
ATOM     20  H3  UNL     1      15.206  12.034  13.188  1.00  0.00     0.162 HD
BRANCH  18  21
HETATM   21  C7  UNL     1      16.056  10.513  11.124  1.00  0.00     0.103 C 
BRANCH  21  22
HETATM   22  C8  UNL     1      16.147  10.231   9.658  1.00  0.00     0.009 C 
BRANCH  22  23
HETATM   23  C9  UNL     1      17.529  10.499   9.170  1.00  0.00     0.001 C 
BRANCH  23  24
HETATM   24  C10 UNL     1      18.370   9.253   9.023  1.00  0.00     0.005 C 
BRANCH  24  25
HETATM   25  C11 UNL     1      17.685   8.396   7.954  1.00  0.00    -0.006 C 
HETATM   26  C12 UNL     1      18.101   8.949   6.634  1.00  0.00     0.014 C 
HETATM   27  C13 UNL     1      17.725   7.971   5.550  1.00  0.00     0.054 C 
HETATM   28  S1  UNL     1      18.114   6.412   6.355  1.00  0.00    -0.261 SA
HETATM   29  C14 UNL     1      19.675   5.771   5.806  1.00  0.00     0.068 C 
HETATM   30  C15 UNL     1      16.782   5.232   6.207  1.00  0.00     0.068 C 
HETATM   31  C16 UNL     1      18.270   7.009   8.068  1.00  0.00     0.058 C 
ENDBRANCH  24  25
ENDBRANCH  23  24
ENDBRANCH  22  23
ENDBRANCH  21  22
ENDBRANCH  18  21
ENDBRANCH   1  17
TORSDOF 10
ENDMDL
MODEL 3
REMARK VINA RESULT: -7.940342398      3.805      9.457
REMARK  10 active torsions:
REMARK  status: ('A' for Active; 'I' for Inactive)
REMARK       I    between atoms: C2_4  and  N2_5 
REMARK       I    between atoms: C2_4  and  N4_25 
REMARK    1  A    between atoms: N2_5  and  C3_7 
REMARK    2  A    between atoms: C3_7  and  C4_8 
REMARK    3  A    between atoms: C4_8  and  C5_9 
REMARK    4  A    between atoms: C5_9  and  N3_10 
REMARK       I    between atoms: N3_10  and  C6_12 
REMARK    5  A    between atoms: C6_12  and  C7_14 
REMARK    6  A    between atoms: C7_14  and  C8_15 
REMARK    7  A    between atoms: C8_15  and  C9_16 
REMARK    8  A    between atoms: C9_16  and  C10_17 
REMARK    9  A    between atoms: C10_17  and  C11_18 
REMARK   10  A    between atoms: N4_25  and  C17_27 
ROOT
HETATM    1  C5  UNL     1      16.991  10.548  10.919  1.00  0.00     0.124 C 
ENDROOT
BRANCH   1   2
HETATM    2  C4  UNL     1      17.690  10.604   9.614  1.00  0.00     0.040 C 
BRANCH   2   3
HETATM    3  C3  UNL     1      17.230   9.634   8.571  1.00  0.00     0.139 C 
BRANCH   3   4
HETATM    4  N2  UNL     1      17.539   8.282   8.840  1.00  0.00    -0.226 N 
HETATM    5  C2  UNL     1      16.939   7.168   8.231  1.00  0.00     0.674 C 
HETATM    6  N1  UNL     1      16.658   6.113   8.941  1.00  0.00    -0.231 N 
HETATM    7  N4  UNL     1      16.662   7.189   6.843  1.00  0.00    -0.182 N 
HETATM    8  C1  UNL     1      16.045   4.989   8.291  1.00  0.00     0.165 C 
ATOM      9  H1  UNL     1      16.869   6.085   9.938  1.00  0.00     0.177 HD
ATOM     10  H4  UNL     1      15.693   7.189   6.523  1.00  0.00     0.185 HD
ATOM     11  H2  UNL     1      18.261   8.099   9.538  1.00  0.00     0.177 HD
BRANCH   7  12
HETATM   12  C17 UNL     1      17.708   7.209   5.898  1.00  0.00     0.087 C 
HETATM   13  C18 UNL     1      18.552   6.002   5.706  1.00  0.00     0.089 C 
HETATM   14  N5  UNL     1      17.934   8.270   5.204  1.00  0.00    -0.389 N 
ATOM     15  H52 UNL     1      17.354   9.098   5.336  1.00  0.00     0.157 HD
ATOM     16  H51 UNL     1      18.691   8.285   4.521  1.00  0.00     0.157 HD
ENDBRANCH   7  12
ENDBRANCH   3   4
ENDBRANCH   2   3
ENDBRANCH   1   2
BRANCH   1  17
HETATM   17  N3  UNL     1      15.980  11.574  11.018  1.00  0.00    -0.361 N 
HETATM   18  C6  UNL     1      14.627  11.302  10.733  1.00  0.00     0.217 C 
HETATM   19  O1  UNL     1      14.248  10.181  10.380  1.00  0.00    -0.274 OA
ATOM     20  H3  UNL     1      16.251  12.516  11.300  1.00  0.00     0.162 HD
BRANCH  18  21
HETATM   21  C7  UNL     1      13.591  12.379  10.850  1.00  0.00     0.103 C 
BRANCH  21  22
HETATM   22  C8  UNL     1      12.546  11.952  11.832  1.00  0.00     0.009 C 
BRANCH  22  23
HETATM   23  C9  UNL     1      13.153  11.782  13.182  1.00  0.00     0.001 C 
BRANCH  23  24
HETATM   24  C10 UNL     1      12.593  12.727  14.218  1.00  0.00     0.005 C 
BRANCH  24  25
HETATM   25  C11 UNL     1      12.306  11.881  15.462  1.00  0.00    -0.006 C 
HETATM   26  C12 UNL     1      13.444  10.927  15.600  1.00  0.00     0.014 C 
HETATM   27  C13 UNL     1      13.387  10.287  16.964  1.00  0.00     0.054 C 
HETATM   28  S1  UNL     1      12.890  11.690  17.973  1.00  0.00    -0.261 SA
HETATM   29  C14 UNL     1      14.275  12.396  18.827  1.00  0.00     0.068 C 
HETATM   30  C15 UNL     1      11.530  11.285  19.056  1.00  0.00     0.068 C 
HETATM   31  C16 UNL     1      12.354  12.816  16.646  1.00  0.00     0.058 C 
ENDBRANCH  24  25
ENDBRANCH  23  24
ENDBRANCH  22  23
ENDBRANCH  21  22
ENDBRANCH  18  21
ENDBRANCH   1  17
TORSDOF 10
ENDMDL
MODEL 4
REMARK VINA RESULT: -7.896571065      2.579      4.491
REMARK  10 active torsions:
REMARK  status: ('A' for Active; 'I' for Inactive)
REMARK       I    between atoms: C2_4  and  N2_5 
REMARK       I    between atoms: C2_4  and  N4_25 
REMARK    1  A    between atoms: N2_5  and  C3_7 
REMARK    2  A    between atoms: C3_7  and  C4_8 
REMARK    3  A    between atoms: C4_8  and  C5_9 
REMARK    4  A    between atoms: C5_9  and  N3_10 
REMARK       I    between atoms: N3_10  and  C6_12 
REMARK    5  A    between atoms: C6_12  and  C7_14 
REMARK    6  A    between atoms: C7_14  and  C8_15 
REMARK    7  A    between atoms: C8_15  and  C9_16 
REMARK    8  A    between atoms: C9_16  and  C10_17 
REMARK    9  A    between atoms: C10_17  and  C11_18 
REMARK   10  A    between atoms: N4_25  and  C17_27 
ROOT
HETATM    1  C5  UNL     1      13.237  12.071  12.927  1.00  0.00     0.124 C 
ENDROOT
BRANCH   1   2
HETATM    2  C4  UNL     1      13.284  11.834  14.389  1.00  0.00     0.040 C 
BRANCH   2   3
HETATM    3  C3  UNL     1      13.282  13.052  15.260  1.00  0.00     0.139 C 
BRANCH   3   4
HETATM    4  N2  UNL     1      12.370  13.009  16.338  1.00  0.00    -0.226 N 
HETATM    5  C2  UNL     1      12.469  12.172  17.461  1.00  0.00     0.674 C 
HETATM    6  N1  UNL     1      11.398  11.617  17.953  1.00  0.00    -0.231 N 
HETATM    7  N4  UNL     1      13.729  11.951  18.066  1.00  0.00    -0.182 N 
HETATM    8  C1  UNL     1      11.530  10.766  19.101  1.00  0.00     0.165 C 
ATOM      9  H1  UNL     1      10.485  11.784  17.531  1.00  0.00     0.177 HD
ATOM     10  H4  UNL     1      14.151  11.023  18.028  1.00  0.00     0.185 HD
ATOM     11  H2  UNL     1      11.570  13.641  16.297  1.00  0.00     0.177 HD
BRANCH   7  12
HETATM   12  C17 UNL     1      14.409  12.999  18.721  1.00  0.00     0.087 C 
HETATM   13  C18 UNL     1      15.705  13.486  18.184  1.00  0.00     0.089 C 
HETATM   14  N5  UNL     1      13.910  13.532  19.781  1.00  0.00    -0.389 N 
ATOM     15  H52 UNL     1      13.020  13.198  20.150  1.00  0.00     0.157 HD
ATOM     16  H51 UNL     1      14.401  14.290  20.255  1.00  0.00     0.157 HD
ENDBRANCH   7  12
ENDBRANCH   3   4
ENDBRANCH   2   3
ENDBRANCH   1   2
BRANCH   1  17
HETATM   17  N3  UNL     1      14.480  11.699  12.294  1.00  0.00    -0.361 N 
HETATM   18  C6  UNL     1      14.501  10.941  11.106  1.00  0.00     0.217 C 
HETATM   19  O1  UNL     1      13.462  10.557  10.560  1.00  0.00    -0.274 OA
ATOM     20  H3  UNL     1      15.363  11.989  12.715  1.00  0.00     0.162 HD
BRANCH  18  21
HETATM   21  C7  UNL     1      15.801  10.570  10.459  1.00  0.00     0.103 C 
BRANCH  21  22
HETATM   22  C8  UNL     1      16.765  10.125  11.512  1.00  0.00     0.009 C 
BRANCH  22  23
HETATM   23  C9  UNL     1      17.437   8.864  11.090  1.00  0.00     0.001 C 
BRANCH  23  24
HETATM   24  C10 UNL     1      16.479   7.723  10.841  1.00  0.00     0.005 C 
BRANCH  24  25
HETATM   25  C11 UNL     1      17.007   6.978   9.612  1.00  0.00    -0.006 C 
HETATM   26  C12 UNL     1      15.942   7.063   8.573  1.00  0.00     0.014 C 
HETATM   27  C13 UNL     1      16.515   6.632   7.245  1.00  0.00     0.054 C 
HETATM   28  S1  UNL     1      18.149   7.375   7.327  1.00  0.00    -0.261 SA
HETATM   29  C14 UNL     1      18.224   8.881   6.392  1.00  0.00     0.068 C 
HETATM   30  C15 UNL     1      19.433   6.214   6.890  1.00  0.00     0.068 C 
HETATM   31  C16 UNL     1      18.196   7.760   9.107  1.00  0.00     0.058 C 
ENDBRANCH  24  25
ENDBRANCH  23  24
ENDBRANCH  22  23
ENDBRANCH  21  22
ENDBRANCH  18  21
ENDBRANCH   1  17
TORSDOF 10
ENDMDL
MODEL 5
REMARK VINA RESULT: -7.868623844      2.578      4.196
REMARK  10 active torsions:
REMARK  status: ('A' for Active; 'I' for Inactive)
REMARK       I    between atoms: C2_4  and  N2_5 
REMARK       I    between atoms: C2_4  and  N4_25 
REMARK    1  A    between atoms: N2_5  and  C3_7 
REMARK    2  A    between atoms: C3_7  and  C4_8 
REMARK    3  A    between atoms: C4_8  and  C5_9 
REMARK    4  A    between atoms: C5_9  and  N3_10 
REMARK       I    between atoms: N3_10  and  C6_12 
REMARK    5  A    between atoms: C6_12  and  C7_14 
REMARK    6  A    between atoms: C7_14  and  C8_15 
REMARK    7  A    between atoms: C8_15  and  C9_16 
REMARK    8  A    between atoms: C9_16  and  C10_17 
REMARK    9  A    between atoms: C10_17  and  C11_18 
REMARK   10  A    between atoms: N4_25  and  C17_27 
ROOT
HETATM    1  C5  UNL     1      13.504  11.254  13.582  1.00  0.00     0.124 C 
ENDROOT
BRANCH   1   2
HETATM    2  C4  UNL     1      12.999  12.601  13.936  1.00  0.00     0.040 C 
BRANCH   2   3
HETATM    3  C3  UNL     1      13.466  13.163  15.244  1.00  0.00     0.139 C 
BRANCH   3   4
HETATM    4  N2  UNL     1      12.517  13.099  16.289  1.00  0.00    -0.226 N 
HETATM    5  C2  UNL     1      12.574  12.233  17.394  1.00  0.00     0.674 C 
HETATM    6  N1  UNL     1      11.484  11.674  17.836  1.00  0.00    -0.231 N 
HETATM    7  N4  UNL     1      13.812  11.990  18.035  1.00  0.00    -0.182 N 
HETATM    8  C1  UNL     1      11.572  10.794  18.966  1.00  0.00     0.165 C 
ATOM      9  H1  UNL     1      10.586  11.857  17.388  1.00  0.00     0.177 HD
ATOM     10  H4  UNL     1      14.229  11.060  17.988  1.00  0.00     0.185 HD
ATOM     11  H2  UNL     1      11.723  13.737  16.237  1.00  0.00     0.177 HD
BRANCH   7  12
HETATM   12  C17 UNL     1      14.475  13.017  18.738  1.00  0.00     0.087 C 
HETATM   13  C18 UNL     1      15.785  13.518  18.249  1.00  0.00     0.089 C 
HETATM   14  N5  UNL     1      13.950  13.518  19.800  1.00  0.00    -0.389 N 
ATOM     15  H52 UNL     1      13.051  13.174  20.136  1.00  0.00     0.157 HD
ATOM     16  H51 UNL     1      14.430  14.261  20.309  1.00  0.00     0.157 HD
ENDBRANCH   7  12
ENDBRANCH   3   4
ENDBRANCH   2   3
ENDBRANCH   1   2
BRANCH   1  17
HETATM   17  N3  UNL     1      14.617  11.335  12.665  1.00  0.00    -0.361 N 
HETATM   18  C6  UNL     1      14.462  11.047  11.294  1.00  0.00     0.217 C 
HETATM   19  O1  UNL     1      13.375  10.706  10.820  1.00  0.00    -0.274 OA
ATOM     20  H3  UNL     1      15.536  11.607  13.017  1.00  0.00     0.162 HD
BRANCH  18  21
HETATM   21  C7  UNL     1      15.627  11.144  10.357  1.00  0.00     0.103 C 
BRANCH  21  22
HETATM   22  C8  UNL     1      16.843  10.583  11.023  1.00  0.00     0.009 C 
BRANCH  22  23
HETATM   23  C9  UNL     1      17.874  10.242  10.003  1.00  0.00     0.001 C 
BRANCH  23  24
HETATM   24  C10 UNL     1      17.339  10.210   8.592  1.00  0.00     0.005 C 
BRANCH  24  25
HETATM   25  C11 UNL     1      17.510   8.770   8.100  1.00  0.00    -0.006 C 
HETATM   26  C12 UNL     1      18.697   8.216   8.810  1.00  0.00     0.014 C 
HETATM   27  C13 UNL     1      18.733   6.720   8.616  1.00  0.00     0.054 C 
HETATM   28  S1  UNL     1      16.985   6.323   8.745  1.00  0.00    -0.261 SA
HETATM   29  C14 UNL     1      16.583   5.681  10.349  1.00  0.00     0.068 C 
HETATM   30  C15 UNL     1      16.439   5.269   7.411  1.00  0.00     0.068 C 
HETATM   31  C16 UNL     1      16.300   8.002   8.572  1.00  0.00     0.058 C 
ENDBRANCH  24  25
ENDBRANCH  23  24
ENDBRANCH  22  23
ENDBRANCH  21  22
ENDBRANCH  18  21
ENDBRANCH   1  17
TORSDOF 10
ENDMDL
