MODEL 1
REMARK VINA RESULT: -5.730895989      0.000      0.000
REMARK  3 active torsions:
REMARK  status: ('A' for Active; 'I' for Inactive)
REMARK    1  A    between atoms: C3_5  and  O1_6 
REMARK    2  A    between atoms: O1_6  and  O2_7 
REMARK    3  A    between atoms: C4_9  and  C5_10 
ROOT
HETATM    1  C1  UNL     1      43.261  36.252  28.662  1.00  0.00     0.062 C 
HETATM    2  C2  UNL     1      41.926  36.890  28.975  1.00  0.00    -0.019 C 
HETATM    3  N1  UNL     1      41.007  36.818  28.105  1.00  0.00    -0.362 N 
ATOM      4  H1  UNL     1      41.151  36.347  27.212  1.00  0.00     0.162 HD
HETATM    5  C3  UNL     1      39.715  37.450  28.448  1.00  0.00     0.181 C 
HETATM    6  C4  UNL     1      39.142  36.489  29.467  1.00  0.00     0.075 C 
HETATM    7  C8  UNL     1      38.598  37.167  30.684  1.00  0.00     0.012 C 
HETATM    8  C9  UNL     1      39.608  38.107  31.282  1.00  0.00     0.006 C 
HETATM    9  C10 UNL     1      40.702  38.537  30.372  1.00  0.00     0.003 C 
HETATM   10  C11 UNL     1      41.848  37.564  30.294  1.00  0.00     0.057 C 
HETATM   11  C12 UNL     1      40.114  38.782  28.975  1.00  0.00     0.010 C 
HETATM   12  C13 UNL     1      41.236  39.350  28.128  1.00  0.00     0.020 C 
HETATM   13  C14 UNL     1      39.091  39.855  29.073  1.00  0.00     0.020 C 
ENDROOT
BRANCH   6  14
HETATM   14  C5  UNL     1      38.248  35.497  28.826  1.00  0.00     0.196 C 
HETATM   15  C6  UNL     1      37.590  34.489  29.735  1.00  0.00     0.061 C 
HETATM   16  C7  UNL     1      37.865  33.495  28.622  1.00  0.00     0.235 C 
HETATM   17  N2  UNL     1      38.969  34.349  28.232  1.00  0.00    -0.070 N 
ATOM     18  H22 UNL     1      39.283  34.379  27.262  1.00  0.00     0.277 HD
ATOM     19  H21 UNL     1      39.922  34.129  28.522  1.00  0.00     0.277 HD
ENDBRANCH   6  14
BRANCH   5  20
HETATM   20  O1  UNL     1      39.067  37.472  27.249  1.00  0.00    -0.209 OA
BRANCH  20  21
HETATM   21  O2  UNL     1      39.558  36.900  26.232  1.00  0.00    -0.248 OA
ATOM     22  H2  UNL     1      39.238  37.095  25.359  1.00  0.00     0.253 HD
ENDBRANCH  20  21
ENDBRANCH   5  20
TORSDOF 3
ENDMDL
MODEL 2
REMARK VINA RESULT: -5.398461611      2.124      4.164
REMARK  3 active torsions:
REMARK  status: ('A' for Active; 'I' for Inactive)
REMARK    1  A    between atoms: C3_5  and  O1_6 
REMARK    2  A    between atoms: O1_6  and  O2_7 
REMARK    3  A    between atoms: C4_9  and  C5_10 
ROOT
HETATM    1  C1  UNL     1      39.088  35.516  26.075  1.00  0.00     0.062 C 
HETATM    2  C2  UNL     1      39.537  36.457  27.170  1.00  0.00    -0.019 C 
HETATM    3  N1  UNL     1      40.372  37.366  26.877  1.00  0.00    -0.362 N 
ATOM      4  H1  UNL     1      40.740  37.470  25.932  1.00  0.00     0.162 HD
HETATM    5  C3  UNL     1      40.785  38.268  27.973  1.00  0.00     0.181 C 
HETATM    6  C4  UNL     1      39.559  39.136  28.162  1.00  0.00     0.075 C 
HETATM    7  C8  UNL     1      39.159  39.297  29.593  1.00  0.00     0.012 C 
HETATM    8  C9  UNL     1      39.033  37.963  30.278  1.00  0.00     0.006 C 
HETATM    9  C10 UNL     1      39.736  36.834  29.616  1.00  0.00     0.003 C 
HETATM   10  C11 UNL     1      38.950  36.191  28.506  1.00  0.00     0.057 C 
HETATM   11  C12 UNL     1      41.089  37.336  29.090  1.00  0.00     0.010 C 
HETATM   12  C13 UNL     1      41.822  36.120  28.554  1.00  0.00     0.020 C 
HETATM   13  C14 UNL     1      41.893  37.824  30.240  1.00  0.00     0.020 C 
ENDROOT
BRANCH   6  14
HETATM   14  C5  UNL     1      39.660  40.386  27.374  1.00  0.00     0.196 C 
HETATM   15  C6  UNL     1      38.439  41.272  27.347  1.00  0.00     0.061 C 
HETATM   16  C7  UNL     1      38.782  41.486  25.884  1.00  0.00     0.235 C 
HETATM   17  N2  UNL     1      39.433  40.191  25.924  1.00  0.00    -0.070 N 
ATOM     18  H22 UNL     1      40.214  39.985  25.301  1.00  0.00     0.277 HD
ATOM     19  H21 UNL     1      38.954  39.359  25.582  1.00  0.00     0.277 HD
ENDBRANCH   6  14
BRANCH   5  20
HETATM   20  O1  UNL     1      41.866  38.907  27.441  1.00  0.00    -0.209 OA
BRANCH  20  21
HETATM   21  O2  UNL     1      42.252  38.662  26.261  1.00  0.00    -0.248 OA
ATOM     22  H2  UNL     1      42.987  39.127  25.879  1.00  0.00     0.253 HD
ENDBRANCH  20  21
ENDBRANCH   5  20
TORSDOF 3
ENDMDL
MODEL 3
REMARK VINA RESULT: -5.396739452      1.341      1.510
REMARK  3 active torsions:
REMARK  status: ('A' for Active; 'I' for Inactive)
REMARK    1  A    between atoms: C3_5  and  O1_6 
REMARK    2  A    between atoms: O1_6  and  O2_7 
REMARK    3  A    between atoms: C4_9  and  C5_10 
ROOT
HETATM    1  C1  UNL     1      43.208  37.887  29.878  1.00  0.00     0.062 C 
HETATM    2  C2  UNL     1      41.745  38.142  30.162  1.00  0.00    -0.019 C 
HETATM    3  N1  UNL     1      40.937  38.167  29.185  1.00  0.00    -0.362 N 
ATOM      4  H1  UNL     1      41.254  38.021  28.226  1.00  0.00     0.162 HD
HETATM    5  C3  UNL     1      39.516  38.416  29.502  1.00  0.00     0.181 C 
HETATM    6  C4  UNL     1      39.085  37.104  30.123  1.00  0.00     0.075 C 
HETATM    7  C8  UNL     1      38.308  37.271  31.389  1.00  0.00     0.012 C 
HETATM    8  C9  UNL     1      39.036  38.158  32.362  1.00  0.00     0.006 C 
HETATM    9  C10 UNL     1      40.080  39.036  31.773  1.00  0.00     0.003 C 
HETATM   10  C11 UNL     1      41.413  38.362  31.591  1.00  0.00     0.057 C 
HETATM   11  C12 UNL     1      39.569  39.577  30.430  1.00  0.00     0.010 C 
HETATM   12  C13 UNL     1      40.605  40.571  29.943  1.00  0.00     0.020 C 
HETATM   13  C14 UNL     1      38.332  40.362  30.676  1.00  0.00     0.020 C 
ENDROOT
BRANCH   6  14
HETATM   14  C5  UNL     1      38.485  36.204  29.111  1.00  0.00     0.196 C 
HETATM   15  C6  UNL     1      37.898  34.909  29.617  1.00  0.00     0.061 C 
HETATM   16  C7  UNL     1      38.503  34.294  28.368  1.00  0.00     0.235 C 
HETATM   17  N2  UNL     1      39.478  35.365  28.403  1.00  0.00    -0.070 N 
ATOM     18  H22 UNL     1      39.916  35.695  27.542  1.00  0.00     0.277 HD
ATOM     19  H21 UNL     1      40.404  35.211  28.801  1.00  0.00     0.277 HD
ENDBRANCH   6  14
BRANCH   5  20
HETATM   20  O1  UNL     1      38.979  38.678  28.277  1.00  0.00    -0.209 OA
BRANCH  20  21
HETATM   21  O2  UNL     1      39.623  38.428  27.217  1.00  0.00    -0.248 OA
ATOM     22  H2  UNL     1      39.174  38.316  26.387  1.00  0.00     0.253 HD
ENDBRANCH  20  21
ENDBRANCH   5  20
TORSDOF 3
ENDMDL
MODEL 4
REMARK VINA RESULT: -5.048093402      2.517      3.938
REMARK  3 active torsions:
REMARK  status: ('A' for Active; 'I' for Inactive)
REMARK    1  A    between atoms: C3_5  and  O1_6 
REMARK    2  A    between atoms: O1_6  and  O2_7 
REMARK    3  A    between atoms: C4_9  and  C5_10 
ROOT
HETATM    1  C1  UNL     1      38.895  41.388  28.943  1.00  0.00     0.062 C 
HETATM    2  C2  UNL     1      39.365  39.951  28.921  1.00  0.00    -0.019 C 
HETATM    3  N1  UNL     1      39.974  39.501  29.938  1.00  0.00    -0.362 N 
ATOM      4  H1  UNL     1      40.152  40.084  30.756  1.00  0.00     0.162 HD
HETATM    5  C3  UNL     1      40.416  38.092  29.880  1.00  0.00     0.181 C 
HETATM    6  C4  UNL     1      39.114  37.335  30.041  1.00  0.00     0.075 C 
HETATM    7  C8  UNL     1      38.946  36.225  29.054  1.00  0.00     0.012 C 
HETATM    8  C9  UNL     1      39.162  36.708  27.646  1.00  0.00     0.006 C 
HETATM    9  C10 UNL     1      39.918  37.981  27.514  1.00  0.00     0.003 C 
HETATM   10  C11 UNL     1      39.069  39.214  27.668  1.00  0.00     0.057 C 
HETATM   11  C12 UNL     1      41.058  37.987  28.543  1.00  0.00     0.010 C 
HETATM   12  C13 UNL     1      41.877  39.234  28.272  1.00  0.00     0.020 C 
HETATM   13  C14 UNL     1      41.956  36.838  28.261  1.00  0.00     0.020 C 
ENDROOT
BRANCH   6  14
HETATM   14  C5  UNL     1      38.870  36.983  31.458  1.00  0.00     0.196 C 
HETATM   15  C6  UNL     1      37.594  36.238  31.762  1.00  0.00     0.061 C 
HETATM   16  C7  UNL     1      37.522  37.120  32.995  1.00  0.00     0.235 C 
HETATM   17  N2  UNL     1      38.299  38.093  32.253  1.00  0.00    -0.070 N 
ATOM     18  H22 UNL     1      38.909  38.749  32.741  1.00  0.00     0.277 HD
ATOM     19  H21 UNL     1      37.841  38.879  31.792  1.00  0.00     0.277 HD
ENDBRANCH   6  14
BRANCH   5  20
HETATM   20  O1  UNL     1      41.268  38.003  30.940  1.00  0.00    -0.209 OA
BRANCH  20  21
HETATM   21  O2  UNL     1      41.428  38.978  31.731  1.00  0.00    -0.248 OA
ATOM     22  H2  UNL     1      42.292  39.219  32.042  1.00  0.00     0.253 HD
ENDBRANCH  20  21
ENDBRANCH   5  20
TORSDOF 3
ENDMDL
MODEL 5
REMARK VINA RESULT: -5.015966242      3.386      5.048
REMARK  3 active torsions:
REMARK  status: ('A' for Active; 'I' for Inactive)
REMARK    1  A    between atoms: C3_5  and  O1_6 
REMARK    2  A    between atoms: O1_6  and  O2_7 
REMARK    3  A    between atoms: C4_9  and  C5_10 
ROOT
HETATM    1  C1  UNL     1      42.447  41.131  31.669  1.00  0.00     0.062 C 
HETATM    2  C2  UNL     1      41.346  40.227  31.162  1.00  0.00    -0.019 C 
HETATM    3  N1  UNL     1      40.152  40.652  31.206  1.00  0.00    -0.362 N 
ATOM      4  H1  UNL     1      39.926  41.576  31.574  1.00  0.00     0.162 HD
HETATM    5  C3  UNL     1      39.103  39.742  30.699  1.00  0.00     0.181 C 
HETATM    6  C4  UNL     1      39.313  39.805  29.201  1.00  0.00     0.075 C 
HETATM    7  C8  UNL     1      39.318  38.461  28.545  1.00  0.00     0.012 C 
HETATM    8  C9  UNL     1      40.282  37.527  29.224  1.00  0.00     0.006 C 
HETATM    9  C10 UNL     1      40.673  37.902  30.608  1.00  0.00     0.003 C 
HETATM   10  C11 UNL     1      41.797  38.901  30.675  1.00  0.00     0.057 C 
HETATM   11  C12 UNL     1      39.436  38.442  31.340  1.00  0.00     0.010 C 
HETATM   12  C13 UNL     1      39.853  38.676  32.779  1.00  0.00     0.020 C 
HETATM   13  C14 UNL     1      38.405  37.373  31.381  1.00  0.00     0.020 C 
ENDROOT
BRANCH   6  14
HETATM   14  C5  UNL     1      38.437  40.824  28.579  1.00  0.00     0.196 C 
HETATM   15  C6  UNL     1      38.690  41.141  27.126  1.00  0.00     0.061 C 
HETATM   16  C7  UNL     1      38.422  42.581  27.525  1.00  0.00     0.235 C 
HETATM   17  N2  UNL     1      38.858  42.216  28.858  1.00  0.00    -0.070 N 
ATOM     18  H22 UNL     1      38.501  42.712  29.674  1.00  0.00     0.277 HD
ATOM     19  H21 UNL     1      39.810  42.417  29.165  1.00  0.00     0.277 HD
ENDBRANCH   6  14
BRANCH   5  20
HETATM   20  O1  UNL     1      37.957  40.331  31.146  1.00  0.00    -0.209 OA
BRANCH  20  21
HETATM   21  O2  UNL     1      37.995  41.395  31.830  1.00  0.00    -0.248 OA
ATOM     22  H2  UNL     1      37.934  42.247  31.414  1.00  0.00     0.253 HD
ENDBRANCH  20  21
ENDBRANCH   5  20
TORSDOF 3
ENDMDL
