MODEL 1
REMARK VINA RESULT: -6.253377006      0.000      0.000
REMARK  4 active torsions:
REMARK  status: ('A' for Active; 'I' for Inactive)
REMARK    1  A    between atoms: C2_2  and  O1_5 
REMARK    2  A    between atoms: O1_5  and  C5_6 
REMARK    3  A    between atoms: N1_7  and  N2_9 
REMARK    4  A    between atoms: C6_10  and  C7_11 
ROOT
HETATM    1  N2  UNL     1      38.057  35.519  29.850  1.00  0.00    -0.213 N 
HETATM    2  C6  UNL     1      38.857  36.606  30.043  1.00  0.00     0.128 A 
HETATM    3  N3  UNL     1      38.616  37.123  31.288  1.00  0.00    -0.284 N 
ATOM      4  H3  UNL     1      39.078  37.936  31.694  1.00  0.00     0.188 HD
HETATM    5  N4  UNL     1      37.715  36.414  31.857  1.00  0.00    -0.273 N 
ATOM      6  H4  UNL     1      37.334  36.562  32.791  1.00  0.00     0.189 HD
HETATM    7  C11 UNL     1      37.355  35.425  30.993  1.00  0.00     0.213 A 
HETATM    8  S1  UNL     1      36.206  34.318  31.375  1.00  0.00    -0.037 SA
ENDROOT
BRANCH   1   9
HETATM    9  N1  UNL     1      37.977  34.684  28.828  1.00  0.00    -0.280 N 
HETATM   10  C5  UNL     1      38.229  33.616  28.317  1.00  0.00     0.243 C 
ATOM     11  H1  UNL     1      37.435  35.188  28.125  1.00  0.00     0.189 HD
BRANCH  10  12
HETATM   12  O1  UNL     1      37.729  33.407  27.024  1.00  0.00    -0.335 OA
BRANCH  12  13
HETATM   13  C2  UNL     1      38.189  33.618  25.795  1.00  0.00     0.057 C 
HETATM   14  C1  UNL     1      36.880  33.673  24.915  1.00  0.00     0.045 C 
HETATM   15  C3  UNL     1      38.895  34.903  25.461  1.00  0.00     0.045 C 
HETATM   16  C4  UNL     1      38.860  32.402  25.194  1.00  0.00     0.045 C 
ENDBRANCH  12  13
ENDBRANCH  10  12
ENDBRANCH   1   9
BRANCH   2  17
HETATM   17  C7  UNL     1      39.816  37.144  29.051  1.00  0.00     0.011 C 
HETATM   18  C8  UNL     1      39.124  37.803  27.885  1.00  0.00     0.023 C 
HETATM   19  C9  UNL     1      40.914  36.185  28.666  1.00  0.00     0.023 C 
HETATM   20  C10 UNL     1      40.543  38.294  29.768  1.00  0.00     0.023 C 
ENDBRANCH   2  17
TORSDOF 4
ENDMDL
MODEL 2
REMARK VINA RESULT: -6.204232432      0.144      1.052
REMARK  4 active torsions:
REMARK  status: ('A' for Active; 'I' for Inactive)
REMARK    1  A    between atoms: C2_2  and  O1_5 
REMARK    2  A    between atoms: O1_5  and  C5_6 
REMARK    3  A    between atoms: N1_7  and  N2_9 
REMARK    4  A    between atoms: C6_10  and  C7_11 
ROOT
HETATM    1  N2  UNL     1      38.073  35.579  29.839  1.00  0.00    -0.213 N 
HETATM    2  C6  UNL     1      38.891  36.656  30.011  1.00  0.00     0.128 A 
HETATM    3  N3  UNL     1      38.686  37.177  31.261  1.00  0.00    -0.284 N 
ATOM      4  H3  UNL     1      39.168  37.985  31.655  1.00  0.00     0.188 HD
HETATM    5  N4  UNL     1      37.789  36.480  31.852  1.00  0.00    -0.273 N 
ATOM      6  H4  UNL     1      37.432  36.635  32.795  1.00  0.00     0.189 HD
HETATM    7  C11 UNL     1      37.397  35.496  30.998  1.00  0.00     0.213 A 
HETATM    8  S1  UNL     1      36.242  34.405  31.408  1.00  0.00    -0.037 SA
ENDROOT
BRANCH   1   9
HETATM    9  N1  UNL     1      37.957  34.744  28.820  1.00  0.00    -0.280 N 
HETATM   10  C5  UNL     1      38.281  33.728  28.248  1.00  0.00     0.243 C 
ATOM     11  H1  UNL     1      37.244  35.162  28.223  1.00  0.00     0.189 HD
BRANCH  10  12
HETATM   12  O1  UNL     1      37.621  33.449  27.044  1.00  0.00    -0.335 OA
BRANCH  12  13
HETATM   13  C2  UNL     1      37.985  33.390  25.767  1.00  0.00     0.057 C 
HETATM   14  C1  UNL     1      38.922  34.647  25.590  1.00  0.00     0.045 C 
HETATM   15  C3  UNL     1      38.830  32.247  25.273  1.00  0.00     0.045 C 
HETATM   16  C4  UNL     1      36.870  33.754  24.812  1.00  0.00     0.045 C 
ENDBRANCH  12  13
ENDBRANCH  10  12
ENDBRANCH   1   9
BRANCH   2  17
HETATM   17  C7  UNL     1      39.834  37.180  28.997  1.00  0.00     0.011 C 
HETATM   18  C8  UNL     1      39.122  37.750  27.795  1.00  0.00     0.023 C 
HETATM   19  C9  UNL     1      40.970  36.246  28.665  1.00  0.00     0.023 C 
HETATM   20  C10 UNL     1      40.511  38.393  29.656  1.00  0.00     0.023 C 
ENDBRANCH   2  17
TORSDOF 4
ENDMDL
MODEL 3
REMARK VINA RESULT: -5.742539735      2.763      5.122
REMARK  4 active torsions:
REMARK  status: ('A' for Active; 'I' for Inactive)
REMARK    1  A    between atoms: C2_2  and  O1_5 
REMARK    2  A    between atoms: O1_5  and  C5_6 
REMARK    3  A    between atoms: N1_7  and  N2_9 
REMARK    4  A    between atoms: C6_10  and  C7_11 
ROOT
HETATM    1  N2  UNL     1      38.638  35.236  27.491  1.00  0.00    -0.213 N 
HETATM    2  C6  UNL     1      38.009  34.066  27.186  1.00  0.00     0.128 A 
HETATM    3  N3  UNL     1      37.419  33.568  28.317  1.00  0.00    -0.284 N 
ATOM      4  H3  UNL     1      36.879  32.705  28.376  1.00  0.00     0.188 HD
HETATM    5  N4  UNL     1      37.657  34.367  29.288  1.00  0.00    -0.273 N 
ATOM      6  H4  UNL     1      37.343  34.253  30.252  1.00  0.00     0.189 HD
HETATM    7  C11 UNL     1      38.405  35.397  28.806  1.00  0.00     0.213 A 
HETATM    8  S1  UNL     1      38.916  36.621  29.772  1.00  0.00    -0.037 SA
ENDROOT
BRANCH   1   9
HETATM    9  N1  UNL     1      39.294  36.084  26.718  1.00  0.00    -0.280 N 
HETATM   10  C5  UNL     1      40.250  36.797  26.508  1.00  0.00     0.243 C 
ATOM     11  H1  UNL     1      38.705  36.190  25.892  1.00  0.00     0.189 HD
BRANCH  10  12
HETATM   12  O1  UNL     1      40.263  37.483  25.287  1.00  0.00    -0.335 OA
BRANCH  12  13
HETATM   13  C2  UNL     1      40.685  38.679  24.887  1.00  0.00     0.057 C 
HETATM   14  C1  UNL     1      42.221  38.668  25.248  1.00  0.00     0.045 C 
HETATM   15  C3  UNL     1      40.667  39.038  23.427  1.00  0.00     0.045 C 
HETATM   16  C4  UNL     1      40.212  39.806  25.778  1.00  0.00     0.045 C 
ENDBRANCH  12  13
ENDBRANCH  10  12
ENDBRANCH   1   9
BRANCH   2  17
HETATM   17  C7  UNL     1      37.990  33.434  25.847  1.00  0.00     0.011 C 
HETATM   18  C8  UNL     1      39.334  33.496  25.166  1.00  0.00     0.023 C 
HETATM   19  C9  UNL     1      36.830  33.853  24.980  1.00  0.00     0.023 C 
HETATM   20  C10 UNL     1      37.756  31.936  26.106  1.00  0.00     0.023 C 
ENDBRANCH   2  17
TORSDOF 4
ENDMDL
MODEL 4
REMARK VINA RESULT: -5.670699565      2.777      5.051
REMARK  4 active torsions:
REMARK  status: ('A' for Active; 'I' for Inactive)
REMARK    1  A    between atoms: C2_2  and  O1_5 
REMARK    2  A    between atoms: O1_5  and  C5_6 
REMARK    3  A    between atoms: N1_7  and  N2_9 
REMARK    4  A    between atoms: C6_10  and  C7_11 
ROOT
HETATM    1  N2  UNL     1      38.618  35.249  27.518  1.00  0.00    -0.213 N 
HETATM    2  C6  UNL     1      37.999  34.078  27.196  1.00  0.00     0.128 A 
HETATM    3  N3  UNL     1      37.403  33.564  28.317  1.00  0.00    -0.284 N 
ATOM      4  H3  UNL     1      36.869  32.697  28.362  1.00  0.00     0.188 HD
HETATM    5  N4  UNL     1      37.630  34.354  29.299  1.00  0.00    -0.273 N 
ATOM      6  H4  UNL     1      37.309  34.227  30.259  1.00  0.00     0.189 HD
HETATM    7  C11 UNL     1      38.375  35.394  28.833  1.00  0.00     0.213 A 
HETATM    8  S1  UNL     1      38.871  36.609  29.816  1.00  0.00    -0.037 SA
ENDROOT
BRANCH   1   9
HETATM    9  N1  UNL     1      39.275  36.109  26.760  1.00  0.00    -0.280 N 
HETATM   10  C5  UNL     1      40.235  36.818  26.558  1.00  0.00     0.243 C 
ATOM     11  H1  UNL     1      38.679  36.241  25.943  1.00  0.00     0.189 HD
BRANCH  10  12
HETATM   12  O1  UNL     1      40.243  37.534  25.353  1.00  0.00    -0.335 OA
BRANCH  12  13
HETATM   13  C2  UNL     1      40.925  38.574  24.884  1.00  0.00     0.057 C 
HETATM   14  C1  UNL     1      40.250  39.810  25.597  1.00  0.00     0.045 C 
HETATM   15  C3  UNL     1      42.385  38.731  25.211  1.00  0.00     0.045 C 
HETATM   16  C4  UNL     1      40.606  38.894  23.441  1.00  0.00     0.045 C 
ENDBRANCH  12  13
ENDBRANCH  10  12
ENDBRANCH   1   9
BRANCH   2  17
HETATM   17  C7  UNL     1      37.993  33.461  25.850  1.00  0.00     0.011 C 
HETATM   18  C8  UNL     1      39.334  33.566  25.167  1.00  0.00     0.023 C 
HETATM   19  C9  UNL     1      36.821  33.860  24.990  1.00  0.00     0.023 C 
HETATM   20  C10 UNL     1      37.799  31.955  26.092  1.00  0.00     0.023 C 
ENDBRANCH   2  17
TORSDOF 4
ENDMDL
MODEL 5
REMARK VINA RESULT: -5.540159727      2.689      5.024
REMARK  4 active torsions:
REMARK  status: ('A' for Active; 'I' for Inactive)
REMARK    1  A    between atoms: C2_2  and  O1_5 
REMARK    2  A    between atoms: O1_5  and  C5_6 
REMARK    3  A    between atoms: N1_7  and  N2_9 
REMARK    4  A    between atoms: C6_10  and  C7_11 
ROOT
HETATM    1  N2  UNL     1      38.624  35.176  27.612  1.00  0.00    -0.213 N 
HETATM    2  C6  UNL     1      38.034  33.983  27.318  1.00  0.00     0.128 A 
HETATM    3  N3  UNL     1      37.414  33.502  28.440  1.00  0.00    -0.284 N 
ATOM      4  H3  UNL     1      36.893  32.628  28.504  1.00  0.00     0.188 HD
HETATM    5  N4  UNL     1      37.599  34.333  29.397  1.00  0.00    -0.273 N 
ATOM      6  H4  UNL     1      37.253  34.238  30.351  1.00  0.00     0.189 HD
HETATM    7  C11 UNL     1      38.340  35.367  28.912  1.00  0.00     0.213 A 
HETATM    8  S1  UNL     1      38.788  36.628  29.861  1.00  0.00    -0.037 SA
ENDROOT
BRANCH   1   9
HETATM    9  N1  UNL     1      39.288  36.018  26.839  1.00  0.00    -0.280 N 
HETATM   10  C5  UNL     1      40.253  36.718  26.628  1.00  0.00     0.243 C 
ATOM     11  H1  UNL     1      38.698  36.134  26.016  1.00  0.00     0.189 HD
BRANCH  10  12
HETATM   12  O1  UNL     1      40.271  37.409  25.409  1.00  0.00    -0.335 OA
BRANCH  12  13
HETATM   13  C2  UNL     1      40.691  38.607  25.015  1.00  0.00     0.057 C 
HETATM   14  C1  UNL     1      42.222  38.606  25.397  1.00  0.00     0.045 C 
HETATM   15  C3  UNL     1      40.691  38.967  23.555  1.00  0.00     0.045 C 
HETATM   16  C4  UNL     1      40.198  39.731  25.900  1.00  0.00     0.045 C 
ENDBRANCH  12  13
ENDBRANCH  10  12
ENDBRANCH   1   9
BRANCH   2  17
HETATM   17  C7  UNL     1      38.077  33.314  25.997  1.00  0.00     0.011 C 
HETATM   18  C8  UNL     1      37.809  31.834  26.096  1.00  0.00     0.023 C 
HETATM   19  C9  UNL     1      39.276  33.677  25.157  1.00  0.00     0.023 C 
HETATM   20  C10 UNL     1      36.876  33.874  25.217  1.00  0.00     0.023 C 
ENDBRANCH   2  17
TORSDOF 4
ENDMDL
