MODEL 1
REMARK VINA RESULT: -5.848970960      0.000      0.000
REMARK  2 active torsions:
REMARK  status: ('A' for Active; 'I' for Inactive)
REMARK    1  A    between atoms: C6_6  and  C7_7 
REMARK    2  A    between atoms: C8_10  and  N2_11 
ROOT
HETATM    1  C1  UNL     1      38.315  32.156  24.650  1.00  0.00     0.045 C 
HETATM    2  C2  UNL     1      38.057  33.371  25.553  1.00  0.00     0.055 C 
HETATM    3  C3  UNL     1      36.782  34.013  24.987  1.00  0.00     0.045 C 
HETATM    4  C4  UNL     1      39.166  34.333  25.324  1.00  0.00     0.038 C 
HETATM    5  C5  UNL     1      38.917  35.485  26.308  1.00  0.00     0.017 C 
HETATM    6  C6  UNL     1      39.105  34.810  27.672  1.00  0.00     0.079 C 
HETATM    7  C9  UNL     1      38.225  33.644  27.870  1.00  0.00     0.064 C 
HETATM    8  C10 UNL     1      38.972  32.643  28.775  1.00  0.00     0.046 C 
HETATM    9  C11 UNL     1      36.955  33.973  28.664  1.00  0.00     0.046 C 
HETATM   10  O1  UNL     1      37.823  32.953  26.788  1.00  0.00    -0.370 OA
ENDROOT
BRANCH   6  11
HETATM   11  C7  UNL     1      38.979  35.866  28.702  1.00  0.00     0.091 A 
HETATM   12  N1  UNL     1      38.446  35.876  29.906  1.00  0.00    -0.187 N 
HETATM   13  C8  UNL     1      38.472  36.971  30.621  1.00  0.00     0.682 A 
ATOM     14  H1  UNL     1      38.015  35.031  30.280  1.00  0.00     0.184 HD
HETATM   15  N3  UNL     1      39.054  38.049  30.075  1.00  0.00    -0.159 N 
HETATM   16  S1  UNL     1      39.541  37.465  28.572  1.00  0.00     0.016 SA
ATOM     17  H3  UNL     1      39.172  38.982  30.469  1.00  0.00     0.193 HD
BRANCH  13  18
HETATM   18  N2  UNL     1      37.937  37.002  31.843  1.00  0.00    -0.234 N 
ATOM     19  H22 UNL     1      37.725  36.148  32.361  1.00  0.00     0.174 HD
ATOM     20  H21 UNL     1      37.722  37.890  32.297  1.00  0.00     0.174 HD
ENDBRANCH  13  18
ENDBRANCH   6  11
TORSDOF 2
ENDMDL
MODEL 2
REMARK VINA RESULT: -5.595898980      4.126      6.372
REMARK  2 active torsions:
REMARK  status: ('A' for Active; 'I' for Inactive)
REMARK    1  A    between atoms: C6_6  and  C7_7 
REMARK    2  A    between atoms: C8_10  and  N2_11 
ROOT
HETATM    1  C1  UNL     1      38.400  37.771  32.917  1.00  0.00     0.045 C 
HETATM    2  C2  UNL     1      39.214  38.362  31.756  1.00  0.00     0.055 C 
HETATM    3  C3  UNL     1      40.463  38.959  32.421  1.00  0.00     0.045 C 
HETATM    4  C4  UNL     1      38.430  39.497  31.203  1.00  0.00     0.038 C 
HETATM    5  C5  UNL     1      39.234  39.997  29.995  1.00  0.00     0.017 C 
HETATM    6  C6  UNL     1      39.160  38.810  29.026  1.00  0.00     0.079 C 
HETATM    7  C9  UNL     1      39.662  37.552  29.608  1.00  0.00     0.064 C 
HETATM    8  C10 UNL     1      38.869  36.393  28.971  1.00  0.00     0.046 C 
HETATM    9  C11 UNL     1      41.117  37.248  29.228  1.00  0.00     0.046 C 
HETATM   10  O1  UNL     1      39.580  37.384  30.940  1.00  0.00    -0.370 OA
ENDROOT
BRANCH   6  11
HETATM   11  C7  UNL     1      39.832  39.227  27.774  1.00  0.00     0.091 A 
HETATM   12  N1  UNL     1      39.670  38.872  26.517  1.00  0.00    -0.187 N 
HETATM   13  C8  UNL     1      40.416  39.410  25.586  1.00  0.00     0.682 A 
ATOM     14  H1  UNL     1      38.965  38.178  26.269  1.00  0.00     0.184 HD
HETATM   15  N3  UNL     1      41.325  40.317  25.973  1.00  0.00    -0.159 N 
HETATM   16  S1  UNL     1      41.085  40.368  27.640  1.00  0.00     0.016 SA
ATOM     17  H3  UNL     1      41.990  40.840  25.405  1.00  0.00     0.193 HD
BRANCH  13  18
HETATM   18  N2  UNL     1      40.268  39.062  24.306  1.00  0.00    -0.234 N 
ATOM     19  H22 UNL     1      39.687  39.602  23.664  1.00  0.00     0.174 HD
ATOM     20  H21 UNL     1      40.738  38.238  23.931  1.00  0.00     0.174 HD
ENDBRANCH  13  18
ENDBRANCH   6  11
TORSDOF 2
ENDMDL
MODEL 3
REMARK VINA RESULT: -5.585158876      3.117      5.664
REMARK  2 active torsions:
REMARK  status: ('A' for Active; 'I' for Inactive)
REMARK    1  A    between atoms: C6_6  and  C7_7 
REMARK    2  A    between atoms: C8_10  and  N2_11 
ROOT
HETATM    1  C1  UNL     1      40.849  39.222  31.221  1.00  0.00     0.045 C 
HETATM    2  C2  UNL     1      39.969  38.470  30.212  1.00  0.00     0.055 C 
HETATM    3  C3  UNL     1      38.988  39.529  29.687  1.00  0.00     0.045 C 
HETATM    4  C4  UNL     1      39.169  37.479  30.977  1.00  0.00     0.038 C 
HETATM    5  C5  UNL     1      38.376  36.694  29.924  1.00  0.00     0.017 C 
HETATM    6  C6  UNL     1      39.479  35.964  29.145  1.00  0.00     0.079 C 
HETATM    7  C9  UNL     1      40.494  36.874  28.585  1.00  0.00     0.064 C 
HETATM    8  C10 UNL     1      41.837  36.118  28.561  1.00  0.00     0.046 C 
HETATM    9  C11 UNL     1      40.246  37.221  27.111  1.00  0.00     0.046 C 
HETATM   10  O1  UNL     1      40.724  38.042  29.210  1.00  0.00    -0.370 OA
ENDROOT
BRANCH   6  11
HETATM   11  C7  UNL     1      38.808  35.093  28.154  1.00  0.00     0.091 A 
HETATM   12  N1  UNL     1      38.476  35.273  26.893  1.00  0.00    -0.187 N 
HETATM   13  C8  UNL     1      37.876  34.315  26.233  1.00  0.00     0.682 A 
ATOM     14  H1  UNL     1      38.686  36.157  26.430  1.00  0.00     0.184 HD
HETATM   15  N3  UNL     1      37.627  33.175  26.895  1.00  0.00    -0.159 N 
HETATM   16  S1  UNL     1      38.254  33.509  28.423  1.00  0.00     0.016 SA
ATOM     17  H3  UNL     1      37.175  32.325  26.559  1.00  0.00     0.193 HD
BRANCH  13  18
HETATM   18  N2  UNL     1      37.531  34.477  24.954  1.00  0.00    -0.234 N 
ATOM     19  H22 UNL     1      36.590  34.269  24.620  1.00  0.00     0.174 HD
ATOM     20  H21 UNL     1      38.206  34.819  24.271  1.00  0.00     0.174 HD
ENDBRANCH  13  18
ENDBRANCH   6  11
TORSDOF 2
ENDMDL
MODEL 4
REMARK VINA RESULT: -5.512424386      3.186      6.050
REMARK  2 active torsions:
REMARK  status: ('A' for Active; 'I' for Inactive)
REMARK    1  A    between atoms: C6_6  and  C7_7 
REMARK    2  A    between atoms: C8_10  and  N2_11 
ROOT
HETATM    1  C1  UNL     1      40.361  39.541  32.363  1.00  0.00     0.045 C 
HETATM    2  C2  UNL     1      39.578  38.875  31.222  1.00  0.00     0.055 C 
HETATM    3  C3  UNL     1      38.384  39.809  30.972  1.00  0.00     0.045 C 
HETATM    4  C4  UNL     1      39.029  37.599  31.751  1.00  0.00     0.038 C 
HETATM    5  C5  UNL     1      38.335  36.929  30.557  1.00  0.00     0.017 C 
HETATM    6  C6  UNL     1      39.505  36.624  29.613  1.00  0.00     0.079 C 
HETATM    7  C9  UNL     1      40.294  37.819  29.261  1.00  0.00     0.064 C 
HETATM    8  C10 UNL     1      41.752  37.368  29.042  1.00  0.00     0.046 C 
HETATM    9  C11 UNL     1      39.896  38.430  27.912  1.00  0.00     0.046 C 
HETATM   10  O1  UNL     1      40.338  38.840  30.136  1.00  0.00    -0.370 OA
ENDROOT
BRANCH   6  11
HETATM   11  C7  UNL     1      38.952  35.882  28.458  1.00  0.00     0.091 A 
HETATM   12  N1  UNL     1      38.961  36.116  27.162  1.00  0.00    -0.187 N 
HETATM   13  C8  UNL     1      38.382  35.276  26.344  1.00  0.00     0.682 A 
ATOM     14  H1  UNL     1      39.419  36.952  26.798  1.00  0.00     0.184 HD
HETATM   15  N3  UNL     1      37.797  34.196  26.882  1.00  0.00    -0.159 N 
HETATM   16  S1  UNL     1      38.092  34.417  28.526  1.00  0.00     0.016 SA
ATOM     17  H3  UNL     1      37.302  33.437  26.416  1.00  0.00     0.193 HD
BRANCH  13  18
HETATM   18  N2  UNL     1      38.381  35.496  25.027  1.00  0.00    -0.234 N 
ATOM     19  H22 UNL     1      38.900  36.269  24.609  1.00  0.00     0.174 HD
ATOM     20  H21 UNL     1      37.855  34.891  24.397  1.00  0.00     0.174 HD
ENDBRANCH  13  18
ENDBRANCH   6  11
TORSDOF 2
ENDMDL
MODEL 5
REMARK VINA RESULT: -5.313148159      3.557      5.271
REMARK  2 active torsions:
REMARK  status: ('A' for Active; 'I' for Inactive)
REMARK    1  A    between atoms: C6_6  and  C7_7 
REMARK    2  A    between atoms: C8_10  and  N2_11 
ROOT
HETATM    1  C1  UNL     1      41.841  40.543  27.524  1.00  0.00     0.045 C 
HETATM    2  C2  UNL     1      41.471  39.089  27.195  1.00  0.00     0.055 C 
HETATM    3  C3  UNL     1      42.582  38.610  26.249  1.00  0.00     0.045 C 
HETATM    4  C4  UNL     1      40.212  39.123  26.406  1.00  0.00     0.038 C 
HETATM    5  C5  UNL     1      39.834  37.652  26.179  1.00  0.00     0.017 C 
HETATM    6  C6  UNL     1      39.530  37.159  27.600  1.00  0.00     0.079 C 
HETATM    7  C9  UNL     1      40.650  37.358  28.537  1.00  0.00     0.064 C 
HETATM    8  C10 UNL     1      40.051  37.601  29.936  1.00  0.00     0.046 C 
HETATM    9  C11 UNL     1      41.512  36.103  28.723  1.00  0.00     0.046 C 
HETATM   10  O1  UNL     1      41.506  38.370  28.308  1.00  0.00    -0.370 OA
ENDROOT
BRANCH   6  11
HETATM   11  C7  UNL     1      39.057  35.761  27.483  1.00  0.00     0.091 A 
HETATM   12  N1  UNL     1      38.556  34.915  28.359  1.00  0.00    -0.187 N 
HETATM   13  C8  UNL     1      38.213  33.711  27.979  1.00  0.00     0.682 A 
ATOM     14  H1  UNL     1      38.436  35.198  29.331  1.00  0.00     0.184 HD
HETATM   15  N3  UNL     1      38.395  33.397  26.688  1.00  0.00    -0.159 N 
HETATM   16  S1  UNL     1      39.044  34.822  26.066  1.00  0.00     0.016 SA
ATOM     17  H3  UNL     1      38.191  32.521  26.207  1.00  0.00     0.193 HD
BRANCH  13  18
HETATM   18  N2  UNL     1      37.704  32.838  28.852  1.00  0.00    -0.234 N 
ATOM     19  H22 UNL     1      37.628  33.053  29.847  1.00  0.00     0.174 HD
ATOM     20  H21 UNL     1      37.373  31.924  28.544  1.00  0.00     0.174 HD
ENDBRANCH  13  18
ENDBRANCH   6  11
TORSDOF 2
ENDMDL
