MODEL 1
REMARK VINA RESULT: -7.598235209      0.000      0.000
REMARK  1 active torsions:
REMARK  status: ('A' for Active; 'I' for Inactive)
REMARK    1  A    between atoms: C8_8  and  C9_9 
ROOT
HETATM    1  C1  UNL     1      39.210  32.588  24.858  1.00  0.00     0.015 C 
HETATM    2  C2  UNL     1      38.317  33.462  25.722  1.00  0.00    -0.043 C 
HETATM    3  C3  UNL     1      36.943  33.583  25.073  1.00  0.00     0.015 C 
HETATM    4  C4  UNL     1      38.224  32.836  27.080  1.00  0.00     0.013 C 
HETATM    5  C5  UNL     1      37.362  33.690  27.999  1.00  0.00     0.040 C 
HETATM    6  C6  UNL     1      38.233  34.923  28.249  1.00  0.00    -0.044 A 
HETATM    7  C7  UNL     1      38.362  35.576  29.414  1.00  0.00     0.025 A 
HETATM    8  C8  UNL     1      39.194  36.662  29.441  1.00  0.00     0.019 A 
HETATM    9  S1  UNL     1      39.770  36.737  27.842  1.00  0.00    -0.096 SA
HETATM   10  C13 UNL     1      38.942  35.394  27.182  1.00  0.00    -0.010 A 
HETATM   11  C14 UNL     1      38.930  34.805  25.808  1.00  0.00     0.055 C 
ENDROOT
BRANCH   8  12
HETATM   12  C9  UNL     1      39.541  37.581  30.567  1.00  0.00     0.300 A 
HETATM   13  C10 UNL     1      38.772  38.880  30.536  1.00  0.00     0.289 A 
HETATM   14  C11 UNL     1      39.422  40.052  31.221  1.00  0.00     0.272 C 
HETATM   15  N2  UNL     1      38.519  37.886  31.545  1.00  0.00     0.134 N 
HETATM   16  N1  UNL     1      39.227  39.805  32.634  1.00  0.00    -0.046 N 
HETATM   17  C12 UNL     1      39.021  38.396  32.797  1.00  0.00     0.504 C 
ATOM     18  H12 UNL     1      39.988  40.166  33.210  1.00  0.00     0.279 HD
ATOM     19  H11 UNL     1      38.477  40.368  33.037  1.00  0.00     0.279 HD
ENDBRANCH   8  12
TORSDOF 1
ENDMDL
MODEL 2
REMARK VINA RESULT: -6.993051864      1.478      1.759
REMARK  1 active torsions:
REMARK  status: ('A' for Active; 'I' for Inactive)
REMARK    1  A    between atoms: C8_8  and  C9_9 
ROOT
HETATM    1  C1  UNL     1      39.099  32.476  24.684  1.00  0.00     0.015 C 
HETATM    2  C2  UNL     1      38.306  33.441  25.550  1.00  0.00    -0.043 C 
HETATM    3  C3  UNL     1      36.886  33.563  25.007  1.00  0.00     0.015 C 
HETATM    4  C4  UNL     1      38.307  32.918  26.954  1.00  0.00     0.013 C 
HETATM    5  C5  UNL     1      37.550  33.865  27.873  1.00  0.00     0.040 C 
HETATM    6  C6  UNL     1      38.474  35.082  27.959  1.00  0.00    -0.044 A 
HETATM    7  C7  UNL     1      38.718  35.812  29.059  1.00  0.00     0.025 A 
HETATM    8  C8  UNL     1      39.581  36.867  28.938  1.00  0.00     0.019 A 
HETATM    9  S1  UNL     1      40.024  36.807  27.296  1.00  0.00    -0.096 SA
HETATM   10  C13 UNL     1      39.105  35.449  26.807  1.00  0.00    -0.010 A 
HETATM   11  C14 UNL     1      38.963  34.764  25.486  1.00  0.00     0.055 C 
ENDROOT
BRANCH   8  12
HETATM   12  C9  UNL     1      40.047  37.852  29.961  1.00  0.00     0.300 A 
HETATM   13  C10 UNL     1      41.543  37.846  30.157  1.00  0.00     0.289 A 
HETATM   14  C11 UNL     1      42.039  38.329  31.493  1.00  0.00     0.272 C 
HETATM   15  N2  UNL     1      40.877  38.953  29.526  1.00  0.00     0.134 N 
HETATM   16  N1  UNL     1      41.910  39.769  31.433  1.00  0.00    -0.046 N 
HETATM   17  C12 UNL     1      40.921  40.068  30.440  1.00  0.00     0.504 C 
ATOM     18  H12 UNL     1      41.703  40.189  32.340  1.00  0.00     0.279 HD
ATOM     19  H11 UNL     1      42.798  40.243  31.268  1.00  0.00     0.279 HD
ENDBRANCH   8  12
TORSDOF 1
ENDMDL
MODEL 3
REMARK VINA RESULT: -6.767737869      2.787      6.822
REMARK  1 active torsions:
REMARK  status: ('A' for Active; 'I' for Inactive)
REMARK    1  A    between atoms: C8_8  and  C9_9 
ROOT
HETATM    1  C1  UNL     1      39.323  40.350  31.666  1.00  0.00     0.015 C 
HETATM    2  C2  UNL     1      39.379  38.838  31.807  1.00  0.00    -0.043 C 
HETATM    3  C3  UNL     1      40.316  38.468  32.951  1.00  0.00     0.015 C 
HETATM    4  C4  UNL     1      37.989  38.340  32.061  1.00  0.00     0.013 C 
HETATM    5  C5  UNL     1      37.982  36.824  32.180  1.00  0.00     0.040 C 
HETATM    6  C6  UNL     1      38.256  36.359  30.748  1.00  0.00    -0.044 A 
HETATM    7  C7  UNL     1      37.682  35.313  30.133  1.00  0.00     0.025 A 
HETATM    8  C8  UNL     1      38.057  35.055  28.843  1.00  0.00     0.019 A 
HETATM    9  S1  UNL     1      39.196  36.279  28.528  1.00  0.00    -0.096 SA
HETATM   10  C13 UNL     1      39.168  37.083  30.038  1.00  0.00    -0.010 A 
HETATM   11  C14 UNL     1      39.911  38.277  30.546  1.00  0.00     0.055 C 
ENDROOT
BRANCH   8  12
HETATM   12  C9  UNL     1      37.606  33.981  27.906  1.00  0.00     0.300 A 
HETATM   13  C10 UNL     1      38.123  34.161  26.500  1.00  0.00     0.289 A 
HETATM   14  C11 UNL     1      37.307  33.526  25.407  1.00  0.00     0.272 C 
HETATM   15  N2  UNL     1      38.604  33.099  27.342  1.00  0.00     0.134 N 
HETATM   16  N1  UNL     1      37.615  32.114  25.492  1.00  0.00    -0.046 N 
HETATM   17  C12 UNL     1      38.082  31.859  26.823  1.00  0.00     0.504 C 
ATOM     18  H12 UNL     1      36.832  31.518  25.223  1.00  0.00     0.279 HD
ATOM     19  H11 UNL     1      38.270  31.805  24.773  1.00  0.00     0.279 HD
ENDBRANCH   8  12
TORSDOF 1
ENDMDL
MODEL 4
REMARK VINA RESULT: -6.726516803      1.087      1.104
REMARK  1 active torsions:
REMARK  status: ('A' for Active; 'I' for Inactive)
REMARK    1  A    between atoms: C8_8  and  C9_9 
ROOT
HETATM    1  C1  UNL     1      38.869  32.233  25.235  1.00  0.00     0.015 C 
HETATM    2  C2  UNL     1      38.228  33.397  25.972  1.00  0.00    -0.043 C 
HETATM    3  C3  UNL     1      36.862  33.693  25.364  1.00  0.00     0.015 C 
HETATM    4  C4  UNL     1      38.109  33.025  27.419  1.00  0.00     0.013 C 
HETATM    5  C5  UNL     1      37.499  34.171  28.212  1.00  0.00     0.040 C 
HETATM    6  C6  UNL     1      38.611  35.223  28.218  1.00  0.00    -0.044 A 
HETATM    7  C7  UNL     1      38.947  36.011  29.252  1.00  0.00     0.025 A 
HETATM    8  C8  UNL     1      39.976  36.893  29.065  1.00  0.00     0.019 A 
HETATM    9  S1  UNL     1      40.441  36.596  27.455  1.00  0.00    -0.096 SA
HETATM   10  C13 UNL     1      39.321  35.364  27.062  1.00  0.00    -0.010 A 
HETATM   11  C14 UNL     1      39.097  34.582  25.808  1.00  0.00     0.055 C 
ENDROOT
BRANCH   8  12
HETATM   12  C9  UNL     1      40.575  37.887  30.006  1.00  0.00     0.300 A 
HETATM   13  C10 UNL     1      40.123  39.303  29.746  1.00  0.00     0.289 A 
HETATM   14  C11 UNL     1      41.055  40.391  30.207  1.00  0.00     0.272 C 
HETATM   15  N2  UNL     1      39.696  38.586  30.917  1.00  0.00     0.134 N 
HETATM   16  N1  UNL     1      40.874  40.446  31.642  1.00  0.00    -0.046 N 
HETATM   17  C12 UNL     1      40.358  39.174  32.056  1.00  0.00     0.504 C 
ATOM     18  H12 UNL     1      41.722  40.714  32.141  1.00  0.00     0.279 HD
ATOM     19  H11 UNL     1      40.292  41.229  31.941  1.00  0.00     0.279 HD
ENDBRANCH   8  12
TORSDOF 1
ENDMDL
MODEL 5
REMARK VINA RESULT: -6.650605371      0.942      1.817
REMARK  1 active torsions:
REMARK  status: ('A' for Active; 'I' for Inactive)
REMARK    1  A    between atoms: C8_8  and  C9_9 
ROOT
HETATM    1  C1  UNL     1      36.766  33.624  24.735  1.00  0.00     0.015 C 
HETATM    2  C2  UNL     1      38.044  33.874  25.520  1.00  0.00    -0.043 C 
HETATM    3  C3  UNL     1      39.094  32.842  25.125  1.00  0.00     0.015 C 
HETATM    4  C4  UNL     1      38.511  35.266  25.220  1.00  0.00     0.013 C 
HETATM    5  C5  UNL     1      39.775  35.581  26.006  1.00  0.00     0.040 C 
HETATM    6  C6  UNL     1      39.272  35.692  27.447  1.00  0.00    -0.044 A 
HETATM    7  C7  UNL     1      39.682  36.586  28.361  1.00  0.00     0.025 A 
HETATM    8  C8  UNL     1      39.110  36.528  29.602  1.00  0.00     0.019 A 
HETATM    9  S1  UNL     1      38.020  35.229  29.456  1.00  0.00    -0.096 SA
HETATM   10  C13 UNL     1      38.318  34.794  27.829  1.00  0.00    -0.010 A 
HETATM   11  C14 UNL     1      37.737  33.726  26.959  1.00  0.00     0.055 C 
ENDROOT
BRANCH   8  12
HETATM   12  C9  UNL     1      39.350  37.371  30.813  1.00  0.00     0.300 A 
HETATM   13  C10 UNL     1      38.578  38.668  30.799  1.00  0.00     0.289 A 
HETATM   14  C11 UNL     1      39.157  39.793  31.614  1.00  0.00     0.272 C 
HETATM   15  N2  UNL     1      38.244  37.609  31.713  1.00  0.00     0.134 N 
HETATM   16  N1  UNL     1      38.839  39.453  32.985  1.00  0.00    -0.046 N 
HETATM   17  C12 UNL     1      38.630  38.036  33.036  1.00  0.00     0.504 C 
ATOM     18  H12 UNL     1      39.543  39.776  33.649  1.00  0.00     0.279 HD
ATOM     19  H11 UNL     1      38.053  39.987  33.356  1.00  0.00     0.279 HD
ENDBRANCH   8  12
TORSDOF 1
ENDMDL
