MODEL 1
REMARK VINA RESULT: -5.389043780      0.000      0.000
REMARK  6 active torsions:
REMARK  status: ('A' for Active; 'I' for Inactive)
REMARK    1  A    between atoms: C2_2  and  S1_3 
REMARK    2  A    between atoms: C2_2  and  C12_17 
REMARK    3  A    between atoms: S1_3  and  C3_4 
REMARK    4  A    between atoms: C3_4  and  N2_11 
REMARK    5  A    between atoms: N1_5  and  C4_7 
REMARK    6  A    between atoms: N2_11  and  C8_13 
ROOT
HETATM    1  C3  UNL     1      39.602  36.883  26.861  1.00  0.00     0.138 C 
HETATM    2  N1  UNL     1      40.250  37.332  25.871  1.00  0.00    -0.363 N 
ATOM      3  H1  UNL     1      40.553  36.608  25.219  1.00  0.00     0.162 HD
ENDROOT
BRANCH   1   4
HETATM    4  S1  UNL     1      39.348  35.108  26.928  1.00  0.00    -0.079 SA
BRANCH   4   5
HETATM    5  C2  UNL     1      38.512  34.494  25.447  1.00  0.00     0.152 C 
HETATM    6  C1  UNL     1      39.221  33.304  24.838  1.00  0.00     0.033 C 
BRANCH   5   7
HETATM    7  C12 UNL     1      37.144  34.073  25.838  1.00  0.00     0.187 C 
HETATM    8  O1  UNL     1      36.856  33.802  27.031  1.00  0.00    -0.647 OA
HETATM    9  O2  UNL     1      36.110  33.952  24.916  1.00  0.00    -0.647 OA
ENDBRANCH   5   7
ENDBRANCH   4   5
ENDBRANCH   1   4
BRANCH   1  10
HETATM   10  N2  UNL     1      39.062  37.640  27.914  1.00  0.00    -0.363 N 
ATOM     11  H2  UNL     1      38.213  38.163  27.700  1.00  0.00     0.162 HD
BRANCH  10  12
HETATM   12  C8  UNL     1      39.554  37.764  29.239  1.00  0.00     0.021 C 
HETATM   13  C9  UNL     1      38.761  36.893  30.206  1.00  0.00     0.037 C 
HETATM   14  C10 UNL     1      39.351  39.194  29.699  1.00  0.00     0.037 C 
HETATM   15  C11 UNL     1      41.016  37.437  29.405  1.00  0.00     0.037 C 
ENDBRANCH  10  12
ENDBRANCH   1  10
BRANCH   2  16
HETATM   16  C4  UNL     1      40.631  38.619  25.494  1.00  0.00     0.021 C 
HETATM   17  C5  UNL     1      40.651  38.754  23.989  1.00  0.00     0.037 C 
HETATM   18  C6  UNL     1      39.822  39.753  26.053  1.00  0.00     0.037 C 
HETATM   19  C7  UNL     1      42.078  38.852  25.952  1.00  0.00     0.037 C 
ENDBRANCH   2  16
TORSDOF 6
ENDMDL
MODEL 2
REMARK VINA RESULT: -5.165703398      0.099      1.021
REMARK  6 active torsions:
REMARK  status: ('A' for Active; 'I' for Inactive)
REMARK    1  A    between atoms: C2_2  and  S1_3 
REMARK    2  A    between atoms: C2_2  and  C12_17 
REMARK    3  A    between atoms: S1_3  and  C3_4 
REMARK    4  A    between atoms: C3_4  and  N2_11 
REMARK    5  A    between atoms: N1_5  and  C4_7 
REMARK    6  A    between atoms: N2_11  and  C8_13 
ROOT
HETATM    1  C3  UNL     1      39.606  36.948  26.933  1.00  0.00     0.138 C 
HETATM    2  N1  UNL     1      40.264  37.366  25.936  1.00  0.00    -0.363 N 
ATOM      3  H1  UNL     1      40.535  36.627  25.287  1.00  0.00     0.162 HD
ENDROOT
BRANCH   1   4
HETATM    4  S1  UNL     1      39.284  35.185  27.012  1.00  0.00    -0.079 SA
BRANCH   4   5
HETATM    5  C2  UNL     1      38.492  34.579  25.504  1.00  0.00     0.152 C 
HETATM    6  C1  UNL     1      39.254  33.435  24.874  1.00  0.00     0.033 C 
BRANCH   5   7
HETATM    7  C12 UNL     1      37.136  34.094  25.865  1.00  0.00     0.187 C 
HETATM    8  O1  UNL     1      36.842  33.785  27.047  1.00  0.00    -0.647 OA
HETATM    9  O2  UNL     1      36.121  33.954  24.925  1.00  0.00    -0.647 OA
ENDBRANCH   5   7
ENDBRANCH   4   5
ENDBRANCH   1   4
BRANCH   1  10
HETATM   10  N2  UNL     1      39.102  37.732  27.985  1.00  0.00    -0.363 N 
ATOM     11  H2  UNL     1      38.286  38.303  27.767  1.00  0.00     0.162 HD
BRANCH  10  12
HETATM   12  C8  UNL     1      39.591  37.824  29.313  1.00  0.00     0.021 C 
HETATM   13  C9  UNL     1      38.782  36.948  30.262  1.00  0.00     0.037 C 
HETATM   14  C10 UNL     1      39.408  39.249  29.799  1.00  0.00     0.037 C 
HETATM   15  C11 UNL     1      41.047  37.472  29.478  1.00  0.00     0.037 C 
ENDBRANCH  10  12
ENDBRANCH   1  10
BRANCH   2  16
HETATM   16  C4  UNL     1      40.692  38.636  25.549  1.00  0.00     0.021 C 
HETATM   17  C5  UNL     1      39.753  39.700  26.066  1.00  0.00     0.037 C 
HETATM   18  C6  UNL     1      42.091  39.021  25.932  1.00  0.00     0.037 C 
HETATM   19  C7  UNL     1      40.621  38.726  24.018  1.00  0.00     0.037 C 
ENDBRANCH   2  16
TORSDOF 6
ENDMDL
MODEL 3
REMARK VINA RESULT: -5.129673660      1.241      3.508
REMARK  6 active torsions:
REMARK  status: ('A' for Active; 'I' for Inactive)
REMARK    1  A    between atoms: C2_2  and  S1_3 
REMARK    2  A    between atoms: C2_2  and  C12_17 
REMARK    3  A    between atoms: S1_3  and  C3_4 
REMARK    4  A    between atoms: C3_4  and  N2_11 
REMARK    5  A    between atoms: N1_5  and  C4_7 
REMARK    6  A    between atoms: N2_11  and  C8_13 
ROOT
HETATM    1  C3  UNL     1      39.065  36.452  28.268  1.00  0.00     0.138 C 
HETATM    2  N1  UNL     1      39.111  36.651  29.516  1.00  0.00    -0.363 N 
ATOM      3  H1  UNL     1      38.938  35.813  30.071  1.00  0.00     0.162 HD
ENDROOT
BRANCH   1   4
HETATM    4  S1  UNL     1      38.713  34.779  27.725  1.00  0.00    -0.079 SA
BRANCH   4   5
HETATM    5  C2  UNL     1      38.264  34.721  25.975  1.00  0.00     0.152 C 
HETATM    6  C1  UNL     1      39.419  34.288  25.099  1.00  0.00     0.033 C 
BRANCH   5   7
HETATM    7  C12 UNL     1      37.164  33.737  25.818  1.00  0.00     0.187 C 
HETATM    8  O1  UNL     1      37.239  32.584  26.312  1.00  0.00    -0.647 OA
HETATM    9  O2  UNL     1      35.998  34.029  25.120  1.00  0.00    -0.647 OA
ENDBRANCH   5   7
ENDBRANCH   4   5
ENDBRANCH   1   4
BRANCH   1  10
HETATM   10  N2  UNL     1      39.263  37.415  27.264  1.00  0.00    -0.363 N 
ATOM     11  H2  UNL     1      38.422  37.861  26.898  1.00  0.00     0.162 HD
BRANCH  10  12
HETATM   12  C8  UNL     1      40.491  37.842  26.698  1.00  0.00     0.021 C 
HETATM   13  C9  UNL     1      40.794  39.290  27.064  1.00  0.00     0.037 C 
HETATM   14  C10 UNL     1      40.367  37.808  25.187  1.00  0.00     0.037 C 
HETATM   15  C11 UNL     1      41.687  37.005  27.073  1.00  0.00     0.037 C 
ENDBRANCH  10  12
ENDBRANCH   1  10
BRANCH   2  16
HETATM   16  C4  UNL     1      39.353  37.790  30.286  1.00  0.00     0.021 C 
HETATM   17  C5  UNL     1      40.830  37.953  30.554  1.00  0.00     0.037 C 
HETATM   18  C6  UNL     1      38.829  39.090  29.748  1.00  0.00     0.037 C 
HETATM   19  C7  UNL     1      38.699  37.595  31.661  1.00  0.00     0.037 C 
ENDBRANCH   2  16
TORSDOF 6
ENDMDL
MODEL 4
REMARK VINA RESULT: -5.063734807      1.630      2.197
REMARK  6 active torsions:
REMARK  status: ('A' for Active; 'I' for Inactive)
REMARK    1  A    between atoms: C2_2  and  S1_3 
REMARK    2  A    between atoms: C2_2  and  C12_17 
REMARK    3  A    between atoms: S1_3  and  C3_4 
REMARK    4  A    between atoms: C3_4  and  N2_11 
REMARK    5  A    between atoms: N1_5  and  C4_7 
REMARK    6  A    between atoms: N2_11  and  C8_13 
ROOT
HETATM    1  C3  UNL     1      39.361  36.588  26.168  1.00  0.00     0.138 C 
HETATM    2  N1  UNL     1      40.078  37.525  25.711  1.00  0.00    -0.363 N 
ATOM      3  H1  UNL     1      40.490  37.318  24.802  1.00  0.00     0.162 HD
ENDROOT
BRANCH   1   4
HETATM    4  S1  UNL     1      39.211  35.114  25.156  1.00  0.00    -0.079 SA
BRANCH   4   5
HETATM    5  C2  UNL     1      37.901  34.019  25.754  1.00  0.00     0.152 C 
HETATM    6  C1  UNL     1      36.756  33.905  24.773  1.00  0.00     0.033 C 
BRANCH   5   7
HETATM    7  C12 UNL     1      38.488  32.670  25.947  1.00  0.00     0.187 C 
HETATM    8  O1  UNL     1      39.198  32.130  25.062  1.00  0.00    -0.647 OA
HETATM    9  O2  UNL     1      38.286  31.929  27.106  1.00  0.00    -0.647 OA
ENDBRANCH   5   7
ENDBRANCH   4   5
ENDBRANCH   1   4
BRANCH   1  10
HETATM   10  N2  UNL     1      38.671  36.589  27.392  1.00  0.00    -0.363 N 
ATOM     11  H2  UNL     1      37.727  36.975  27.374  1.00  0.00     0.162 HD
BRANCH  10  12
HETATM   12  C8  UNL     1      39.127  36.117  28.649  1.00  0.00     0.021 C 
HETATM   13  C9  UNL     1      40.551  35.582  28.555  1.00  0.00     0.037 C 
HETATM   14  C10 UNL     1      38.265  34.942  29.069  1.00  0.00     0.037 C 
HETATM   15  C11 UNL     1      39.081  37.133  29.762  1.00  0.00     0.037 C 
ENDBRANCH  10  12
ENDBRANCH   1  10
BRANCH   2  16
HETATM   16  C4  UNL     1      40.417  38.785  26.205  1.00  0.00     0.021 C 
HETATM   17  C5  UNL     1      40.787  39.721  25.078  1.00  0.00     0.037 C 
HETATM   18  C6  UNL     1      39.393  39.470  27.063  1.00  0.00     0.037 C 
HETATM   19  C7  UNL     1      41.681  38.647  27.064  1.00  0.00     0.037 C 
ENDBRANCH   2  16
TORSDOF 6
ENDMDL
MODEL 5
REMARK VINA RESULT: -5.039096560      1.956      2.708
REMARK  6 active torsions:
REMARK  status: ('A' for Active; 'I' for Inactive)
REMARK    1  A    between atoms: C2_2  and  S1_3 
REMARK    2  A    between atoms: C2_2  and  C12_17 
REMARK    3  A    between atoms: S1_3  and  C3_4 
REMARK    4  A    between atoms: C3_4  and  N2_11 
REMARK    5  A    between atoms: N1_5  and  C4_7 
REMARK    6  A    between atoms: N2_11  and  C8_13 
ROOT
HETATM    1  C3  UNL     1      40.633  36.444  27.720  1.00  0.00     0.138 C 
HETATM    2  N1  UNL     1      41.693  36.750  27.099  1.00  0.00    -0.363 N 
ATOM      3  H1  UNL     1      41.633  36.603  26.092  1.00  0.00     0.162 HD
ENDROOT
BRANCH   1   4
HETATM    4  S1  UNL     1      39.267  35.825  26.736  1.00  0.00    -0.079 SA
BRANCH   4   5
HETATM    5  C2  UNL     1      38.742  34.181  27.277  1.00  0.00     0.152 C 
HETATM    6  C1  UNL     1      37.868  34.234  28.511  1.00  0.00     0.033 C 
BRANCH   5   7
HETATM    7  C12 UNL     1      37.959  33.567  26.176  1.00  0.00     0.187 C 
HETATM    8  O1  UNL     1      38.452  32.680  25.435  1.00  0.00    -0.647 OA
HETATM    9  O2  UNL     1      36.646  33.934  25.901  1.00  0.00    -0.647 OA
ENDBRANCH   5   7
ENDBRANCH   4   5
ENDBRANCH   1   4
BRANCH   1  10
HETATM   10  N2  UNL     1      40.423  36.543  29.105  1.00  0.00    -0.363 N 
ATOM     11  H2  UNL     1      40.716  35.740  29.662  1.00  0.00     0.162 HD
BRANCH  10  12
HETATM   12  C8  UNL     1      39.853  37.624  29.824  1.00  0.00     0.021 C 
HETATM   13  C9  UNL     1      40.827  38.175  30.859  1.00  0.00     0.037 C 
HETATM   14  C10 UNL     1      38.657  37.112  30.604  1.00  0.00     0.037 C 
HETATM   15  C11 UNL     1      39.379  38.773  28.971  1.00  0.00     0.037 C 
ENDBRANCH  10  12
ENDBRANCH   1  10
BRANCH   2  16
HETATM   16  C4  UNL     1      42.925  37.251  27.519  1.00  0.00     0.021 C 
HETATM   17  C5  UNL     1      42.831  38.729  27.819  1.00  0.00     0.037 C 
HETATM   18  C6  UNL     1      43.560  36.575  28.700  1.00  0.00     0.037 C 
HETATM   19  C7  UNL     1      43.922  37.124  26.359  1.00  0.00     0.037 C 
ENDBRANCH   2  16
TORSDOF 6
ENDMDL
