MODEL 1
REMARK VINA RESULT: -6.146007873      0.000      0.000
REMARK  6 active torsions:
REMARK  status: ('A' for Active; 'I' for Inactive)
REMARK    1  A    between atoms: O1_2  and  C2_3 
REMARK    2  A    between atoms: C7_9  and  O2_10 
REMARK    3  A    between atoms: C10_14  and  C12_16 
REMARK    4  A    between atoms: C12_16  and  O3_19 
REMARK    5  A    between atoms: C16_22  and  O4_23 
REMARK    6  A    between atoms: C17_25  and  O5_26 
ROOT
HETATM    1  C2  UNL     1      39.413  36.356  29.856  1.00  0.00     0.160 C 
HETATM    2  C3  UNL     1      40.031  37.621  29.310  1.00  0.00     0.205 C 
HETATM    3  F1  UNL     1      39.071  38.511  28.816  1.00  0.00    -0.246 F 
HETATM    4  C4  UNL     1      41.240  37.486  28.453  1.00  0.00     0.044 C 
HETATM    5  C5  UNL     1      40.925  37.604  27.007  1.00  0.00     0.001 C 
HETATM    6  C6  UNL     1      41.990  37.250  26.032  1.00  0.00     0.050 C 
HETATM    7  C7  UNL     1      42.265  38.729  25.839  1.00  0.00     0.059 C 
HETATM    8  C8  UNL     1      43.463  38.951  26.738  1.00  0.00     0.038 C 
HETATM    9  C9  UNL     1      43.097  39.203  28.113  1.00  0.00     0.016 C 
HETATM   10  C10 UNL     1      42.466  38.175  28.980  1.00  0.00    -0.006 C 
HETATM   11  C11 UNL     1      42.090  39.122  30.154  1.00  0.00     0.019 C 
HETATM   12  C15 UNL     1      40.950  39.018  26.461  1.00  0.00     0.050 C 
HETATM   13  C16 UNL     1      39.682  36.936  26.513  1.00  0.00     0.156 C 
HETATM   14  C17 UNL     1      39.543  35.474  26.731  1.00  0.00     0.152 C 
HETATM   15  C18 UNL     1      38.592  35.283  27.872  1.00  0.00     0.032 A 
HETATM   16  C19 UNL     1      39.483  35.139  29.066  1.00  0.00     0.033 A 
HETATM   17  C20 UNL     1      38.455  34.150  28.749  1.00  0.00    -0.035 A 
HETATM   18  C21 UNL     1      38.871  32.805  28.172  1.00  0.00     0.016 C 
HETATM   19  C22 UNL     1      37.202  34.030  29.584  1.00  0.00     0.016 C 
ENDROOT
BRANCH  10  20
HETATM   20  C12 UNL     1      43.514  37.296  29.586  1.00  0.00     0.058 C 
HETATM   21  C13 UNL     1      43.628  35.894  29.029  1.00  0.00     0.046 C 
HETATM   22  C14 UNL     1      43.351  37.058  31.088  1.00  0.00     0.046 C 
BRANCH  20  23
HETATM   23  O3  UNL     1      44.812  37.807  29.558  1.00  0.00    -0.390 OA
ATOM     24  H3  UNL     1      45.354  37.502  28.840  1.00  0.00     0.210 HD
ENDBRANCH  20  23
ENDBRANCH  10  20
BRANCH   1  25
HETATM   25  O1  UNL     1      38.133  36.690  30.309  1.00  0.00    -0.387 OA
HETATM   26  C1  UNL     1      38.097  36.902  31.699  1.00  0.00     0.202 C 
ENDBRANCH   1  25
BRANCH  13  27
HETATM   27  O4  UNL     1      39.641  37.105  25.093  1.00  0.00    -0.392 OA
ATOM     28  H4  UNL     1      39.748  38.032  24.914  1.00  0.00     0.210 HD
ENDBRANCH  13  27
BRANCH   7  29
HETATM   29  O2  UNL     1      42.429  39.178  24.557  1.00  0.00    -0.390 OA
ATOM     30  H2  UNL     1      42.444  40.117  24.421  1.00  0.00     0.210 HD
ENDBRANCH   7  29
BRANCH  14  31
HETATM   31  O5  UNL     1      38.991  34.786  25.651  1.00  0.00    -0.393 OA
ATOM     32  H5  UNL     1      38.126  34.429  25.819  1.00  0.00     0.210 HD
ENDBRANCH  14  31
TORSDOF 6
ENDMDL
MODEL 2
REMARK VINA RESULT: -6.013319525      2.118      5.452
REMARK  6 active torsions:
REMARK  status: ('A' for Active; 'I' for Inactive)
REMARK    1  A    between atoms: O1_2  and  C2_3 
REMARK    2  A    between atoms: C7_9  and  O2_10 
REMARK    3  A    between atoms: C10_14  and  C12_16 
REMARK    4  A    between atoms: C12_16  and  O3_19 
REMARK    5  A    between atoms: C16_22  and  O4_23 
REMARK    6  A    between atoms: C17_25  and  O5_26 
ROOT
HETATM    1  C2  UNL     1      42.454  39.753  27.082  1.00  0.00     0.160 C 
HETATM    2  C3  UNL     1      42.218  38.716  28.153  1.00  0.00     0.205 C 
HETATM    3  F1  UNL     1      43.052  37.602  28.009  1.00  0.00    -0.246 F 
HETATM    4  C4  UNL     1      40.809  38.385  28.496  1.00  0.00     0.044 C 
HETATM    5  C5  UNL     1      40.355  37.119  27.866  1.00  0.00     0.001 C 
HETATM    6  C6  UNL     1      38.905  36.794  27.924  1.00  0.00     0.050 C 
HETATM    7  C7  UNL     1      39.196  35.834  29.061  1.00  0.00     0.059 C 
HETATM    8  C8  UNL     1      38.838  36.661  30.278  1.00  0.00     0.038 C 
HETATM    9  C9  UNL     1      39.921  37.507  30.723  1.00  0.00     0.016 C 
HETATM   10  C10 UNL     1      40.427  38.653  29.924  1.00  0.00    -0.006 C 
HETATM   11  C11 UNL     1      41.696  38.932  30.777  1.00  0.00     0.019 C 
HETATM   12  C15 UNL     1      40.628  35.868  28.676  1.00  0.00     0.050 C 
HETATM   13  C16 UNL     1      40.773  36.861  26.454  1.00  0.00     0.156 C 
HETATM   14  C17 UNL     1      40.399  37.861  25.422  1.00  0.00     0.152 C 
HETATM   15  C18 UNL     1      41.628  38.659  25.112  1.00  0.00     0.032 A 
HETATM   16  C19 UNL     1      41.505  39.867  25.989  1.00  0.00     0.033 A 
HETATM   17  C20 UNL     1      41.722  39.981  24.548  1.00  0.00    -0.035 A 
HETATM   18  C21 UNL     1      40.568  40.409  23.654  1.00  0.00     0.016 C 
HETATM   19  C22 UNL     1      43.050  40.436  23.991  1.00  0.00     0.016 C 
ENDROOT
BRANCH  10  20
HETATM   20  C12 UNL     1      39.588  39.866  30.171  1.00  0.00     0.058 C 
HETATM   21  C13 UNL     1      38.544  39.759  31.260  1.00  0.00     0.046 C 
HETATM   22  C14 UNL     1      38.779  40.334  28.961  1.00  0.00     0.046 C 
BRANCH  20  23
HETATM   23  O3  UNL     1      40.297  41.034  30.458  1.00  0.00    -0.390 OA
ATOM     24  H3  UNL     1      39.790  41.837  30.414  1.00  0.00     0.210 HD
ENDBRANCH  20  23
ENDBRANCH  10  20
BRANCH   1  25
HETATM   25  O1  UNL     1      43.792  39.637  26.690  1.00  0.00    -0.387 OA
HETATM   26  C1  UNL     1      44.633  40.517  27.393  1.00  0.00     0.202 C 
ENDBRANCH   1  25
BRANCH  13  27
HETATM   27  O4  UNL     1      40.147  35.645  26.038  1.00  0.00    -0.392 OA
ATOM     28  H4  UNL     1      39.849  35.769  25.143  1.00  0.00     0.210 HD
ENDBRANCH  13  27
BRANCH   7  29
HETATM   29  O2  UNL     1      38.596  34.604  29.017  1.00  0.00    -0.390 OA
ATOM     30  H2  UNL     1      38.912  33.941  29.618  1.00  0.00     0.210 HD
ENDBRANCH   7  29
BRANCH  14  31
HETATM   31  O5  UNL     1      39.987  37.304  24.212  1.00  0.00    -0.393 OA
ATOM     32  H5  UNL     1      40.700  37.078  23.625  1.00  0.00     0.210 HD
ENDBRANCH  14  31
TORSDOF 6
ENDMDL
MODEL 3
REMARK VINA RESULT: -5.985291355      2.286      4.738
REMARK  6 active torsions:
REMARK  status: ('A' for Active; 'I' for Inactive)
REMARK    1  A    between atoms: O1_2  and  C2_3 
REMARK    2  A    between atoms: C7_9  and  O2_10 
REMARK    3  A    between atoms: C10_14  and  C12_16 
REMARK    4  A    between atoms: C12_16  and  O3_19 
REMARK    5  A    between atoms: C16_22  and  O4_23 
REMARK    6  A    between atoms: C17_25  and  O5_26 
ROOT
HETATM    1  C2  UNL     1      39.441  37.169  27.026  1.00  0.00     0.160 C 
HETATM    2  C3  UNL     1      40.519  38.037  26.422  1.00  0.00     0.205 C 
HETATM    3  F1  UNL     1      41.692  37.321  26.159  1.00  0.00    -0.246 F 
HETATM    4  C4  UNL     1      40.743  39.380  27.022  1.00  0.00     0.044 C 
HETATM    5  C5  UNL     1      41.919  39.407  27.927  1.00  0.00     0.001 C 
HETATM    6  C6  UNL     1      42.115  40.611  28.777  1.00  0.00     0.050 C 
HETATM    7  C7  UNL     1      43.168  41.094  27.799  1.00  0.00     0.059 C 
HETATM    8  C8  UNL     1      42.392  42.082  26.955  1.00  0.00     0.038 C 
HETATM    9  C9  UNL     1      41.677  41.456  25.867  1.00  0.00     0.016 C 
HETATM   10  C10 UNL     1      40.532  40.533  26.082  1.00  0.00    -0.006 C 
HETATM   11  C11 UNL     1      40.424  40.022  24.618  1.00  0.00     0.019 C 
HETATM   12  C15 UNL     1      43.239  39.718  27.250  1.00  0.00     0.050 C 
HETATM   13  C16 UNL     1      42.123  38.234  28.831  1.00  0.00     0.156 C 
HETATM   14  C17 UNL     1      41.030  37.879  29.771  1.00  0.00     0.152 C 
HETATM   15  C18 UNL     1      40.327  36.684  29.203  1.00  0.00     0.032 A 
HETATM   16  C19 UNL     1      39.172  37.268  28.450  1.00  0.00     0.033 A 
HETATM   17  C20 UNL     1      38.986  36.224  29.457  1.00  0.00    -0.035 A 
HETATM   18  C21 UNL     1      38.399  36.596  30.811  1.00  0.00     0.016 C 
HETATM   19  C22 UNL     1      38.619  34.814  29.063  1.00  0.00     0.016 C 
ENDROOT
BRANCH  10  20
HETATM   20  C12 UNL     1      39.267  41.310  26.257  1.00  0.00     0.058 C 
HETATM   21  C13 UNL     1      39.408  42.805  26.441  1.00  0.00     0.046 C 
HETATM   22  C14 UNL     1      38.427  40.891  27.464  1.00  0.00     0.046 C 
BRANCH  20  23
HETATM   23  O3  UNL     1      38.325  41.155  25.238  1.00  0.00    -0.390 OA
ATOM     24  H3  UNL     1      38.673  40.854  24.406  1.00  0.00     0.210 HD
ENDBRANCH  20  23
ENDBRANCH  10  20
BRANCH   1  25
HETATM   25  O1  UNL     1      39.652  35.870  26.555  1.00  0.00    -0.387 OA
HETATM   26  C1  UNL     1      38.911  35.595  25.392  1.00  0.00     0.202 C 
ENDBRANCH   1  25
BRANCH  13  27
HETATM   27  O4  UNL     1      43.249  38.525  29.663  1.00  0.00    -0.392 OA
ATOM     28  H4  UNL     1      43.254  37.888  30.369  1.00  0.00     0.210 HD
ENDBRANCH  13  27
BRANCH   7  29
HETATM   29  O2  UNL     1      44.333  41.588  28.320  1.00  0.00    -0.390 OA
ATOM     30  H2  UNL     1      44.749  41.090  29.014  1.00  0.00     0.210 HD
ENDBRANCH   7  29
BRANCH  14  31
HETATM   31  O5  UNL     1      41.469  37.500  31.039  1.00  0.00    -0.393 OA
ATOM     32  H5  UNL     1      41.690  38.229  31.607  1.00  0.00     0.210 HD
ENDBRANCH  14  31
TORSDOF 6
ENDMDL
MODEL 4
REMARK VINA RESULT: -5.975550330      1.459      1.663
REMARK  6 active torsions:
REMARK  status: ('A' for Active; 'I' for Inactive)
REMARK    1  A    between atoms: O1_2  and  C2_3 
REMARK    2  A    between atoms: C7_9  and  O2_10 
REMARK    3  A    between atoms: C10_14  and  C12_16 
REMARK    4  A    between atoms: C12_16  and  O3_19 
REMARK    5  A    between atoms: C16_22  and  O4_23 
REMARK    6  A    between atoms: C17_25  and  O5_26 
ROOT
HETATM    1  C2  UNL     1      40.620  37.234  30.078  1.00  0.00     0.160 C 
HETATM    2  C3  UNL     1      41.426  38.329  29.422  1.00  0.00     0.205 C 
HETATM    3  F1  UNL     1      40.688  39.507  29.258  1.00  0.00    -0.246 F 
HETATM    4  C4  UNL     1      42.263  37.963  28.248  1.00  0.00     0.044 C 
HETATM    5  C5  UNL     1      41.628  38.338  26.960  1.00  0.00     0.001 C 
HETATM    6  C6  UNL     1      42.236  37.818  25.707  1.00  0.00     0.050 C 
HETATM    7  C7  UNL     1      42.887  39.170  25.495  1.00  0.00     0.059 C 
HETATM    8  C8  UNL     1      44.289  38.936  26.017  1.00  0.00     0.038 C 
HETATM    9  C9  UNL     1      44.396  39.114  27.447  1.00  0.00     0.016 C 
HETATM   10  C10 UNL     1      43.735  38.209  28.423  1.00  0.00    -0.006 C 
HETATM   11  C11 UNL     1      43.990  39.075  29.688  1.00  0.00     0.019 C 
HETATM   12  C15 UNL     1      41.937  39.743  26.480  1.00  0.00     0.050 C 
HETATM   13  C16 UNL     1      40.157  38.112  26.822  1.00  0.00     0.156 C 
HETATM   14  C17 UNL     1      39.642  36.733  27.020  1.00  0.00     0.152 C 
HETATM   15  C18 UNL     1      39.016  36.684  28.380  1.00  0.00     0.032 A 
HETATM   16  C19 UNL     1      40.104  36.151  29.259  1.00  0.00     0.033 A 
HETATM   17  C20 UNL     1      38.777  35.538  29.219  1.00  0.00    -0.035 A 
HETATM   18  C21 UNL     1      38.595  34.210  28.498  1.00  0.00     0.016 C 
HETATM   19  C22 UNL     1      37.816  35.676  30.375  1.00  0.00     0.016 C 
ENDROOT
BRANCH  10  20
HETATM   20  C12 UNL     1      44.586  37.003  28.668  1.00  0.00     0.058 C 
HETATM   21  C13 UNL     1      44.380  36.284  29.983  1.00  0.00     0.046 C 
HETATM   22  C14 UNL     1      46.090  37.276  28.656  1.00  0.00     0.046 C 
BRANCH  20  23
HETATM   23  O3  UNL     1      44.509  36.009  27.692  1.00  0.00    -0.390 OA
ATOM     24  H3  UNL     1      45.265  35.437  27.635  1.00  0.00     0.210 HD
ENDBRANCH  20  23
ENDBRANCH  10  20
BRANCH   1  25
HETATM   25  O1  UNL     1      39.671  37.859  30.893  1.00  0.00    -0.387 OA
HETATM   26  C1  UNL     1      40.161  38.113  32.187  1.00  0.00     0.202 C 
ENDBRANCH   1  25
BRANCH  13  27
HETATM   27  O4  UNL     1      39.794  38.456  25.482  1.00  0.00    -0.392 OA
ATOM     28  H4  UNL     1      40.210  37.826  24.904  1.00  0.00     0.210 HD
ENDBRANCH  13  27
BRANCH   7  29
HETATM   29  O2  UNL     1      42.835  39.706  24.237  1.00  0.00    -0.390 OA
ATOM     30  H2  UNL     1      43.408  40.439  24.049  1.00  0.00     0.210 HD
ENDBRANCH   7  29
BRANCH  14  31
HETATM   31  O5  UNL     1      38.641  36.364  26.122  1.00  0.00    -0.393 OA
ATOM     32  H5  UNL     1      38.060  37.075  25.873  1.00  0.00     0.210 HD
ENDBRANCH  14  31
TORSDOF 6
ENDMDL
MODEL 5
REMARK VINA RESULT: -5.947779547      2.848      5.437
REMARK  6 active torsions:
REMARK  status: ('A' for Active; 'I' for Inactive)
REMARK    1  A    between atoms: O1_2  and  C2_3 
REMARK    2  A    between atoms: C7_9  and  O2_10 
REMARK    3  A    between atoms: C10_14  and  C12_16 
REMARK    4  A    between atoms: C12_16  and  O3_19 
REMARK    5  A    between atoms: C16_22  and  O4_23 
REMARK    6  A    between atoms: C17_25  and  O5_26 
ROOT
HETATM    1  C2  UNL     1      40.924  41.393  29.360  1.00  0.00     0.160 C 
HETATM    2  C3  UNL     1      41.462  39.997  29.156  1.00  0.00     0.205 C 
HETATM    3  F1  UNL     1      42.527  39.965  28.249  1.00  0.00    -0.246 F 
HETATM    4  C4  UNL     1      40.478  38.895  28.984  1.00  0.00     0.044 C 
HETATM    5  C5  UNL     1      40.309  38.504  27.562  1.00  0.00     0.001 C 
HETATM    6  C6  UNL     1      39.187  37.589  27.221  1.00  0.00     0.050 C 
HETATM    7  C7  UNL     1      40.179  36.443  27.160  1.00  0.00     0.059 C 
HETATM    8  C8  UNL     1      40.006  35.798  28.519  1.00  0.00     0.038 C 
HETATM    9  C9  UNL     1      40.803  36.427  29.548  1.00  0.00     0.016 C 
HETATM   10  C10 UNL     1      40.556  37.812  30.023  1.00  0.00    -0.006 C 
HETATM   11  C11 UNL     1      41.859  37.960  30.858  1.00  0.00     0.019 C 
HETATM   12  C15 UNL     1      41.273  37.441  27.072  1.00  0.00     0.050 C 
HETATM   13  C16 UNL     1      40.265  39.597  26.544  1.00  0.00     0.156 C 
HETATM   14  C17 UNL     1      39.225  40.647  26.692  1.00  0.00     0.152 C 
HETATM   15  C18 UNL     1      39.899  41.866  27.242  1.00  0.00     0.032 A 
HETATM   16  C19 UNL     1      39.676  41.768  28.719  1.00  0.00     0.033 A 
HETATM   17  C20 UNL     1      39.316  42.967  27.965  1.00  0.00    -0.035 A 
HETATM   18  C21 UNL     1      37.849  43.252  27.677  1.00  0.00     0.016 C 
HETATM   19  C22 UNL     1      40.111  44.244  28.100  1.00  0.00     0.016 C 
ENDROOT
BRANCH  10  20
HETATM   20  C12 UNL     1      39.488  37.818  31.070  1.00  0.00     0.058 C 
HETATM   21  C13 UNL     1      38.517  36.658  31.054  1.00  0.00     0.046 C 
HETATM   22  C14 UNL     1      38.568  39.039  31.030  1.00  0.00     0.046 C 
BRANCH  20  23
HETATM   23  O3  UNL     1      39.943  37.896  32.387  1.00  0.00    -0.390 OA
ATOM     24  H3  UNL     1      39.552  37.274  32.989  1.00  0.00     0.210 HD
ENDBRANCH  20  23
ENDBRANCH  10  20
BRANCH   1  25
HETATM   25  O1  UNL     1      41.986  42.275  29.140  1.00  0.00    -0.387 OA
HETATM   26  C1  UNL     1      42.647  42.624  30.331  1.00  0.00     0.202 C 
ENDBRANCH   1  25
BRANCH  13  27
HETATM   27  O4  UNL     1      40.004  38.992  25.275  1.00  0.00    -0.392 OA
ATOM     28  H4  UNL     1      39.343  38.322  25.410  1.00  0.00     0.210 HD
ENDBRANCH  13  27
BRANCH   7  29
HETATM   29  O2  UNL     1      40.077  35.577  26.106  1.00  0.00    -0.390 OA
ATOM     30  H2  UNL     1      40.807  34.990  25.949  1.00  0.00     0.210 HD
ENDBRANCH   7  29
BRANCH  14  31
HETATM   31  O5  UNL     1      38.637  41.041  25.491  1.00  0.00    -0.393 OA
ATOM     32  H5  UNL     1      39.156  41.658  24.988  1.00  0.00     0.210 HD
ENDBRANCH  14  31
TORSDOF 6
ENDMDL
