MODEL 1
REMARK VINA RESULT: -5.787393614      0.000      0.000
REMARK  7 active torsions:
REMARK  status: ('A' for Active; 'I' for Inactive)
REMARK    1  A    between atoms: C2_2  and  C4_4 
REMARK    2  A    between atoms: C5_5  and  O1_7 
REMARK    3  A    between atoms: C10_13  and  O2_14 
REMARK    4  A    between atoms: C10_13  and  C11_16 
REMARK    5  A    between atoms: C11_16  and  C12_18 
REMARK    6  A    between atoms: C12_18  and  O4_19 
REMARK    7  A    between atoms: C13_21  and  O5_22 
ROOT
HETATM    1  C4  UNL     1      39.435  38.387  30.398  1.00  0.00     0.033 C 
HETATM    2  C5  UNL     1      39.275  39.896  30.518  1.00  0.00     0.072 C 
HETATM    3  C6  UNL     1      38.309  40.454  29.500  1.00  0.00     0.047 C 
HETATM    4  C7  UNL     1      40.528  40.689  30.461  1.00  0.00     0.092 C 
HETATM    5 BR1  UNL     1      40.040  42.563  30.287  1.00  0.00    -0.088 Br
HETATM    6  C8  UNL     1      41.268  40.317  29.244  1.00  0.00     0.028 C 
HETATM    7  C9  UNL     1      41.477  38.841  29.106  1.00  0.00     0.040 C 
HETATM    8  C10 UNL     1      41.622  38.565  27.671  1.00  0.00     0.150 C 
HETATM    9  C13 UNL     1      42.187  37.187  27.400  1.00  0.00     0.161 C 
HETATM   10  C14 UNL     1      42.282  36.469  28.693  1.00  0.00     0.040 C 
HETATM   11  C15 UNL     1      41.036  36.564  29.577  1.00  0.00    -0.007 C 
HETATM   12  C16 UNL     1      39.998  35.739  28.940  1.00  0.00     0.011 C 
HETATM   13  C17 UNL     1      40.775  37.936  30.058  1.00  0.00    -0.027 C 
HETATM   14  C18 UNL     1      41.567  38.036  31.394  1.00  0.00     0.016 C 
ENDROOT
BRANCH   8  15
HETATM   15  O2  UNL     1      42.709  39.438  27.286  1.00  0.00    -0.379 OA
ATOM     16  H2  UNL     1      42.841  39.219  26.371  1.00  0.00     0.211 HD
ENDBRANCH   8  15
BRANCH   8  17
HETATM   17  C11 UNL     1      40.569  38.950  26.720  1.00  0.00     0.187 C 
HETATM   18  O3  UNL     1      39.412  38.566  26.757  1.00  0.00    -0.292 OA
BRANCH  17  19
HETATM   19  C12 UNL     1      40.764  39.874  25.555  1.00  0.00     0.245 C 
BRANCH  19  20
HETATM   20  O4  UNL     1      39.787  39.778  24.590  1.00  0.00    -0.393 OA
ATOM     21  H4  UNL     1      40.001  40.217  23.775  1.00  0.00     0.209 HD
ENDBRANCH  19  20
ENDBRANCH  17  19
ENDBRANCH   8  17
BRANCH   9  22
HETATM   22  O5  UNL     1      41.527  36.531  26.385  1.00  0.00    -0.392 OA
ATOM     23  H5  UNL     1      42.119  36.147  25.750  1.00  0.00     0.210 HD
ENDBRANCH   9  22
BRANCH   1  24
HETATM   24  C2  UNL     1      38.667  37.838  31.541  1.00  0.00    -0.015 C 
HETATM   25  C1  UNL     1      37.989  36.500  31.270  1.00  0.00     0.010 C 
HETATM   26  C3  UNL     1      39.157  37.884  32.925  1.00  0.00     0.010 C 
ENDBRANCH   1  24
BRANCH   2  27
HETATM   27  O1  UNL     1      38.719  40.277  31.772  1.00  0.00    -0.389 OA
ATOM     28  H1  UNL     1      38.373  41.161  31.755  1.00  0.00     0.210 HD
ENDBRANCH   2  27
TORSDOF 7
ENDMDL
MODEL 2
REMARK VINA RESULT: -5.780606332      2.093      4.844
REMARK  7 active torsions:
REMARK  status: ('A' for Active; 'I' for Inactive)
REMARK    1  A    between atoms: C2_2  and  C4_4 
REMARK    2  A    between atoms: C5_5  and  O1_7 
REMARK    3  A    between atoms: C10_13  and  O2_14 
REMARK    4  A    between atoms: C10_13  and  C11_16 
REMARK    5  A    between atoms: C11_16  and  C12_18 
REMARK    6  A    between atoms: C12_18  and  O4_19 
REMARK    7  A    between atoms: C13_21  and  O5_22 
ROOT
HETATM    1  C4  UNL     1      41.272  38.710  28.520  1.00  0.00     0.033 C 
HETATM    2  C5  UNL     1      41.178  39.436  27.185  1.00  0.00     0.072 C 
HETATM    3  C6  UNL     1      41.910  40.757  27.197  1.00  0.00     0.047 C 
HETATM    4  C7  UNL     1      39.808  39.662  26.663  1.00  0.00     0.092 C 
HETATM    5 BR1  UNL     1      39.938  40.885  25.157  1.00  0.00    -0.088 Br
HETATM    6  C8  UNL     1      39.011  40.334  27.702  1.00  0.00     0.028 C 
HETATM    7  C9  UNL     1      39.048  39.631  29.024  1.00  0.00     0.040 C 
HETATM    8  C10 UNL     1      38.790  40.648  30.052  1.00  0.00     0.150 C 
HETATM    9  C13 UNL     1      38.448  40.039  31.395  1.00  0.00     0.161 C 
HETATM   10  C14 UNL     1      38.628  38.572  31.292  1.00  0.00     0.040 C 
HETATM   11  C15 UNL     1      39.931  38.126  30.623  1.00  0.00    -0.007 C 
HETATM   12  C16 UNL     1      41.017  38.418  31.570  1.00  0.00     0.011 C 
HETATM   13  C17 UNL     1      40.001  38.499  29.195  1.00  0.00    -0.027 C 
HETATM   14  C18 UNL     1      39.361  37.294  28.447  1.00  0.00     0.016 C 
ENDROOT
BRANCH   8  15
HETATM   15  O2  UNL     1      37.531  41.219  29.628  1.00  0.00    -0.379 OA
ATOM     16  H2  UNL     1      37.133  41.482  30.450  1.00  0.00     0.211 HD
ENDBRANCH   8  15
BRANCH   8  17
HETATM   17  C11 UNL     1      39.645  41.839  30.164  1.00  0.00     0.187 C 
HETATM   18  O3  UNL     1      40.851  41.826  30.346  1.00  0.00    -0.292 OA
BRANCH  17  19
HETATM   19  C12 UNL     1      39.157  43.254  30.074  1.00  0.00     0.245 C 
BRANCH  19  20
HETATM   20  O4  UNL     1      38.816  43.652  28.801  1.00  0.00    -0.393 OA
ATOM     21  H4  UNL     1      39.559  43.844  28.242  1.00  0.00     0.209 HD
ENDBRANCH  19  20
ENDBRANCH  17  19
ENDBRANCH   8  17
BRANCH   9  22
HETATM   22  O5  UNL     1      39.093  40.661  32.441  1.00  0.00    -0.392 OA
ATOM     23  H5  UNL     1      39.313  40.062  33.145  1.00  0.00     0.210 HD
ENDBRANCH   9  22
BRANCH   1  24
HETATM   24  C2  UNL     1      42.249  37.621  28.286  1.00  0.00    -0.015 C 
HETATM   25  C1  UNL     1      43.643  37.884  28.840  1.00  0.00     0.010 C 
HETATM   26  C3  UNL     1      41.906  36.200  28.435  1.00  0.00     0.010 C 
ENDBRANCH   1  24
BRANCH   2  27
HETATM   27  O1  UNL     1      41.799  38.703  26.134  1.00  0.00    -0.389 OA
ATOM     28  H1  UNL     1      42.713  38.936  26.029  1.00  0.00     0.210 HD
ENDBRANCH   2  27
TORSDOF 7
ENDMDL
MODEL 3
REMARK VINA RESULT: -5.754648776      7.561      9.590
REMARK  7 active torsions:
REMARK  status: ('A' for Active; 'I' for Inactive)
REMARK    1  A    between atoms: C2_2  and  C4_4 
REMARK    2  A    between atoms: C5_5  and  O1_7 
REMARK    3  A    between atoms: C10_13  and  O2_14 
REMARK    4  A    between atoms: C10_13  and  C11_16 
REMARK    5  A    between atoms: C11_16  and  C12_18 
REMARK    6  A    between atoms: C12_18  and  O4_19 
REMARK    7  A    between atoms: C13_21  and  O5_22 
ROOT
HETATM    1  C4  UNL     1      45.794  35.559  32.317  1.00  0.00     0.033 C 
HETATM    2  C5  UNL     1      45.068  36.448  33.318  1.00  0.00     0.072 C 
HETATM    3  C6  UNL     1      45.997  37.426  33.997  1.00  0.00     0.047 C 
HETATM    4  C7  UNL     1      44.281  35.744  34.360  1.00  0.00     0.092 C 
HETATM    5 BR1  UNL     1      43.748  37.056  35.692  1.00  0.00    -0.088 Br
HETATM    6  C8  UNL     1      45.155  34.769  35.034  1.00  0.00     0.028 C 
HETATM    7  C9  UNL     1      45.862  33.852  34.085  1.00  0.00     0.040 C 
HETATM    8  C10 UNL     1      47.091  33.410  34.758  1.00  0.00     0.150 C 
HETATM    9  C13 UNL     1      47.727  32.217  34.078  1.00  0.00     0.161 C 
HETATM   10  C14 UNL     1      46.976  31.949  32.828  1.00  0.00     0.040 C 
HETATM   11  C15 UNL     1      46.688  33.184  31.970  1.00  0.00    -0.007 C 
HETATM   12  C16 UNL     1      47.968  33.598  31.378  1.00  0.00     0.011 C 
HETATM   13  C17 UNL     1      45.771  34.138  32.627  1.00  0.00    -0.027 C 
HETATM   14  C18 UNL     1      44.351  33.672  32.194  1.00  0.00     0.016 C 
ENDROOT
BRANCH   8  15
HETATM   15  O2  UNL     1      46.594  32.848  35.994  1.00  0.00    -0.379 OA
ATOM     16  H2  UNL     1      47.389  32.698  36.491  1.00  0.00     0.211 HD
ENDBRANCH   8  15
BRANCH   8  17
HETATM   17  C11 UNL     1      48.077  34.388  35.241  1.00  0.00     0.187 C 
HETATM   18  O3  UNL     1      48.835  35.032  34.535  1.00  0.00    -0.292 OA
BRANCH  17  19
HETATM   19  C12 UNL     1      48.301  34.737  36.682  1.00  0.00     0.245 C 
BRANCH  19  20
HETATM   20  O4  UNL     1      48.872  33.728  37.424  1.00  0.00    -0.393 OA
ATOM     21  H4  UNL     1      48.251  33.222  37.935  1.00  0.00     0.209 HD
ENDBRANCH  19  20
ENDBRANCH  17  19
ENDBRANCH   8  17
BRANCH   9  22
HETATM   22  O5  UNL     1      49.093  32.340  33.955  1.00  0.00    -0.392 OA
ATOM     23  H5  UNL     1      49.519  31.515  33.759  1.00  0.00     0.210 HD
ENDBRANCH   9  22
BRANCH   1  24
HETATM   24  C2  UNL     1      45.412  36.100  30.991  1.00  0.00    -0.015 C 
HETATM   25  C1  UNL     1      46.505  36.895  30.287  1.00  0.00     0.010 C 
HETATM   26  C3  UNL     1      44.639  35.327  30.009  1.00  0.00     0.010 C 
ENDBRANCH   1  24
BRANCH   2  27
HETATM   27  O1  UNL     1      44.092  37.272  32.690  1.00  0.00    -0.389 OA
ATOM     28  H1  UNL     1      43.432  37.573  33.303  1.00  0.00     0.210 HD
ENDBRANCH   2  27
TORSDOF 7
ENDMDL
MODEL 4
REMARK VINA RESULT: -5.713486732      1.894      4.134
REMARK  7 active torsions:
REMARK  status: ('A' for Active; 'I' for Inactive)
REMARK    1  A    between atoms: C2_2  and  C4_4 
REMARK    2  A    between atoms: C5_5  and  O1_7 
REMARK    3  A    between atoms: C10_13  and  O2_14 
REMARK    4  A    between atoms: C10_13  and  C11_16 
REMARK    5  A    between atoms: C11_16  and  C12_18 
REMARK    6  A    between atoms: C12_18  and  O4_19 
REMARK    7  A    between atoms: C13_21  and  O5_22 
ROOT
HETATM    1  C4  UNL     1      40.129  40.891  30.483  1.00  0.00     0.033 C 
HETATM    2  C5  UNL     1      39.740  39.879  31.552  1.00  0.00     0.072 C 
HETATM    3  C6  UNL     1      40.912  39.040  32.002  1.00  0.00     0.047 C 
HETATM    4  C7  UNL     1      38.616  38.974  31.211  1.00  0.00     0.092 C 
HETATM    5 BR1  UNL     1      38.542  37.579  32.564  1.00  0.00    -0.088 Br
HETATM    6  C8  UNL     1      38.910  38.318  29.925  1.00  0.00     0.028 C 
HETATM    7  C9  UNL     1      39.263  39.283  28.836  1.00  0.00     0.040 C 
HETATM    8  C10 UNL     1      40.102  38.551  27.878  1.00  0.00     0.150 C 
HETATM    9  C13 UNL     1      40.244  39.280  26.558  1.00  0.00     0.161 C 
HETATM   10  C14 UNL     1      39.599  40.606  26.696  1.00  0.00     0.040 C 
HETATM   11  C15 UNL     1      39.962  41.372  27.972  1.00  0.00    -0.007 C 
HETATM   12  C16 UNL     1      41.356  41.816  27.819  1.00  0.00     0.011 C 
HETATM   13  C17 UNL     1      39.469  40.712  29.199  1.00  0.00    -0.027 C 
HETATM   14  C18 UNL     1      38.045  41.302  29.411  1.00  0.00     0.016 C 
ENDROOT
BRANCH   8  15
HETATM   15  O2  UNL     1      39.276  37.416  27.530  1.00  0.00    -0.379 OA
ATOM     16  H2  UNL     1      39.712  36.696  27.971  1.00  0.00     0.211 HD
ENDBRANCH   8  15
BRANCH   8  17
HETATM   17  C11 UNL     1      41.348  37.902  28.311  1.00  0.00     0.187 C 
HETATM   18  O3  UNL     1      42.249  38.446  28.927  1.00  0.00    -0.292 OA
BRANCH  17  19
HETATM   19  C12 UNL     1      41.699  36.466  28.055  1.00  0.00     0.245 C 
BRANCH  19  20
HETATM   20  O4  UNL     1      41.825  36.146  26.722  1.00  0.00    -0.393 OA
ATOM     21  H4  UNL     1      41.149  35.563  26.397  1.00  0.00     0.209 HD
ENDBRANCH  19  20
ENDBRANCH  17  19
ENDBRANCH   8  17
BRANCH   9  22
HETATM   22  O5  UNL     1      41.537  39.276  26.085  1.00  0.00    -0.392 OA
ATOM     23  H5  UNL     1      41.630  39.749  25.267  1.00  0.00     0.210 HD
ENDBRANCH   9  22
BRANCH   1  24
HETATM   24  C2  UNL     1      40.167  42.191  31.193  1.00  0.00    -0.015 C 
HETATM   25  C1  UNL     1      41.564  42.682  31.551  1.00  0.00     0.010 C 
HETATM   26  C3  UNL     1      39.313  43.326  30.821  1.00  0.00     0.010 C 
ENDBRANCH   1  24
BRANCH   2  27
HETATM   27  O1  UNL     1      39.285  40.511  32.744  1.00  0.00    -0.389 OA
ATOM     28  H1  UNL     1      38.999  39.880  33.394  1.00  0.00     0.210 HD
ENDBRANCH   2  27
TORSDOF 7
ENDMDL
MODEL 5
REMARK VINA RESULT: -5.576411400      2.098      2.795
REMARK  7 active torsions:
REMARK  status: ('A' for Active; 'I' for Inactive)
REMARK    1  A    between atoms: C2_2  and  C4_4 
REMARK    2  A    between atoms: C5_5  and  O1_7 
REMARK    3  A    between atoms: C10_13  and  O2_14 
REMARK    4  A    between atoms: C10_13  and  C11_16 
REMARK    5  A    between atoms: C11_16  and  C12_18 
REMARK    6  A    between atoms: C12_18  and  O4_19 
REMARK    7  A    between atoms: C13_21  and  O5_22 
ROOT
HETATM    1  C4  UNL     1      41.348  39.088  29.953  1.00  0.00     0.033 C 
HETATM    2  C5  UNL     1      42.439  40.000  29.410  1.00  0.00     0.072 C 
HETATM    3  C6  UNL     1      41.889  41.076  28.504  1.00  0.00     0.047 C 
HETATM    4  C7  UNL     1      43.562  39.327  28.714  1.00  0.00     0.092 C 
HETATM    5 BR1  UNL     1      44.621  40.696  27.828  1.00  0.00    -0.088 Br
HETATM    6  C8  UNL     1      43.011  38.454  27.663  1.00  0.00     0.028 C 
HETATM    7  C9  UNL     1      41.958  37.516  28.164  1.00  0.00     0.040 C 
HETATM    8  C10 UNL     1      41.096  37.195  27.019  1.00  0.00     0.150 C 
HETATM    9  C13 UNL     1      40.209  35.996  27.279  1.00  0.00     0.161 C 
HETATM   10  C14 UNL     1      40.383  35.598  28.696  1.00  0.00     0.040 C 
HETATM   11  C15 UNL     1      40.330  36.751  29.702  1.00  0.00    -0.007 C 
HETATM   12  C16 UNL     1      38.930  37.197  29.765  1.00  0.00     0.011 C 
HETATM   13  C17 UNL     1      41.458  37.694  29.555  1.00  0.00    -0.027 C 
HETATM   14  C18 UNL     1      42.570  37.116  30.479  1.00  0.00     0.016 C 
ENDROOT
BRANCH   8  15
HETATM   15  O2  UNL     1      42.037  36.693  26.042  1.00  0.00    -0.379 OA
ATOM     16  H2  UNL     1      41.820  37.194  25.264  1.00  0.00     0.211 HD
ENDBRANCH   8  15
BRANCH   8  17
HETATM   17  C11 UNL     1      40.415  38.260  26.268  1.00  0.00     0.187 C 
HETATM   18  O3  UNL     1      39.692  39.113  26.755  1.00  0.00    -0.292 OA
BRANCH  17  19
HETATM   19  C12 UNL     1      40.505  38.453  24.784  1.00  0.00     0.245 C 
BRANCH  19  20
HETATM   20  O4  UNL     1      39.890  37.466  24.048  1.00  0.00    -0.393 OA
ATOM     21  H4  UNL     1      39.485  37.775  23.246  1.00  0.00     0.209 HD
ENDBRANCH  19  20
ENDBRANCH  17  19
ENDBRANCH   8  17
BRANCH   9  22
HETATM   22  O5  UNL     1      38.914  36.190  26.853  1.00  0.00    -0.392 OA
ATOM     23  H5  UNL     1      38.274  35.996  27.527  1.00  0.00     0.210 HD
ENDBRANCH   9  22
BRANCH   1  24
HETATM   24  C2  UNL     1      41.173  39.511  31.363  1.00  0.00    -0.015 C 
HETATM   25  C1  UNL     1      39.925  40.343  31.630  1.00  0.00     0.010 C 
HETATM   26  C3  UNL     1      41.438  38.619  32.500  1.00  0.00     0.010 C 
ENDBRANCH   1  24
BRANCH   2  27
HETATM   27  O1  UNL     1      43.097  40.720  30.447  1.00  0.00    -0.389 OA
ATOM     28  H1  UNL     1      43.531  41.499  30.119  1.00  0.00     0.210 HD
ENDBRANCH   2  27
TORSDOF 7
ENDMDL
