MODEL 1
REMARK VINA RESULT: -6.563016234      0.000      0.000
REMARK  2 active torsions:
REMARK  status: ('A' for Active; 'I' for Inactive)
REMARK    1  A    between atoms: S1_2  and  O4_5 
REMARK    2  A    between atoms: O4_5  and  C1_6 
ROOT
HETATM    1  C1  UNL     1      -2.599  -9.629  21.641  1.00  0.00     0.285 C 
HETATM    2  O5  UNL     1      -3.238 -10.252  22.714  1.00  0.00    -0.359 OA
HETATM    3  C2  UNL     1      -2.203 -10.393  23.629  1.00  0.00     0.176 C 
HETATM    4  C3  UNL     1      -1.137 -11.080  22.763  1.00  0.00     0.018 C 
HETATM    5  C4  UNL     1      -1.204 -12.536  22.973  1.00  0.00     0.007 C 
HETATM    6  C5  UNL     1      -0.749 -13.281  21.732  1.00  0.00     0.000 C 
HETATM    7  C6  UNL     1      -1.775 -12.927  20.676  1.00  0.00     0.001 C 
HETATM    8  C7  UNL     1      -1.575 -11.493  20.304  1.00  0.00     0.010 C 
HETATM    9  C8  UNL     1      -1.391 -10.555  21.426  1.00  0.00     0.048 C 
ENDROOT
BRANCH   1  10
HETATM   10  O4  UNL     1      -3.337  -9.626  20.486  1.00  0.00    -0.224 OA
BRANCH  10  11
HETATM   11  S1  UNL     1      -3.184  -8.214  19.601  1.00  0.00     0.254 S 
HETATM   12  O1  UNL     1      -4.431  -7.874  18.851  1.00  0.00    -0.572 OA
HETATM   13  O2  UNL     1      -2.908  -7.104  20.575  1.00  0.00    -0.572 OA
HETATM   14  O3  UNL     1      -1.859  -8.373  18.599  1.00  0.00    -0.572 OA
ENDBRANCH  10  11
ENDBRANCH   1  10
TORSDOF 2
ENDMDL
MODEL 2
REMARK VINA RESULT: -6.524494118      1.395      1.842
REMARK  2 active torsions:
REMARK  status: ('A' for Active; 'I' for Inactive)
REMARK    1  A    between atoms: S1_2  and  O4_5 
REMARK    2  A    between atoms: O4_5  and  C1_6 
ROOT
HETATM    1  C1  UNL     1      -2.466  -9.967  20.106  1.00  0.00     0.285 C 
HETATM    2  O5  UNL     1      -3.341 -10.071  21.188  1.00  0.00    -0.359 OA
HETATM    3  C2  UNL     1      -2.525  -9.724  22.257  1.00  0.00     0.176 C 
HETATM    4  C3  UNL     1      -1.335 -10.668  22.037  1.00  0.00     0.018 C 
HETATM    5  C4  UNL     1      -1.509 -11.872  22.867  1.00  0.00     0.007 C 
HETATM    6  C5  UNL     1      -0.840 -13.071  22.223  1.00  0.00     0.000 C 
HETATM    7  C6  UNL     1      -1.607 -13.292  20.937  1.00  0.00     0.001 C 
HETATM    8  C7  UNL     1      -1.271 -12.174  20.003  1.00  0.00     0.010 C 
HETATM    9  C8  UNL     1      -1.282 -10.821  20.587  1.00  0.00     0.048 C 
ENDROOT
BRANCH   1  10
HETATM   10  O4  UNL     1      -2.947 -10.529  18.952  1.00  0.00    -0.224 OA
BRANCH  10  11
HETATM   11  S1  UNL     1      -3.447  -9.402  17.819  1.00  0.00     0.254 S 
HETATM   12  O1  UNL     1      -4.176  -8.256  18.441  1.00  0.00    -0.572 OA
HETATM   13  O2  UNL     1      -2.213  -8.863  17.153  1.00  0.00    -0.572 OA
HETATM   14  O3  UNL     1      -4.360 -10.194  16.669  1.00  0.00    -0.572 OA
ENDBRANCH  10  11
ENDBRANCH   1  10
TORSDOF 2
ENDMDL
MODEL 3
REMARK VINA RESULT: -6.516140520      1.366      2.025
REMARK  2 active torsions:
REMARK  status: ('A' for Active; 'I' for Inactive)
REMARK    1  A    between atoms: S1_2  and  O4_5 
REMARK    2  A    between atoms: O4_5  and  C1_6 
ROOT
HETATM    1  C1  UNL     1      -2.495 -10.001  20.156  1.00  0.00     0.285 C 
HETATM    2  O5  UNL     1      -3.352 -10.114  21.252  1.00  0.00    -0.359 OA
HETATM    3  C2  UNL     1      -2.521  -9.769  22.310  1.00  0.00     0.176 C 
HETATM    4  C3  UNL     1      -1.330 -10.707  22.066  1.00  0.00     0.018 C 
HETATM    5  C4  UNL     1      -1.486 -11.916  22.892  1.00  0.00     0.007 C 
HETATM    6  C5  UNL     1      -0.822 -13.109  22.231  1.00  0.00     0.000 C 
HETATM    7  C6  UNL     1      -1.609 -13.326  20.956  1.00  0.00     0.001 C 
HETATM    8  C7  UNL     1      -1.292 -12.202  20.023  1.00  0.00     0.010 C 
HETATM    9  C8  UNL     1      -1.300 -10.852  20.615  1.00  0.00     0.048 C 
ENDROOT
BRANCH   1  10
HETATM   10  O4  UNL     1      -2.991 -10.558  19.007  1.00  0.00    -0.224 OA
BRANCH  10  11
HETATM   11  S1  UNL     1      -3.374  -9.431  17.831  1.00  0.00     0.254 S 
HETATM   12  O1  UNL     1      -2.171  -8.961  17.080  1.00  0.00    -0.572 OA
HETATM   13  O2  UNL     1      -4.300 -10.101  16.855  1.00  0.00    -0.572 OA
HETATM   14  O3  UNL     1      -4.201  -8.180  18.562  1.00  0.00    -0.572 OA
ENDBRANCH  10  11
ENDBRANCH   1  10
TORSDOF 2
ENDMDL
MODEL 4
REMARK VINA RESULT: -6.424088196      1.812      3.161
REMARK  2 active torsions:
REMARK  status: ('A' for Active; 'I' for Inactive)
REMARK    1  A    between atoms: S1_2  and  O4_5 
REMARK    2  A    between atoms: O4_5  and  C1_6 
ROOT
HETATM    1  C1  UNL     1      -2.185  -9.381  18.760  1.00  0.00     0.285 C 
HETATM    2  O5  UNL     1      -0.831  -9.715  18.805  1.00  0.00    -0.359 OA
HETATM    3  C2  UNL     1      -0.870 -11.102  18.747  1.00  0.00     0.176 C 
HETATM    4  C3  UNL     1      -1.858 -11.415  19.880  1.00  0.00     0.018 C 
HETATM    5  C4  UNL     1      -1.107 -11.725  21.108  1.00  0.00     0.007 C 
HETATM    6  C5  UNL     1      -1.910 -11.351  22.339  1.00  0.00     0.000 C 
HETATM    7  C6  UNL     1      -2.052  -9.845  22.260  1.00  0.00     0.001 C 
HETATM    8  C7  UNL     1      -2.986  -9.530  21.137  1.00  0.00     0.010 C 
HETATM    9  C8  UNL     1      -2.755 -10.266  19.880  1.00  0.00     0.048 C 
ENDROOT
BRANCH   1  10
HETATM   10  O4  UNL     1      -2.442  -8.074  19.085  1.00  0.00    -0.224 OA
BRANCH  10  11
HETATM   11  S1  UNL     1      -3.466  -7.308  18.005  1.00  0.00     0.254 S 
HETATM   12  O1  UNL     1      -2.723  -6.491  16.999  1.00  0.00    -0.572 OA
HETATM   13  O2  UNL     1      -4.221  -8.378  17.270  1.00  0.00    -0.572 OA
HETATM   14  O3  UNL     1      -4.560  -6.403  18.882  1.00  0.00    -0.572 OA
ENDBRANCH  10  11
ENDBRANCH   1  10
TORSDOF 2
ENDMDL
MODEL 5
REMARK VINA RESULT: -6.364512314      1.382      2.615
REMARK  2 active torsions:
REMARK  status: ('A' for Active; 'I' for Inactive)
REMARK    1  A    between atoms: S1_2  and  O4_5 
REMARK    2  A    between atoms: O4_5  and  C1_6 
ROOT
HETATM    1  C1  UNL     1      -2.082  -9.731  19.507  1.00  0.00     0.285 C 
HETATM    2  O5  UNL     1      -0.784 -10.204  19.307  1.00  0.00    -0.359 OA
HETATM    3  C2  UNL     1      -0.992 -11.569  19.152  1.00  0.00     0.176 C 
HETATM    4  C3  UNL     1      -1.825 -11.883  20.403  1.00  0.00     0.018 C 
HETATM    5  C4  UNL     1      -0.937 -12.379  21.467  1.00  0.00     0.007 C 
HETATM    6  C5  UNL     1      -1.494 -12.040  22.836  1.00  0.00     0.000 C 
HETATM    7  C6  UNL     1      -1.472 -10.528  22.895  1.00  0.00     0.001 C 
HETATM    8  C7  UNL     1      -2.523 -10.016  21.963  1.00  0.00     0.010 C 
HETATM    9  C8  UNL     1      -2.573 -10.652  20.635  1.00  0.00     0.048 C 
ENDROOT
BRANCH   1  10
HETATM   10  O4  UNL     1      -2.133  -8.441  19.966  1.00  0.00    -0.224 OA
BRANCH  10  11
HETATM   11  S1  UNL     1      -3.192  -7.469  19.107  1.00  0.00     0.254 S 
HETATM   12  O1  UNL     1      -3.937  -6.521  19.989  1.00  0.00    -0.572 OA
HETATM   13  O2  UNL     1      -2.372  -6.661  18.141  1.00  0.00    -0.572 OA
HETATM   14  O3  UNL     1      -4.208  -8.460  18.230  1.00  0.00    -0.572 OA
ENDBRANCH  10  11
ENDBRANCH   1  10
TORSDOF 2
ENDMDL
