MODEL 1
REMARK VINA RESULT: -6.425696256      0.000      0.000
REMARK  3 active torsions:
REMARK  status: ('A' for Active; 'I' for Inactive)
REMARK    1  A    between atoms: C2_2  and  C3_3 
REMARK    2  A    between atoms: C7_8  and  O2_9 
REMARK    3  A    between atoms: C9_14  and  O5_15 
ROOT
HETATM    1  C3  UNL     1      -1.931 -10.888  21.245  1.00  0.00     0.176 C 
HETATM    2  O1  UNL     1      -0.938 -10.356  20.405  1.00  0.00    -0.376 OA
HETATM    3  C4  UNL     1      -1.585  -9.568  19.472  1.00  0.00     0.237 C 
HETATM    4  C5  UNL     1      -2.598  -8.688  20.147  1.00  0.00     0.191 C 
HETATM    5  C6  UNL     1      -2.428  -7.284  19.577  1.00  0.00     0.104 C 
HETATM    6  C7  UNL     1      -3.865  -6.943  19.226  1.00  0.00     0.147 C 
HETATM    7  C8  UNL     1      -4.318  -8.334  18.762  1.00  0.00     0.203 C 
HETATM    8  O3  UNL     1      -3.851  -9.117  19.807  1.00  0.00    -0.350 OA
HETATM    9  O4  UNL     1      -2.401  -8.574  21.517  1.00  0.00    -0.320 OA
HETATM   10  C9  UNL     1      -2.356  -9.787  22.172  1.00  0.00     0.291 C 
ENDROOT
BRANCH   6  11
HETATM   11  O2  UNL     1      -3.939  -6.013  18.221  1.00  0.00    -0.393 OA
ATOM     12  H2  UNL     1      -3.931  -6.419  17.361  1.00  0.00     0.210 HD
ENDBRANCH   6  11
BRANCH  10  13
HETATM   13  O5  UNL     1      -1.382  -9.676  23.174  1.00  0.00    -0.363 OA
HETATM   14  C10 UNL     1      -0.663  -8.484  23.048  1.00  0.00     0.204 C 
ENDBRANCH  10  13
BRANCH   1  15
HETATM   15  C2  UNL     1      -1.361 -12.088  21.993  1.00  0.00     0.032 C 
HETATM   16  C1  UNL     1      -0.958 -13.101  20.927  1.00  0.00     0.007 C 
ENDBRANCH   1  15
TORSDOF 3
ENDMDL
MODEL 2
REMARK VINA RESULT: -6.067230801      2.038      3.020
REMARK  3 active torsions:
REMARK  status: ('A' for Active; 'I' for Inactive)
REMARK    1  A    between atoms: C2_2  and  C3_3 
REMARK    2  A    between atoms: C7_8  and  O2_9 
REMARK    3  A    between atoms: C9_14  and  O5_15 
ROOT
HETATM    1  C3  UNL     1      -1.844 -10.550  19.877  1.00  0.00     0.176 C 
HETATM    2  O1  UNL     1      -3.037 -10.918  19.231  1.00  0.00    -0.376 OA
HETATM    3  C4  UNL     1      -3.790  -9.767  19.099  1.00  0.00     0.237 C 
HETATM    4  C5  UNL     1      -2.935  -8.641  18.590  1.00  0.00     0.191 C 
HETATM    5  C6  UNL     1      -3.713  -7.951  17.475  1.00  0.00     0.104 C 
HETATM    6  C7  UNL     1      -3.594  -6.499  17.901  1.00  0.00     0.147 C 
HETATM    7  C8  UNL     1      -3.682  -6.703  19.420  1.00  0.00     0.203 C 
HETATM    8  O3  UNL     1      -2.764  -7.729  19.593  1.00  0.00    -0.350 OA
HETATM    9  O4  UNL     1      -1.745  -9.071  18.019  1.00  0.00    -0.320 OA
HETATM   10  C9  UNL     1      -0.986  -9.866  18.854  1.00  0.00     0.291 C 
ENDROOT
BRANCH   6  11
HETATM   11  O2  UNL     1      -4.630  -5.739  17.421  1.00  0.00    -0.393 OA
ATOM     12  H2  UNL     1      -4.403  -4.817  17.378  1.00  0.00     0.210 HD
ENDBRANCH   6  11
BRANCH  10  13
HETATM   13  O5  UNL     1      -0.403 -10.860  18.055  1.00  0.00    -0.363 OA
HETATM   14  C10 UNL     1      -0.634 -10.616  16.698  1.00  0.00     0.204 C 
ENDBRANCH  10  13
BRANCH   1  15
HETATM   15  C2  UNL     1      -1.181 -11.799  20.448  1.00  0.00     0.032 C 
HETATM   16  C1  UNL     1      -1.491 -11.800  21.941  1.00  0.00     0.007 C 
ENDBRANCH   1  15
TORSDOF 3
ENDMDL
MODEL 3
REMARK VINA RESULT: -6.055211761      2.682      3.661
REMARK  3 active torsions:
REMARK  status: ('A' for Active; 'I' for Inactive)
REMARK    1  A    between atoms: C2_2  and  C3_3 
REMARK    2  A    between atoms: C7_8  and  O2_9 
REMARK    3  A    between atoms: C9_14  and  O5_15 
ROOT
HETATM    1  C3  UNL     1      -2.549 -10.005  19.069  1.00  0.00     0.176 C 
HETATM    2  O1  UNL     1      -1.665  -9.355  18.190  1.00  0.00    -0.376 OA
HETATM    3  C4  UNL     1      -2.191  -9.496  16.921  1.00  0.00     0.237 C 
HETATM    4  C5  UNL     1      -3.661  -9.187  16.928  1.00  0.00     0.191 C 
HETATM    5  C6  UNL     1      -3.938  -8.274  15.738  1.00  0.00     0.104 C 
HETATM    6  C7  UNL     1      -5.123  -8.981  15.106  1.00  0.00     0.147 C 
HETATM    7  C8  UNL     1      -4.692 -10.429  15.380  1.00  0.00     0.203 C 
HETATM    8  O3  UNL     1      -4.356 -10.346  16.723  1.00  0.00    -0.350 OA
HETATM    9  O4  UNL     1      -4.069  -8.485  18.054  1.00  0.00    -0.320 OA
HETATM   10  C9  UNL     1      -3.736  -9.103  19.242  1.00  0.00     0.291 C 
ENDROOT
BRANCH   6  11
HETATM   11  O2  UNL     1      -5.220  -8.716  13.764  1.00  0.00    -0.393 OA
ATOM     12  H2  UNL     1      -5.298  -7.784  13.592  1.00  0.00     0.210 HD
ENDBRANCH   6  11
BRANCH  10  13
HETATM   13  O5  UNL     1      -3.373  -8.092  20.143  1.00  0.00    -0.363 OA
HETATM   14  C10 UNL     1      -3.666  -6.827  19.625  1.00  0.00     0.204 C 
ENDBRANCH  10  13
BRANCH   1  15
HETATM   15  C2  UNL     1      -1.831 -10.277  20.387  1.00  0.00     0.032 C 
HETATM   16  C1  UNL     1      -1.555 -11.777  20.418  1.00  0.00     0.007 C 
ENDBRANCH   1  15
TORSDOF 3
ENDMDL
MODEL 4
REMARK VINA RESULT: -5.928464017      1.994      5.148
REMARK  3 active torsions:
REMARK  status: ('A' for Active; 'I' for Inactive)
REMARK    1  A    between atoms: C2_2  and  C3_3 
REMARK    2  A    between atoms: C7_8  and  O2_9 
REMARK    3  A    between atoms: C9_14  and  O5_15 
ROOT
HETATM    1  C3  UNL     1      -2.240  -9.743  20.716  1.00  0.00     0.176 C 
HETATM    2  O1  UNL     1      -1.132  -9.095  21.287  1.00  0.00    -0.376 OA
HETATM    3  C4  UNL     1      -1.274  -9.196  22.658  1.00  0.00     0.237 C 
HETATM    4  C5  UNL     1      -1.646 -10.601  23.040  1.00  0.00     0.191 C 
HETATM    5  C6  UNL     1      -0.762 -10.999  24.216  1.00  0.00     0.104 C 
HETATM    6  C7  UNL     1      -1.799 -11.542  25.182  1.00  0.00     0.147 C 
HETATM    7  C8  UNL     1      -2.935 -10.559  24.868  1.00  0.00     0.203 C 
HETATM    8  O3  UNL     1      -2.940 -10.609  23.481  1.00  0.00    -0.350 OA
HETATM    9  O4  UNL     1      -1.394 -11.528  22.038  1.00  0.00    -0.320 OA
HETATM   10  C9  UNL     1      -1.994 -11.218  20.834  1.00  0.00     0.291 C 
ENDROOT
BRANCH   6  11
HETATM   11  O2  UNL     1      -1.382 -11.452  26.485  1.00  0.00    -0.393 OA
ATOM     12  H2  UNL     1      -0.953 -12.248  26.776  1.00  0.00     0.210 HD
ENDBRANCH   6  11
BRANCH  10  13
HETATM   13  O5  UNL     1      -1.093 -11.581  19.823  1.00  0.00    -0.363 OA
HETATM   14  C10 UNL     1      -0.803 -12.947  19.872  1.00  0.00     0.204 C 
ENDBRANCH  10  13
BRANCH   1  15
HETATM   15  C2  UNL     1      -2.387  -9.294  19.266  1.00  0.00     0.032 C 
HETATM   16  C1  UNL     1      -3.771  -8.663  19.155  1.00  0.00     0.007 C 
ENDBRANCH   1  15
TORSDOF 3
ENDMDL
MODEL 5
REMARK VINA RESULT: -5.895698815      6.878      8.919
REMARK  3 active torsions:
REMARK  status: ('A' for Active; 'I' for Inactive)
REMARK    1  A    between atoms: C2_2  and  C3_3 
REMARK    2  A    between atoms: C7_8  and  O2_9 
REMARK    3  A    between atoms: C9_14  and  O5_15 
ROOT
HETATM    1  C3  UNL     1      -3.700 -10.794  11.647  1.00  0.00     0.176 C 
HETATM    2  O1  UNL     1      -5.012 -10.397  11.339  1.00  0.00    -0.376 OA
HETATM    3  C4  UNL     1      -5.538  -9.836  12.488  1.00  0.00     0.237 C 
HETATM    4  C5  UNL     1      -4.551  -8.883  13.100  1.00  0.00     0.191 C 
HETATM    5  C6  UNL     1      -5.313  -7.612  13.461  1.00  0.00     0.104 C 
HETATM    6  C7  UNL     1      -4.863  -7.407  14.896  1.00  0.00     0.147 C 
HETATM    7  C8  UNL     1      -4.798  -8.880  15.323  1.00  0.00     0.203 C 
HETATM    8  O3  UNL     1      -4.082  -9.422  14.265  1.00  0.00    -0.350 OA
HETATM    9  O4  UNL     1      -3.548  -8.493  12.223  1.00  0.00    -0.320 OA
HETATM   10  C9  UNL     1      -2.860  -9.551  11.665  1.00  0.00     0.291 C 
ENDROOT
BRANCH   6  11
HETATM   11  O2  UNL     1      -5.783  -6.697  15.624  1.00  0.00    -0.393 OA
ATOM     12  H2  UNL     1      -5.377  -6.221  16.339  1.00  0.00     0.210 HD
ENDBRANCH   6  11
BRANCH  10  13
HETATM   13  O5  UNL     1      -2.585  -9.204  10.334  1.00  0.00    -0.363 OA
HETATM   14  C10 UNL     1      -1.215  -9.273  10.067  1.00  0.00     0.204 C 
ENDBRANCH  10  13
BRANCH   1  15
HETATM   15  C2  UNL     1      -3.226 -11.799  10.602  1.00  0.00     0.032 C 
HETATM   16  C1  UNL     1      -2.328 -12.787  11.339  1.00  0.00     0.007 C 
ENDBRANCH   1  15
TORSDOF 3
ENDMDL
