MODEL 1
REMARK VINA RESULT: -6.881653249      0.000      0.000
REMARK  3 active torsions:
REMARK  status: ('A' for Active; 'I' for Inactive)
REMARK    1  A    between atoms: O1_1  and  C1_3 
REMARK    2  A    between atoms: C3_6  and  C4_7 
REMARK    3  A    between atoms: C4_7  and  N1_8 
ROOT
HETATM    1  C1  UNL     1      -3.398  -6.302  15.493  1.00  0.00     0.165 C 
HETATM    2  C2  UNL     1      -2.062  -6.833  15.954  1.00  0.00     0.205 C 
HETATM    3  O2  UNL     1      -2.114  -7.722  16.975  1.00  0.00    -0.357 OA
HETATM    4  C3  UNL     1      -3.044  -7.470  17.983  1.00  0.00     0.287 C 
HETATM    5  O3  UNL     1      -4.310  -7.207  17.546  1.00  0.00    -0.357 OA
HETATM    6  C11 UNL     1      -4.366  -6.171  16.651  1.00  0.00     0.205 C 
ENDROOT
BRANCH   4   7
HETATM    7  C4  UNL     1      -3.082  -8.802  18.766  1.00  0.00     0.332 C 
BRANCH   7   8
HETATM    8  N1  UNL     1      -1.911  -8.788  19.605  1.00  0.00     0.093 N 
HETATM    9  C5  UNL     1      -1.201 -10.025  19.638  1.00  0.00     0.272 C 
HETATM   10  C6  UNL     1      -1.953 -11.229  20.086  1.00  0.00     0.030 C 
HETATM   11  C7  UNL     1      -1.596 -11.447  21.563  1.00  0.00     0.002 C 
HETATM   12  C8  UNL     1      -2.322 -10.348  22.299  1.00  0.00     0.002 C 
HETATM   13  C9  UNL     1      -1.615  -9.031  22.055  1.00  0.00     0.030 C 
HETATM   14  C10 UNL     1      -2.185  -8.250  20.916  1.00  0.00     0.272 C 
ENDBRANCH   7   8
ENDBRANCH   4   7
BRANCH   1  15
HETATM   15  O1  UNL     1      -3.201  -5.030  14.961  1.00  0.00    -0.391 OA
ATOM     16  H1  UNL     1      -3.660  -4.982  14.131  1.00  0.00     0.210 HD
ENDBRANCH   1  15
TORSDOF 3
ENDMDL
MODEL 2
REMARK VINA RESULT: -6.528784053      1.380      1.443
REMARK  3 active torsions:
REMARK  status: ('A' for Active; 'I' for Inactive)
REMARK    1  A    between atoms: O1_1  and  C1_3 
REMARK    2  A    between atoms: C3_6  and  C4_7 
REMARK    3  A    between atoms: C4_7  and  N1_8 
ROOT
HETATM    1  C1  UNL     1      -4.865  -7.496  15.098  1.00  0.00     0.165 C 
HETATM    2  C2  UNL     1      -4.307  -8.898  15.076  1.00  0.00     0.205 C 
HETATM    3  O2  UNL     1      -4.000  -9.418  16.289  1.00  0.00    -0.357 OA
HETATM    4  C3  UNL     1      -3.422  -8.552  17.217  1.00  0.00     0.287 C 
HETATM    5  O3  UNL     1      -4.077  -7.366  17.384  1.00  0.00    -0.357 OA
HETATM    6  C11 UNL     1      -4.248  -6.676  16.213  1.00  0.00     0.205 C 
ENDROOT
BRANCH   4   7
HETATM    7  C4  UNL     1      -3.526  -9.340  18.543  1.00  0.00     0.332 C 
BRANCH   7   8
HETATM    8  N1  UNL     1      -2.304  -9.060  19.253  1.00  0.00     0.093 N 
HETATM    9  C5  UNL     1      -1.462 -10.196  19.438  1.00  0.00     0.272 C 
HETATM   10  C6  UNL     1      -2.041 -11.361  20.160  1.00  0.00     0.030 C 
HETATM   11  C7  UNL     1      -1.553 -11.266  21.613  1.00  0.00     0.002 C 
HETATM   12  C8  UNL     1      -2.339 -10.123  22.207  1.00  0.00     0.002 C 
HETATM   13  C9  UNL     1      -1.801  -8.814  21.669  1.00  0.00     0.030 C 
HETATM   14  C10 UNL     1      -2.537  -8.316  20.468  1.00  0.00     0.272 C 
ENDBRANCH   7   8
ENDBRANCH   4   7
BRANCH   1  15
HETATM   15  O1  UNL     1      -4.541  -6.879  13.893  1.00  0.00    -0.391 OA
ATOM     16  H1  UNL     1      -3.684  -6.480  13.984  1.00  0.00     0.210 HD
ENDBRANCH   1  15
TORSDOF 3
ENDMDL
MODEL 3
REMARK VINA RESULT: -6.082723192      3.427      6.373
REMARK  3 active torsions:
REMARK  status: ('A' for Active; 'I' for Inactive)
REMARK    1  A    between atoms: O1_1  and  C1_3 
REMARK    2  A    between atoms: C3_6  and  C4_7 
REMARK    3  A    between atoms: C4_7  and  N1_8 
ROOT
HETATM    1  C1  UNL     1      -4.105  -7.122  19.236  1.00  0.00     0.165 C 
HETATM    2  C2  UNL     1      -3.872  -6.486  17.887  1.00  0.00     0.205 C 
HETATM    3  O2  UNL     1      -4.104  -7.290  16.821  1.00  0.00    -0.357 OA
HETATM    4  C3  UNL     1      -3.708  -8.621  16.938  1.00  0.00     0.287 C 
HETATM    5  O3  UNL     1      -4.123  -9.248  18.078  1.00  0.00    -0.357 OA
HETATM    6  C11 UNL     1      -3.745  -8.593  19.220  1.00  0.00     0.205 C 
ENDROOT
BRANCH   4   7
HETATM    7  C4  UNL     1      -4.410  -9.302  15.741  1.00  0.00     0.332 C 
BRANCH   7   8
HETATM    8  N1  UNL     1      -4.090  -8.491  14.595  1.00  0.00     0.093 N 
HETATM    9  C5  UNL     1      -5.202  -8.210  13.748  1.00  0.00     0.272 C 
HETATM   10  C6  UNL     1      -5.933  -9.374  13.176  1.00  0.00     0.030 C 
HETATM   11  C7  UNL     1      -5.406  -9.563  11.745  1.00  0.00     0.002 C 
HETATM   12  C8  UNL     1      -4.020 -10.134  11.920  1.00  0.00     0.002 C 
HETATM   13  C9  UNL     1      -3.086  -9.041  12.394  1.00  0.00     0.030 C 
HETATM   14  C10 UNL     1      -2.938  -8.987  13.880  1.00  0.00     0.272 C 
ENDBRANCH   7   8
ENDBRANCH   4   7
BRANCH   1  15
HETATM   15  O1  UNL     1      -3.276  -6.495  20.162  1.00  0.00    -0.391 OA
ATOM     16  H1  UNL     1      -3.424  -6.894  21.011  1.00  0.00     0.210 HD
ENDBRANCH   1  15
TORSDOF 3
ENDMDL
MODEL 4
REMARK VINA RESULT: -6.062639540      1.942      2.128
REMARK  3 active torsions:
REMARK  status: ('A' for Active; 'I' for Inactive)
REMARK    1  A    between atoms: O1_1  and  C1_3 
REMARK    2  A    between atoms: C3_6  and  C4_7 
REMARK    3  A    between atoms: C4_7  and  N1_8 
ROOT
HETATM    1  C1  UNL     1      -4.522  -7.844  13.813  1.00  0.00     0.165 C 
HETATM    2  C2  UNL     1      -3.244  -7.257  14.360  1.00  0.00     0.205 C 
HETATM    3  O2  UNL     1      -2.640  -7.987  15.328  1.00  0.00    -0.357 OA
HETATM    4  C3  UNL     1      -3.471  -8.602  16.263  1.00  0.00     0.287 C 
HETATM    5  O3  UNL     1      -4.505  -9.319  15.733  1.00  0.00    -0.357 OA
HETATM    6  C11 UNL     1      -5.292  -8.582  14.888  1.00  0.00     0.205 C 
ENDROOT
BRANCH   4   7
HETATM    7  C4  UNL     1      -2.523  -9.595  16.974  1.00  0.00     0.332 C 
BRANCH   7   8
HETATM    8  N1  UNL     1      -1.913  -8.846  18.043  1.00  0.00     0.093 N 
HETATM    9  C5  UNL     1      -0.962  -9.586  18.806  1.00  0.00     0.272 C 
HETATM   10  C6  UNL     1      -1.440 -10.833  19.464  1.00  0.00     0.030 C 
HETATM   11  C7  UNL     1      -1.734 -10.473  20.928  1.00  0.00     0.002 C 
HETATM   12  C8  UNL     1      -3.001  -9.656  20.875  1.00  0.00     0.002 C 
HETATM   13  C9  UNL     1      -2.685  -8.279  20.331  1.00  0.00     0.030 C 
HETATM   14  C10 UNL     1      -2.890  -8.160  18.855  1.00  0.00     0.272 C 
ENDBRANCH   7   8
ENDBRANCH   4   7
BRANCH   1  15
HETATM   15  O1  UNL     1      -5.324  -6.798  13.362  1.00  0.00    -0.391 OA
ATOM     16  H1  UNL     1      -4.839  -6.315  12.703  1.00  0.00     0.210 HD
ENDBRANCH   1  15
TORSDOF 3
ENDMDL
MODEL 5
REMARK VINA RESULT: -6.060899211      3.694      6.039
REMARK  3 active torsions:
REMARK  status: ('A' for Active; 'I' for Inactive)
REMARK    1  A    between atoms: O1_1  and  C1_3 
REMARK    2  A    between atoms: C3_6  and  C4_7 
REMARK    3  A    between atoms: C4_7  and  N1_8 
ROOT
HETATM    1  C1  UNL     1      -3.707  -6.765  18.078  1.00  0.00     0.165 C 
HETATM    2  C2  UNL     1      -3.724  -8.215  18.496  1.00  0.00     0.205 C 
HETATM    3  O2  UNL     1      -3.337  -9.097  17.543  1.00  0.00    -0.357 OA
HETATM    4  C3  UNL     1      -3.757  -8.840  16.239  1.00  0.00     0.287 C 
HETATM    5  O3  UNL     1      -3.528  -7.567  15.800  1.00  0.00    -0.357 OA
HETATM    6  C11 UNL     1      -4.073  -6.610  16.616  1.00  0.00     0.205 C 
ENDROOT
BRANCH   4   7
HETATM    7  C4  UNL     1      -2.884  -9.795  15.394  1.00  0.00     0.332 C 
BRANCH   7   8
HETATM    8  N1  UNL     1      -3.802 -10.739  14.810  1.00  0.00     0.093 N 
HETATM    9  C5  UNL     1      -3.541 -11.037  13.440  1.00  0.00     0.272 C 
HETATM   10  C6  UNL     1      -3.541  -9.895  12.485  1.00  0.00     0.030 C 
HETATM   11  C7  UNL     1      -4.918  -9.889  11.805  1.00  0.00     0.002 C 
HETATM   12  C8  UNL     1      -5.867  -9.393  12.867  1.00  0.00     0.002 C 
HETATM   13  C9  UNL     1      -6.090 -10.487  13.889  1.00  0.00     0.030 C 
HETATM   14  C10 UNL     1      -5.179 -10.394  15.070  1.00  0.00     0.272 C 
ENDBRANCH   7   8
ENDBRANCH   4   7
BRANCH   1  15
HETATM   15  O1  UNL     1      -4.665  -6.085  18.827  1.00  0.00    -0.391 OA
ATOM     16  H1  UNL     1      -5.295  -5.704  18.227  1.00  0.00     0.210 HD
ENDBRANCH   1  15
TORSDOF 3
ENDMDL
