MODEL 1
REMARK VINA RESULT: -7.096062719      0.000      0.000
REMARK  3 active torsions:
REMARK  status: ('A' for Active; 'I' for Inactive)
REMARK    1  A    between atoms: C2_2  and  O1_4 
REMARK    2  A    between atoms: C2_2  and  C4_6 
REMARK    3  A    between atoms: C5_7  and  C6_8 
ROOT
HETATM    1  C6  UNL     1     -54.104 -11.764  -9.864  1.00  0.00     0.142 C 
HETATM    2  C7  UNL     1     -53.289 -11.203 -11.003  1.00  0.00     0.063 C 
HETATM    3  C8  UNL     1     -54.506 -10.735  -8.876  1.00  0.00     0.171 C 
HETATM    4  N1  UNL     1     -53.678 -10.687  -7.698  1.00  0.00    -0.382 N 
ATOM      5  H1  UNL     1     -53.978 -10.100  -6.919  1.00  0.00     0.160 HD
HETATM    6  C9  UNL     1     -52.441 -11.433  -7.562  1.00  0.00     0.095 A 
HETATM    7  C10 UNL     1     -51.442 -11.119  -6.680  1.00  0.00     0.117 A 
HETATM    8  N2  UNL     1     -51.353 -10.062  -5.735  1.00  0.00    -0.092 NA
HETATM    9  S1  UNL     1     -50.277 -12.351  -6.998  1.00  0.00    -0.059 SA
HETATM   10  C11 UNL     1     -51.100 -13.199  -8.221  1.00  0.00     0.122 A 
HETATM   11  C12 UNL     1     -50.622 -14.373  -8.913  1.00  0.00     0.110 C 
HETATM   12  N3  UNL     1     -50.255 -15.317  -9.481  1.00  0.00    -0.191 NA
HETATM   13  C13 UNL     1     -52.272 -12.495  -8.352  1.00  0.00     0.127 A 
HETATM   14  O2  UNL     1     -53.337 -12.780  -9.250  1.00  0.00    -0.322 OA
ENDROOT
BRANCH   1  15
HETATM   15  C5  UNL     1     -55.270 -12.441 -10.478  1.00  0.00    -0.063 C 
HETATM   16  C4  UNL     1     -56.221 -13.005 -10.961  1.00  0.00    -0.066 C 
BRANCH  16  17
HETATM   17  C2  UNL     1     -57.374 -13.715 -11.543  1.00  0.00     0.114 C 
HETATM   18  C1  UNL     1     -58.278 -14.251 -10.467  1.00  0.00     0.060 C 
HETATM   19  C3  UNL     1     -56.812 -14.853 -12.359  1.00  0.00     0.060 C 
BRANCH  17  20
HETATM   20  O1  UNL     1     -58.128 -12.882 -12.364  1.00  0.00    -0.378 OA
ATOM     21  H1  UNL     1     -57.663 -12.781 -13.187  1.00  0.00     0.211 HD
ENDBRANCH  17  20
ENDBRANCH  16  17
ENDBRANCH   1  15
TORSDOF 3
ENDMDL
MODEL 2
REMARK VINA RESULT: -6.829487140      2.333      2.649
REMARK  3 active torsions:
REMARK  status: ('A' for Active; 'I' for Inactive)
REMARK    1  A    between atoms: C2_2  and  O1_4 
REMARK    2  A    between atoms: C2_2  and  C4_6 
REMARK    3  A    between atoms: C5_7  and  C6_8 
ROOT
HETATM    1  C6  UNL     1     -53.238 -12.411 -10.326  1.00  0.00     0.142 C 
HETATM    2  C7  UNL     1     -52.211 -11.718 -11.187  1.00  0.00     0.063 C 
HETATM    3  C8  UNL     1     -54.424 -11.568 -10.046  1.00  0.00     0.171 C 
HETATM    4  N1  UNL     1     -54.403 -10.924  -8.757  1.00  0.00    -0.382 N 
ATOM      5  H1  UNL     1     -55.246 -10.442  -8.443  1.00  0.00     0.160 HD
HETATM    6  C9  UNL     1     -53.245 -10.925  -7.883  1.00  0.00     0.095 A 
HETATM    7  C10 UNL     1     -53.031 -10.018  -6.881  1.00  0.00     0.117 A 
HETATM    8  N2  UNL     1     -53.822  -8.916  -6.459  1.00  0.00    -0.092 NA
HETATM    9  S1  UNL     1     -51.523 -10.545  -6.230  1.00  0.00    -0.059 SA
HETATM   10  C11 UNL     1     -51.236 -11.878  -7.245  1.00  0.00     0.122 A 
HETATM   11  C12 UNL     1     -50.091 -12.758  -7.193  1.00  0.00     0.110 C 
HETATM   12  N3  UNL     1     -49.179 -13.475  -7.167  1.00  0.00    -0.191 NA
HETATM   13  C13 UNL     1     -52.331 -11.879  -8.074  1.00  0.00     0.127 A 
HETATM   14  O2  UNL     1     -52.598 -12.798  -9.126  1.00  0.00    -0.322 OA
ENDROOT
BRANCH   1  15
HETATM   15  C5  UNL     1     -53.591 -13.667 -11.027  1.00  0.00    -0.063 C 
HETATM   16  C4  UNL     1     -53.866 -14.700 -11.586  1.00  0.00    -0.066 C 
BRANCH  16  17
HETATM   17  C2  UNL     1     -54.177 -15.968 -12.270  1.00  0.00     0.114 C 
HETATM   18  C1  UNL     1     -55.611 -16.366 -12.047  1.00  0.00     0.060 C 
HETATM   19  C3  UNL     1     -53.256 -17.011 -11.686  1.00  0.00     0.060 C 
BRANCH  17  20
HETATM   20  O1  UNL     1     -53.964 -15.877 -13.642  1.00  0.00    -0.378 OA
ATOM     21  H1  UNL     1     -53.594 -16.701 -13.938  1.00  0.00     0.211 HD
ENDBRANCH  17  20
ENDBRANCH  16  17
ENDBRANCH   1  15
TORSDOF 3
ENDMDL
MODEL 3
REMARK VINA RESULT: -6.814734466      2.420      2.820
REMARK  3 active torsions:
REMARK  status: ('A' for Active; 'I' for Inactive)
REMARK    1  A    between atoms: C2_2  and  O1_4 
REMARK    2  A    between atoms: C2_2  and  C4_6 
REMARK    3  A    between atoms: C5_7  and  C6_8 
ROOT
HETATM    1  C6  UNL     1     -53.209 -12.381 -10.317  1.00  0.00     0.142 C 
HETATM    2  C7  UNL     1     -52.174 -11.682 -11.163  1.00  0.00     0.063 C 
HETATM    3  C8  UNL     1     -54.398 -11.542 -10.042  1.00  0.00     0.171 C 
HETATM    4  N1  UNL     1     -54.391 -10.906  -8.749  1.00  0.00    -0.382 N 
ATOM      5  H1  UNL     1     -55.236 -10.427  -8.440  1.00  0.00     0.160 HD
HETATM    6  C9  UNL     1     -53.241 -10.912  -7.864  1.00  0.00     0.095 A 
HETATM    7  C10 UNL     1     -53.037 -10.012  -6.854  1.00  0.00     0.117 A 
HETATM    8  N2  UNL     1     -53.833  -8.913  -6.432  1.00  0.00    -0.092 NA
HETATM    9  S1  UNL     1     -51.535 -10.542  -6.191  1.00  0.00    -0.059 SA
HETATM   10  C11 UNL     1     -51.237 -11.869  -7.213  1.00  0.00     0.122 A 
HETATM   11  C12 UNL     1     -50.092 -12.748  -7.155  1.00  0.00     0.110 C 
HETATM   12  N3  UNL     1     -49.180 -13.465  -7.126  1.00  0.00    -0.191 NA
HETATM   13  C13 UNL     1     -52.324 -11.864  -8.052  1.00  0.00     0.127 A 
HETATM   14  O2  UNL     1     -52.580 -12.776  -9.113  1.00  0.00    -0.322 OA
ENDROOT
BRANCH   1  15
HETATM   15  C5  UNL     1     -53.555 -13.633 -11.030  1.00  0.00    -0.063 C 
HETATM   16  C4  UNL     1     -53.819 -14.661 -11.603  1.00  0.00    -0.066 C 
BRANCH  16  17
HETATM   17  C2  UNL     1     -54.118 -15.918 -12.312  1.00  0.00     0.114 C 
HETATM   18  C1  UNL     1     -53.475 -15.938 -13.672  1.00  0.00     0.060 C 
HETATM   19  C3  UNL     1     -55.620 -15.988 -12.451  1.00  0.00     0.060 C 
BRANCH  17  20
HETATM   20  O1  UNL     1     -53.666 -17.027 -11.605  1.00  0.00    -0.378 OA
ATOM     21  H1  UNL     1     -52.761 -16.870 -11.359  1.00  0.00     0.211 HD
ENDBRANCH  17  20
ENDBRANCH  16  17
ENDBRANCH   1  15
TORSDOF 3
ENDMDL
MODEL 4
REMARK VINA RESULT: -6.728405597      1.514      1.717
REMARK  3 active torsions:
REMARK  status: ('A' for Active; 'I' for Inactive)
REMARK    1  A    between atoms: C2_2  and  O1_4 
REMARK    2  A    between atoms: C2_2  and  C4_6 
REMARK    3  A    between atoms: C5_7  and  C6_8 
ROOT
HETATM    1  C6  UNL     1     -54.850 -12.422 -11.047  1.00  0.00     0.142 C 
HETATM    2  C7  UNL     1     -54.084 -12.305 -12.341  1.00  0.00     0.063 C 
HETATM    3  C8  UNL     1     -55.401 -11.129 -10.579  1.00  0.00     0.171 C 
HETATM    4  N1  UNL     1     -54.615 -10.482  -9.559  1.00  0.00    -0.382 N 
ATOM      5  H1  UNL     1     -55.004  -9.662  -9.095  1.00  0.00     0.160 HD
HETATM    6  C9  UNL     1     -53.298 -10.940  -9.158  1.00  0.00     0.095 A 
HETATM    7  C10 UNL     1     -52.368 -10.161  -8.525  1.00  0.00     0.117 A 
HETATM    8  N2  UNL     1     -52.434  -8.800  -8.122  1.00  0.00    -0.092 NA
HETATM    9  S1  UNL     1     -51.050 -11.257  -8.326  1.00  0.00    -0.059 SA
HETATM   10  C11 UNL     1     -51.732 -12.639  -9.045  1.00  0.00     0.122 A 
HETATM   11  C12 UNL     1     -51.093 -13.928  -9.187  1.00  0.00     0.110 C 
HETATM   12  N3  UNL     1     -50.598 -14.970  -9.311  1.00  0.00    -0.191 NA
HETATM   13  C13 UNL     1     -52.978 -12.208  -9.426  1.00  0.00     0.127 A 
HETATM   14  O2  UNL     1     -53.977 -12.978 -10.084  1.00  0.00    -0.322 OA
ENDROOT
BRANCH   1  15
HETATM   15  C5  UNL     1     -55.907 -13.435 -11.277  1.00  0.00    -0.063 C 
HETATM   16  C4  UNL     1     -56.778 -14.245 -11.476  1.00  0.00    -0.066 C 
BRANCH  16  17
HETATM   17  C2  UNL     1     -57.859 -15.219 -11.713  1.00  0.00     0.114 C 
HETATM   18  C1  UNL     1     -58.835 -15.232 -10.568  1.00  0.00     0.060 C 
HETATM   19  C3  UNL     1     -57.201 -16.570 -11.845  1.00  0.00     0.060 C 
BRANCH  17  20
HETATM   20  O1  UNL     1     -58.564 -14.930 -12.877  1.00  0.00    -0.378 OA
ATOM     21  H1  UNL     1     -58.517 -15.690 -13.446  1.00  0.00     0.211 HD
ENDBRANCH  17  20
ENDBRANCH  16  17
ENDBRANCH   1  15
TORSDOF 3
ENDMDL
MODEL 5
REMARK VINA RESULT: -6.684212796      3.404      6.386
REMARK  3 active torsions:
REMARK  status: ('A' for Active; 'I' for Inactive)
REMARK    1  A    between atoms: C2_2  and  O1_4 
REMARK    2  A    between atoms: C2_2  and  C4_6 
REMARK    3  A    between atoms: C5_7  and  C6_8 
ROOT
HETATM    1  C6  UNL     1     -53.083 -11.995 -10.798  1.00  0.00     0.142 C 
HETATM    2  C7  UNL     1     -53.592 -11.128 -11.922  1.00  0.00     0.063 C 
HETATM    3  C8  UNL     1     -51.821 -12.697 -11.132  1.00  0.00     0.171 C 
HETATM    4  N1  UNL     1     -51.995 -14.068 -11.540  1.00  0.00    -0.382 N 
ATOM      5  H1  UNL     1     -51.164 -14.649 -11.651  1.00  0.00     0.160 HD
HETATM    6  C9  UNL     1     -53.292 -14.664 -11.800  1.00  0.00     0.095 A 
HETATM    7  C10 UNL     1     -53.489 -15.784 -12.562  1.00  0.00     0.117 A 
HETATM    8  N2  UNL     1     -52.552 -16.601 -13.250  1.00  0.00    -0.092 NA
HETATM    9  S1  UNL     1     -55.202 -15.977 -12.488  1.00  0.00    -0.059 SA
HETATM   10  C11 UNL     1     -55.586 -14.644 -11.504  1.00  0.00     0.122 A 
HETATM   11  C12 UNL     1     -56.909 -14.258 -11.071  1.00  0.00     0.110 C 
HETATM   12  N3  UNL     1     -57.964 -13.932 -10.713  1.00  0.00    -0.191 NA
HETATM   13  C13 UNL     1     -54.360 -14.077 -11.257  1.00  0.00     0.127 A 
HETATM   14  O2  UNL     1     -54.104 -12.918 -10.474  1.00  0.00    -0.322 OA
ENDROOT
BRANCH   1  15
HETATM   15  C5  UNL     1     -52.940 -11.109  -9.618  1.00  0.00    -0.063 C 
HETATM   16  C4  UNL     1     -52.807 -10.379  -8.668  1.00  0.00    -0.066 C 
BRANCH  16  17
HETATM   17  C2  UNL     1     -52.621  -9.490  -7.507  1.00  0.00     0.114 C 
HETATM   18  C1  UNL     1     -51.626 -10.067  -6.538  1.00  0.00     0.060 C 
HETATM   19  C3  UNL     1     -53.970  -9.359  -6.844  1.00  0.00     0.060 C 
BRANCH  17  20
HETATM   20  O1  UNL     1     -52.169  -8.231  -7.891  1.00  0.00    -0.378 OA
ATOM     21  H1  UNL     1     -51.314  -8.337  -8.293  1.00  0.00     0.211 HD
ENDBRANCH  17  20
ENDBRANCH  16  17
ENDBRANCH   1  15
TORSDOF 3
ENDMDL
