MODEL 1
REMARK VINA RESULT: -8.618245735      0.000      0.000
REMARK  0 active torsions:
REMARK  status: ('A' for Active; 'I' for Inactive)
ROOT
HETATM    1  N1  UNL     1     -52.403  -9.581  -5.847  1.00  0.00    -0.379 N 
ATOM      2  H11 UNL     1     -51.442  -9.364  -5.583  1.00  0.00     0.158 HD
ATOM      3  H12 UNL     1     -53.335  -9.438  -5.457  1.00  0.00     0.158 HD
HETATM    4  C1  UNL     1     -52.472 -10.203  -6.975  1.00  0.00     0.149 C 
HETATM    5  N2  UNL     1     -53.823 -10.508  -7.346  1.00  0.00    -0.282 N 
ATOM      6  H2  UNL     1     -54.515  -9.834  -7.018  1.00  0.00     0.184 HD
HETATM    7  N3  UNL     1     -54.355 -11.574  -8.081  1.00  0.00    -0.107 NA
HETATM    8  C2  UNL     1     -54.088 -11.369  -9.484  1.00  0.00     0.235 C 
HETATM    9  C3  UNL     1     -55.303 -11.817 -10.309  1.00  0.00     0.055 C 
HETATM   10  C4  UNL     1     -55.582 -13.273 -10.099  1.00  0.00     0.030 C 
HETATM   11  C5  UNL     1     -56.151 -13.987 -11.237  1.00  0.00    -0.030 C 
HETATM   12  C6  UNL     1     -55.534 -14.443 -12.311  1.00  0.00    -0.031 C 
HETATM   13  C7  UNL     1     -54.080 -14.318 -12.593  1.00  0.00     0.027 C 
HETATM   14  C8  UNL     1     -53.280 -15.323 -11.796  1.00  0.00     0.004 C 
HETATM   15  C9  UNL     1     -51.827 -15.005 -11.714  1.00  0.00     0.000 C 
HETATM   16  C10 UNL     1     -51.463 -13.736 -11.033  1.00  0.00     0.002 C 
HETATM   17  C11 UNL     1     -51.508 -13.774  -9.536  1.00  0.00     0.033 C 
HETATM   18  C12 UNL     1     -52.046 -12.432  -9.076  1.00  0.00     0.133 C 
HETATM   19  C13 UNL     1     -50.890 -11.455  -9.144  1.00  0.00     0.114 C 
HETATM   20  S1  UNL     1     -50.847 -10.453  -7.655  1.00  0.00    -0.091 SA
HETATM   21  O1  UNL     1     -53.000 -12.030  -9.958  1.00  0.00    -0.362 OA
ENDROOT
TORSDOF 0
ENDMDL
MODEL 2
REMARK VINA RESULT: -8.587882591      2.632      5.043
REMARK  0 active torsions:
REMARK  status: ('A' for Active; 'I' for Inactive)
ROOT
HETATM    1  N1  UNL     1     -56.490 -11.132 -12.959  1.00  0.00    -0.379 N 
ATOM      2  H11 UNL     1     -56.623 -11.826 -13.695  1.00  0.00     0.158 HD
ATOM      3  H12 UNL     1     -56.809 -10.184 -12.760  1.00  0.00     0.158 HD
HETATM    4  C1  UNL     1     -55.713 -11.557 -12.020  1.00  0.00     0.149 C 
HETATM    5  N2  UNL     1     -55.527 -10.582 -10.986  1.00  0.00    -0.282 N 
ATOM      6  H2  UNL     1     -56.327  -9.966 -10.836  1.00  0.00     0.184 HD
HETATM    7  N3  UNL     1     -54.436 -10.331 -10.147  1.00  0.00    -0.107 NA
HETATM    8  C2  UNL     1     -54.384 -11.338  -9.114  1.00  0.00     0.235 C 
HETATM    9  C3  UNL     1     -53.970 -10.689  -7.785  1.00  0.00     0.055 C 
HETATM   10  C4  UNL     1     -52.611 -10.069  -7.895  1.00  0.00     0.030 C 
HETATM   11  C5  UNL     1     -51.805 -10.069  -6.679  1.00  0.00    -0.030 C 
HETATM   12  C6  UNL     1     -51.114 -11.063  -6.154  1.00  0.00    -0.031 C 
HETATM   13  C7  UNL     1     -51.008 -12.435  -6.713  1.00  0.00     0.027 C 
HETATM   14  C8  UNL     1     -50.048 -12.479  -7.879  1.00  0.00     0.004 C 
HETATM   15  C9  UNL     1     -50.189 -13.694  -8.729  1.00  0.00     0.000 C 
HETATM   16  C10 UNL     1     -51.492 -13.875  -9.417  1.00  0.00     0.002 C 
HETATM   17  C11 UNL     1     -51.694 -13.033 -10.640  1.00  0.00     0.033 C 
HETATM   18  C12 UNL     1     -53.149 -12.601 -10.644  1.00  0.00     0.133 C 
HETATM   19  C13 UNL     1     -53.949 -13.778 -11.165  1.00  0.00     0.114 C 
HETATM   20  S1  UNL     1     -55.158 -13.212 -12.366  1.00  0.00    -0.091 SA
HETATM   21  O1  UNL     1     -53.525 -12.361  -9.360  1.00  0.00    -0.362 OA
ENDROOT
TORSDOF 0
ENDMDL
MODEL 3
REMARK VINA RESULT: -8.405144733      1.702      3.407
REMARK  0 active torsions:
REMARK  status: ('A' for Active; 'I' for Inactive)
ROOT
HETATM    1  N1  UNL     1     -51.729  -9.047  -7.813  1.00  0.00    -0.379 N 
ATOM      2  H11 UNL     1     -52.467  -8.451  -7.440  1.00  0.00     0.158 HD
ATOM      3  H12 UNL     1     -50.715  -9.001  -7.920  1.00  0.00     0.158 HD
HETATM    4  C1  UNL     1     -52.185 -10.161  -8.276  1.00  0.00     0.149 C 
HETATM    5  N2  UNL     1     -51.147 -10.998  -8.800  1.00  0.00    -0.282 N 
ATOM      6  H2  UNL     1     -50.245 -10.896  -8.334  1.00  0.00     0.184 HD
HETATM    7  N3  UNL     1     -51.159 -11.933  -9.842  1.00  0.00    -0.107 NA
HETATM    8  C2  UNL     1     -51.814 -13.139  -9.396  1.00  0.00     0.235 C 
HETATM    9  C3  UNL     1     -51.082 -14.361  -9.970  1.00  0.00     0.055 C 
HETATM   10  C4  UNL     1     -51.110 -14.347 -11.467  1.00  0.00     0.030 C 
HETATM   11  C5  UNL     1     -51.136 -15.650 -12.121  1.00  0.00    -0.030 C 
HETATM   12  C6  UNL     1     -52.162 -16.463 -12.288  1.00  0.00    -0.031 C 
HETATM   13  C7  UNL     1     -53.552 -16.210 -11.828  1.00  0.00     0.027 C 
HETATM   14  C8  UNL     1     -54.263 -15.242 -12.745  1.00  0.00     0.004 C 
HETATM   15  C9  UNL     1     -55.487 -14.637 -12.147  1.00  0.00     0.000 C 
HETATM   16  C10 UNL     1     -55.290 -13.802 -10.936  1.00  0.00     0.002 C 
HETATM   17  C11 UNL     1     -54.767 -12.420 -11.186  1.00  0.00     0.033 C 
HETATM   18  C12 UNL     1     -53.801 -12.102 -10.060  1.00  0.00     0.133 C 
HETATM   19  C13 UNL     1     -54.644 -11.705  -8.865  1.00  0.00     0.114 C 
HETATM   20  S1  UNL     1     -53.953 -10.241  -8.088  1.00  0.00    -0.091 SA
HETATM   21  O1  UNL     1     -53.122 -13.238  -9.747  1.00  0.00    -0.362 OA
ENDROOT
TORSDOF 0
ENDMDL
MODEL 4
REMARK VINA RESULT: -8.350068804      1.579      2.183
REMARK  0 active torsions:
REMARK  status: ('A' for Active; 'I' for Inactive)
ROOT
HETATM    1  N1  UNL     1     -54.112 -10.406  -7.605  1.00  0.00    -0.379 N 
ATOM      2  H11 UNL     1     -53.313  -9.877  -7.256  1.00  0.00     0.158 HD
ATOM      3  H12 UNL     1     -55.101 -10.503  -7.376  1.00  0.00     0.158 HD
HETATM    4  C1  UNL     1     -53.802 -11.157  -8.608  1.00  0.00     0.149 C 
HETATM    5  N2  UNL     1     -54.926 -11.900  -9.099  1.00  0.00    -0.282 N 
ATOM      6  H2  UNL     1     -55.824 -11.430  -8.989  1.00  0.00     0.184 HD
HETATM    7  N3  UNL     1     -55.000 -13.161  -9.703  1.00  0.00    -0.107 NA
HETATM    8  C2  UNL     1     -54.552 -13.063 -11.071  1.00  0.00     0.235 C 
HETATM    9  C3  UNL     1     -55.426 -13.957 -11.962  1.00  0.00     0.055 C 
HETATM   10  C4  UNL     1     -55.323 -15.391 -11.543  1.00  0.00     0.030 C 
HETATM   11  C5  UNL     1     -55.457 -16.382 -12.606  1.00  0.00    -0.030 C 
HETATM   12  C6  UNL     1     -54.555 -16.761 -13.491  1.00  0.00    -0.031 C 
HETATM   13  C7  UNL     1     -53.167 -16.240 -13.592  1.00  0.00     0.027 C 
HETATM   14  C8  UNL     1     -52.277 -16.847 -12.532  1.00  0.00     0.004 C 
HETATM   15  C9  UNL     1     -51.009 -16.098 -12.311  1.00  0.00     0.000 C 
HETATM   16  C10 UNL     1     -51.140 -14.703 -11.818  1.00  0.00     0.002 C 
HETATM   17  C11 UNL     1     -51.441 -14.564 -10.357  1.00  0.00     0.033 C 
HETATM   18  C12 UNL     1     -52.403 -13.400 -10.213  1.00  0.00     0.133 C 
HETATM   19  C13 UNL     1     -51.571 -12.136 -10.293  1.00  0.00     0.114 C 
HETATM   20  S1  UNL     1     -52.077 -10.988  -9.009  1.00  0.00    -0.091 SA
HETATM   21  O1  UNL     1     -53.257 -13.419 -11.272  1.00  0.00    -0.362 OA
ENDROOT
TORSDOF 0
ENDMDL
MODEL 5
REMARK VINA RESULT: -8.246137805      4.455      6.071
REMARK  0 active torsions:
REMARK  status: ('A' for Active; 'I' for Inactive)
ROOT
HETATM    1  N1  UNL     1     -59.431 -15.689 -11.826  1.00  0.00    -0.379 N 
ATOM      2  H11 UNL     1     -60.022 -14.862 -11.735  1.00  0.00     0.158 HD
ATOM      3  H12 UNL     1     -59.557 -16.701 -11.826  1.00  0.00     0.158 HD
HETATM    4  C1  UNL     1     -58.186 -15.385 -11.985  1.00  0.00     0.149 C 
HETATM    5  N2  UNL     1     -57.356 -16.546 -12.112  1.00  0.00    -0.282 N 
ATOM      6  H2  UNL     1     -57.812 -17.347 -12.549  1.00  0.00     0.184 HD
HETATM    7  N3  UNL     1     -56.025 -16.769 -11.740  1.00  0.00    -0.107 NA
HETATM    8  C2  UNL     1     -55.148 -16.120 -12.686  1.00  0.00     0.235 C 
HETATM    9  C3  UNL     1     -53.925 -17.011 -12.945  1.00  0.00     0.055 C 
HETATM   10  C4  UNL     1     -53.154 -17.239 -11.681  1.00  0.00     0.030 C 
HETATM   11  C5  UNL     1     -51.712 -17.404 -11.830  1.00  0.00    -0.030 C 
HETATM   12  C6  UNL     1     -50.795 -16.472 -12.011  1.00  0.00    -0.031 C 
HETATM   13  C7  UNL     1     -51.050 -15.012 -12.103  1.00  0.00     0.027 C 
HETATM   14  C8  UNL     1     -51.288 -14.411 -10.736  1.00  0.00     0.004 C 
HETATM   15  C9  UNL     1     -51.934 -13.069 -10.773  1.00  0.00     0.000 C 
HETATM   16  C10 UNL     1     -53.296 -13.005 -11.361  1.00  0.00     0.002 C 
HETATM   17  C11 UNL     1     -54.403 -13.480 -10.470  1.00  0.00     0.033 C 
HETATM   18  C12 UNL     1     -55.394 -14.217 -11.351  1.00  0.00     0.133 C 
HETATM   19  C13 UNL     1     -56.231 -13.160 -12.042  1.00  0.00     0.114 C 
HETATM   20  S1  UNL     1     -57.966 -13.620 -11.985  1.00  0.00    -0.091 SA
HETATM   21  O1  UNL     1     -54.697 -14.900 -12.298  1.00  0.00    -0.362 OA
ENDROOT
TORSDOF 0
ENDMDL
