MODEL 1
REMARK VINA RESULT: -9.115240929      0.000      0.000
REMARK  4 active torsions:
REMARK  status: ('A' for Active; 'I' for Inactive)
REMARK    1  A    between atoms: C8_9  and  N1_10 
REMARK    2  A    between atoms: N1_10  and  C9_12 
REMARK    3  A    between atoms: C9_12  and  C10_13 
REMARK    4  A    between atoms: C19_25  and  O2_26 
ROOT
HETATM    1  C1  UNL     1      14.351  -8.433  -4.888  1.00  0.00     0.046 C 
HETATM    2  C2  UNL     1      15.033  -7.888  -3.643  1.00  0.00     0.062 C 
HETATM    3  C3  UNL     1      15.299  -9.066  -2.708  1.00  0.00     0.038 C 
HETATM    4  C4  UNL     1      16.776  -9.073  -2.340  1.00  0.00     0.006 C 
HETATM    5  C5  UNL     1      17.132  -7.662  -1.906  1.00  0.00     0.040 C 
HETATM    6  C6  UNL     1      16.941  -6.698  -3.031  1.00  0.00     0.079 C 
HETATM    7  C7  UNL     1      18.310  -6.391  -3.604  1.00  0.00     0.048 C 
HETATM    8  O1  UNL     1      16.238  -7.366  -4.046  1.00  0.00    -0.367 OA
HETATM    9  C8  UNL     1      16.224  -5.441  -2.674  1.00  0.00     0.120 C 
HETATM   10  C13 UNL     1      14.815  -5.516  -3.231  1.00  0.00     0.023 C 
HETATM   11  C14 UNL     1      14.171  -6.842  -2.952  1.00  0.00     0.026 C 
HETATM   12  C15 UNL     1      12.757  -6.816  -3.417  1.00  0.00     0.009 C 
HETATM   13  C16 UNL     1      12.418  -5.537  -4.194  1.00  0.00     0.012 C 
HETATM   14  C17 UNL     1      12.607  -4.392  -3.235  1.00  0.00    -0.014 C 
HETATM   15  C18 UNL     1      11.617  -4.544  -2.102  1.00  0.00     0.018 C 
HETATM   16  C19 UNL     1      12.299  -3.119  -3.955  1.00  0.00     0.126 C 
HETATM   17  C20 UNL     1      13.443  -2.170  -3.706  1.00  0.00     0.033 C 
HETATM   18  C21 UNL     1      14.596  -3.118  -3.490  1.00  0.00     0.008 C 
HETATM   19  C22 UNL     1      14.019  -4.337  -2.762  1.00  0.00     0.003 C 
ENDROOT
BRANCH   9  20
HETATM   20  N1  UNL     1      16.295  -4.982  -1.354  1.00  0.00    -0.389 N 
ATOM     21  H1  UNL     1      15.506  -5.097  -0.717  1.00  0.00     0.159 HD
BRANCH  20  22
HETATM   22  C9  UNL     1      17.481  -4.357  -0.932  1.00  0.00     0.113 C 
BRANCH  22  23
HETATM   23  C10 UNL     1      17.716  -3.033  -1.622  1.00  0.00     0.054 A 
HETATM   24  C11 UNL     1      18.744  -2.891  -2.517  1.00  0.00     0.081 A 
HETATM   25  S1  UNL     1      18.574  -1.255  -2.988  1.00  0.00    -0.094 SA
HETATM   26  C12 UNL     1      17.225  -0.853  -2.032  1.00  0.00     0.138 A 
HETATM   27  N2  UNL     1      16.969  -1.982  -1.403  1.00  0.00    -0.358 N 
ATOM     28  H2  UNL     1      16.191  -2.036  -0.746  1.00  0.00     0.166 HD
ENDBRANCH  22  23
ENDBRANCH  20  22
ENDBRANCH   9  20
BRANCH  16  29
HETATM   29  O2  UNL     1      12.199  -3.316  -5.330  1.00  0.00    -0.395 OA
ATOM     30  H2  UNL     1      11.340  -3.639  -5.577  1.00  0.00     0.210 HD
ENDBRANCH  16  29
TORSDOF 4
ENDMDL
MODEL 2
REMARK VINA RESULT: -8.248519088      2.565      5.209
REMARK  4 active torsions:
REMARK  status: ('A' for Active; 'I' for Inactive)
REMARK    1  A    between atoms: C8_9  and  N1_10 
REMARK    2  A    between atoms: N1_10  and  C9_12 
REMARK    3  A    between atoms: C9_12  and  C10_13 
REMARK    4  A    between atoms: C19_25  and  O2_26 
ROOT
HETATM    1  C1  UNL     1      15.041  -0.123  -2.654  1.00  0.00     0.046 C 
HETATM    2  C2  UNL     1      15.993  -1.258  -2.998  1.00  0.00     0.062 C 
HETATM    3  C3  UNL     1      17.008  -0.722  -4.006  1.00  0.00     0.038 C 
HETATM    4  C4  UNL     1      18.410  -0.994  -3.478  1.00  0.00     0.006 C 
HETATM    5  C5  UNL     1      18.452  -2.453  -3.058  1.00  0.00     0.040 C 
HETATM    6  C6  UNL     1      17.483  -2.714  -1.952  1.00  0.00     0.079 C 
HETATM    7  C7  UNL     1      18.275  -2.781  -0.662  1.00  0.00     0.048 C 
HETATM    8  O1  UNL     1      16.655  -1.586  -1.839  1.00  0.00    -0.367 OA
HETATM    9  C8  UNL     1      16.643  -3.933  -2.120  1.00  0.00     0.120 C 
HETATM   10  C13 UNL     1      15.239  -3.501  -2.502  1.00  0.00     0.023 C 
HETATM   11  C14 UNL     1      15.248  -2.452  -3.574  1.00  0.00     0.026 C 
HETATM   12  C15 UNL     1      13.849  -2.153  -3.989  1.00  0.00     0.009 C 
HETATM   13  C16 UNL     1      12.811  -2.850  -3.100  1.00  0.00     0.012 C 
HETATM   14  C17 UNL     1      13.033  -4.330  -3.265  1.00  0.00    -0.014 C 
HETATM   15  C18 UNL     1      12.758  -4.699  -4.706  1.00  0.00     0.018 C 
HETATM   16  C19 UNL     1      12.048  -5.053  -2.403  1.00  0.00     0.126 C 
HETATM   17  C20 UNL     1      12.813  -6.070  -1.597  1.00  0.00     0.033 C 
HETATM   18  C21 UNL     1      14.176  -5.432  -1.498  1.00  0.00     0.008 C 
HETATM   19  C22 UNL     1      14.407  -4.704  -2.827  1.00  0.00     0.003 C 
ENDROOT
BRANCH   9  20
HETATM   20  N1  UNL     1      17.143  -4.992  -2.885  1.00  0.00    -0.389 N 
ATOM     21  H1  UNL     1      17.065  -4.987  -3.902  1.00  0.00     0.159 HD
BRANCH  20  22
HETATM   22  C9  UNL     1      17.758  -6.062  -2.212  1.00  0.00     0.113 C 
BRANCH  22  23
HETATM   23  C10 UNL     1      17.081  -7.385  -2.487  1.00  0.00     0.054 A 
HETATM   24  C11 UNL     1      16.711  -7.722  -3.763  1.00  0.00     0.081 A 
HETATM   25  S1  UNL     1      16.008  -9.263  -3.528  1.00  0.00    -0.094 SA
HETATM   26  C12 UNL     1      16.222  -9.388  -1.844  1.00  0.00     0.138 A 
HETATM   27  N2  UNL     1      16.818  -8.252  -1.544  1.00  0.00    -0.358 N 
ATOM     28  H2  UNL     1      17.073  -8.049  -0.577  1.00  0.00     0.166 HD
ENDBRANCH  22  23
ENDBRANCH  20  22
ENDBRANCH   9  20
BRANCH  16  29
HETATM   29  O2  UNL     1      11.413  -4.192  -1.512  1.00  0.00    -0.395 OA
ATOM     30  H2  UNL     1      10.558  -4.517  -1.257  1.00  0.00     0.210 HD
ENDBRANCH  16  29
TORSDOF 4
ENDMDL
MODEL 3
REMARK VINA RESULT: -7.811547603      2.314      3.913
REMARK  4 active torsions:
REMARK  status: ('A' for Active; 'I' for Inactive)
REMARK    1  A    between atoms: C8_9  and  N1_10 
REMARK    2  A    between atoms: N1_10  and  C9_12 
REMARK    3  A    between atoms: C9_12  and  C10_13 
REMARK    4  A    between atoms: C19_25  and  O2_26 
ROOT
HETATM    1  C1  UNL     1      17.230  -5.700  -2.803  1.00  0.00     0.046 C 
HETATM    2  C2  UNL     1      17.091  -4.288  -2.257  1.00  0.00     0.062 C 
HETATM    3  C3  UNL     1      17.831  -4.233  -0.922  1.00  0.00     0.038 C 
HETATM    4  C4  UNL     1      18.828  -3.084  -0.963  1.00  0.00     0.006 C 
HETATM    5  C5  UNL     1      18.078  -1.864  -1.468  1.00  0.00     0.040 C 
HETATM    6  C6  UNL     1      17.573  -2.088  -2.856  1.00  0.00     0.079 C 
HETATM    7  C7  UNL     1      18.504  -1.356  -3.801  1.00  0.00     0.048 C 
HETATM    8  O1  UNL     1      17.724  -3.453  -3.145  1.00  0.00    -0.367 OA
HETATM    9  C8  UNL     1      16.158  -1.684  -3.089  1.00  0.00     0.120 C 
HETATM   10  C13 UNL     1      15.306  -2.937  -3.171  1.00  0.00     0.023 C 
HETATM   11  C14 UNL     1      15.630  -3.907  -2.073  1.00  0.00     0.026 C 
HETATM   12  C15 UNL     1      14.688  -5.058  -2.134  1.00  0.00     0.009 C 
HETATM   13  C16 UNL     1      13.793  -5.021  -3.379  1.00  0.00     0.012 C 
HETATM   14  C17 UNL     1      12.973  -3.762  -3.277  1.00  0.00    -0.014 C 
HETATM   15  C18 UNL     1      12.091  -3.861  -2.052  1.00  0.00     0.018 C 
HETATM   16  C19 UNL     1      12.091  -3.676  -4.481  1.00  0.00     0.126 C 
HETATM   17  C20 UNL     1      12.255  -2.296  -5.063  1.00  0.00     0.033 C 
HETATM   18  C21 UNL     1      13.658  -1.940  -4.638  1.00  0.00     0.008 C 
HETATM   19  C22 UNL     1      13.858  -2.564  -3.253  1.00  0.00     0.003 C 
ENDROOT
BRANCH   9  20
HETATM   20  N1  UNL     1      15.611  -0.671  -2.294  1.00  0.00    -0.389 N 
ATOM     21  H1  UNL     1      15.112  -0.893  -1.432  1.00  0.00     0.159 HD
BRANCH  20  22
HETATM   22  C9  UNL     1      15.769   0.661  -2.716  1.00  0.00     0.113 C 
BRANCH  22  23
HETATM   23  C10 UNL     1      16.808   1.405  -1.909  1.00  0.00     0.054 A 
HETATM   24  C11 UNL     1      17.944   1.880  -2.511  1.00  0.00     0.081 A 
HETATM   25  S1  UNL     1      18.755   2.613  -1.196  1.00  0.00    -0.094 SA
HETATM   26  C12 UNL     1      17.620   2.276   0.026  1.00  0.00     0.138 A 
HETATM   27  N2  UNL     1      16.679   1.624  -0.626  1.00  0.00    -0.358 N 
ATOM     28  H2  UNL     1      15.852   1.291  -0.130  1.00  0.00     0.166 HD
ENDBRANCH  22  23
ENDBRANCH  20  22
ENDBRANCH   9  20
BRANCH  16  29
HETATM   29  O2  UNL     1      12.459  -4.598  -5.456  1.00  0.00    -0.395 OA
ATOM     30  H2  UNL     1      11.755  -4.755  -6.075  1.00  0.00     0.210 HD
ENDBRANCH  16  29
TORSDOF 4
ENDMDL
MODEL 4
REMARK VINA RESULT: -7.775795510      2.665      5.546
REMARK  4 active torsions:
REMARK  status: ('A' for Active; 'I' for Inactive)
REMARK    1  A    between atoms: C8_9  and  N1_10 
REMARK    2  A    between atoms: N1_10  and  C9_12 
REMARK    3  A    between atoms: C9_12  and  C10_13 
REMARK    4  A    between atoms: C19_25  and  O2_26 
ROOT
HETATM    1  C1  UNL     1      19.000  -4.945  -3.119  1.00  0.00     0.046 C 
HETATM    2  C2  UNL     1      17.774  -4.705  -2.253  1.00  0.00     0.062 C 
HETATM    3  C3  UNL     1      18.252  -4.118  -0.926  1.00  0.00     0.038 C 
HETATM    4  C4  UNL     1      17.498  -2.822  -0.666  1.00  0.00     0.006 C 
HETATM    5  C5  UNL     1      16.024  -3.114  -0.882  1.00  0.00     0.040 C 
HETATM    6  C6  UNL     1      15.766  -3.523  -2.295  1.00  0.00     0.079 C 
HETATM    7  C7  UNL     1      15.177  -2.326  -3.014  1.00  0.00     0.048 C 
HETATM    8  O1  UNL     1      17.009  -3.764  -2.900  1.00  0.00    -0.367 OA
HETATM    9  C8  UNL     1      14.892  -4.719  -2.459  1.00  0.00     0.120 C 
HETATM   10  C13 UNL     1      15.761  -5.898  -2.861  1.00  0.00     0.023 C 
HETATM   11  C14 UNL     1      16.999  -5.993  -2.020  1.00  0.00     0.026 C 
HETATM   12  C15 UNL     1      17.750  -7.227  -2.378  1.00  0.00     0.009 C 
HETATM   13  C16 UNL     1      17.157  -7.941  -3.600  1.00  0.00     0.012 C 
HETATM   14  C17 UNL     1      15.758  -8.349  -3.219  1.00  0.00    -0.014 C 
HETATM   15  C18 UNL     1      15.840  -9.336  -2.076  1.00  0.00     0.018 C 
HETATM   16  C19 UNL     1      15.134  -9.039  -4.389  1.00  0.00     0.126 C 
HETATM   17  C20 UNL     1      13.785  -8.409  -4.619  1.00  0.00     0.033 C 
HETATM   18  C21 UNL     1      13.995  -7.014  -4.086  1.00  0.00     0.008 C 
HETATM   19  C22 UNL     1      14.939  -7.150  -2.886  1.00  0.00     0.003 C 
ENDROOT
BRANCH   9  20
HETATM   20  N1  UNL     1      13.959  -5.011  -1.459  1.00  0.00    -0.389 N 
ATOM     21  H1  UNL     1      14.155  -5.716  -0.748  1.00  0.00     0.159 HD
BRANCH  20  22
HETATM   22  C9  UNL     1      12.744  -4.303  -1.459  1.00  0.00     0.113 C 
BRANCH  22  23
HETATM   23  C10 UNL     1      11.788  -4.795  -2.521  1.00  0.00     0.054 A 
HETATM   24  C11 UNL     1      10.877  -5.778  -2.233  1.00  0.00     0.081 A 
HETATM   25  S1  UNL     1      10.072  -5.958  -3.731  1.00  0.00    -0.094 SA
HETATM   26  C12 UNL     1      10.929  -4.791  -4.625  1.00  0.00     0.138 A 
HETATM   27  N2  UNL     1      11.784  -4.321  -3.740  1.00  0.00    -0.358 N 
ATOM     28  H2  UNL     1      12.442  -3.588  -4.006  1.00  0.00     0.166 HD
ENDBRANCH  22  23
ENDBRANCH  20  22
ENDBRANCH   9  20
BRANCH  16  29
HETATM   29  O2  UNL     1      15.887  -8.873  -5.548  1.00  0.00    -0.395 OA
ATOM     30  H2  UNL     1      15.337  -8.826  -6.321  1.00  0.00     0.210 HD
ENDBRANCH  16  29
TORSDOF 4
ENDMDL
MODEL 5
REMARK VINA RESULT: -7.328368225      3.330      5.804
REMARK  4 active torsions:
REMARK  status: ('A' for Active; 'I' for Inactive)
REMARK    1  A    between atoms: C8_9  and  N1_10 
REMARK    2  A    between atoms: N1_10  and  C9_12 
REMARK    3  A    between atoms: C9_12  and  C10_13 
REMARK    4  A    between atoms: C19_25  and  O2_26 
ROOT
HETATM    1  C1  UNL     1      17.049  -4.798  -0.800  1.00  0.00     0.046 C 
HETATM    2  C2  UNL     1      16.198  -4.622  -2.047  1.00  0.00     0.062 C 
HETATM    3  C3  UNL     1      16.313  -5.902  -2.872  1.00  0.00     0.038 C 
HETATM    4  C4  UNL     1      14.913  -6.424  -3.162  1.00  0.00     0.006 C 
HETATM    5  C5  UNL     1      14.102  -5.252  -3.686  1.00  0.00     0.040 C 
HETATM    6  C6  UNL     1      13.992  -4.179  -2.653  1.00  0.00     0.079 C 
HETATM    7  C7  UNL     1      12.611  -4.284  -2.036  1.00  0.00     0.048 C 
HETATM    8  O1  UNL     1      14.898  -4.486  -1.626  1.00  0.00    -0.367 OA
HETATM    9  C8  UNL     1      14.247  -2.796  -3.145  1.00  0.00     0.120 C 
HETATM   10  C13 UNL     1      15.615  -2.356  -2.656  1.00  0.00     0.023 C 
HETATM   11  C14 UNL     1      16.652  -3.420  -2.862  1.00  0.00     0.026 C 
HETATM   12  C15 UNL     1      17.989  -2.892  -2.475  1.00  0.00     0.009 C 
HETATM   13  C16 UNL     1      17.907  -1.507  -1.820  1.00  0.00     0.012 C 
HETATM   14  C17 UNL     1      17.329  -0.579  -2.855  1.00  0.00    -0.014 C 
HETATM   15  C18 UNL     1      18.289  -0.504  -4.022  1.00  0.00     0.018 C 
HETATM   16  C19 UNL     1      17.218   0.785  -2.255  1.00  0.00     0.126 C 
HETATM   17  C20 UNL     1      15.821   1.283  -2.519  1.00  0.00     0.033 C 
HETATM   18  C21 UNL     1      15.038  -0.004  -2.600  1.00  0.00     0.008 C 
HETATM   19  C22 UNL     1      15.967  -1.030  -3.258  1.00  0.00     0.003 C 
ENDROOT
BRANCH   9  20
HETATM   20  N1  UNL     1      14.000  -2.507  -4.491  1.00  0.00    -0.389 N 
ATOM     21  H1  UNL     1      14.681  -2.746  -5.212  1.00  0.00     0.159 HD
BRANCH  20  22
HETATM   22  C9  UNL     1      12.786  -1.879  -4.822  1.00  0.00     0.113 C 
BRANCH  22  23
HETATM   23  C10 UNL     1      12.645  -1.639  -6.308  1.00  0.00     0.054 A 
HETATM   24  C11 UNL     1      13.619  -0.964  -6.997  1.00  0.00     0.081 A 
HETATM   25  S1  UNL     1      12.987  -0.964  -8.586  1.00  0.00    -0.094 SA
HETATM   26  C12 UNL     1      11.541  -1.810  -8.286  1.00  0.00     0.138 A 
HETATM   27  N2  UNL     1      11.610  -2.052  -6.994  1.00  0.00    -0.358 N 
ATOM     28  H2  UNL     1      10.858  -2.559  -6.528  1.00  0.00     0.166 HD
ENDBRANCH  22  23
ENDBRANCH  20  22
ENDBRANCH   9  20
BRANCH  16  29
HETATM   29  O2  UNL     1      17.409   0.759  -0.876  1.00  0.00    -0.395 OA
ATOM     30  H2  UNL     1      16.866   1.401  -0.434  1.00  0.00     0.210 HD
ENDBRANCH  16  29
TORSDOF 4
ENDMDL
