MODEL 1
REMARK VINA RESULT: -8.034108130      0.000      0.000
REMARK  3 active torsions:
REMARK  status: ('A' for Active; 'I' for Inactive)
REMARK    1  A    between atoms: C17_22  and  O3_23 
REMARK    2  A    between atoms: O3_23  and  C18_24 
REMARK    3  A    between atoms: C18_24  and  C19_26 
ROOT
HETATM    1  C1  UNL     1      18.312  -1.603  -3.869  1.00  0.00     0.027 C 
HETATM    2  C2  UNL     1      17.392  -1.957  -3.012  1.00  0.00     0.038 C 
HETATM    3  C3  UNL     1      16.046  -1.416  -3.183  1.00  0.00     0.292 C 
HETATM    4  O1  UNL     1      15.819  -0.275  -3.626  1.00  0.00    -0.259 OA
HETATM    5  O2  UNL     1      15.003  -2.312  -2.796  1.00  0.00    -0.279 OA
HETATM    6  C4  UNL     1      15.583  -3.542  -2.418  1.00  0.00     0.363 C 
HETATM    7  N1  UNL     1      16.442  -3.169  -1.268  1.00  0.00    -0.036 N 
ATOM      8  H11 UNL     1      16.483  -3.863  -0.522  1.00  0.00     0.281 HD
ATOM      9  H12 UNL     1      16.073  -2.416  -0.686  1.00  0.00     0.281 HD
HETATM   10  C5  UNL     1      17.728  -2.877  -1.903  1.00  0.00     0.227 C 
HETATM   11  C6  UNL     1      18.256  -4.227  -2.342  1.00  0.00     0.042 C 
HETATM   12  C7  UNL     1      17.784  -5.357  -1.502  1.00  0.00     0.036 C 
HETATM   13  C8  UNL     1      17.180  -6.543  -2.266  1.00  0.00    -0.078 C 
HETATM   14  C9  UNL     1      17.684  -6.583  -3.652  1.00  0.00     0.044 C 
HETATM   15  C10 UNL     1      15.766  -6.809  -1.951  1.00  0.00    -0.035 C 
HETATM   16  C11 UNL     1      15.314  -8.226  -1.979  1.00  0.00     0.039 C 
HETATM   17  C12 UNL     1      15.183  -8.939  -3.250  1.00  0.00     0.012 C 
HETATM   18  C13 UNL     1      14.218  -8.428  -4.259  1.00  0.00     0.004 C 
HETATM   19  C14 UNL     1      14.372  -9.320  -5.500  1.00  0.00     0.014 C 
HETATM   20  C15 UNL     1      14.414  -7.049  -4.710  1.00  0.00    -0.023 C 
HETATM   21  C16 UNL     1      14.624  -5.924  -3.992  1.00  0.00     0.017 C 
HETATM   22  C17 UNL     1      14.691  -5.932  -2.515  1.00  0.00     0.139 C 
HETATM   23  C22 UNL     1      14.700  -4.575  -1.897  1.00  0.00     0.010 C 
HETATM   24  C23 UNL     1      13.959  -4.257  -0.854  1.00  0.00     0.022 C 
ENDROOT
BRANCH  22  25
HETATM   25  O3  UNL     1      13.463  -6.526  -2.130  1.00  0.00    -0.293 OA
BRANCH  25  26
HETATM   26  C18 UNL     1      12.262  -5.817  -2.334  1.00  0.00     0.284 C 
HETATM   27  O4  UNL     1      11.489  -5.696  -1.361  1.00  0.00    -0.260 OA
BRANCH  26  28
HETATM   28  C19 UNL     1      12.008  -5.280  -3.652  1.00  0.00     0.078 C 
HETATM   29  C20 UNL     1      10.896  -5.508  -4.296  1.00  0.00    -0.025 C 
HETATM   30  C21 UNL     1       9.806  -6.328  -3.746  1.00  0.00     0.036 C 
ENDBRANCH  26  28
ENDBRANCH  25  26
ENDBRANCH  22  25
TORSDOF 3
ENDMDL
MODEL 2
REMARK VINA RESULT: -7.824658246      2.363      4.682
REMARK  3 active torsions:
REMARK  status: ('A' for Active; 'I' for Inactive)
REMARK    1  A    between atoms: C17_22  and  O3_23 
REMARK    2  A    between atoms: O3_23  and  C18_24 
REMARK    3  A    between atoms: C18_24  and  C19_26 
ROOT
HETATM    1  C1  UNL     1      12.881  -1.869  -6.874  1.00  0.00     0.027 C 
HETATM    2  C2  UNL     1      12.552  -2.466  -5.760  1.00  0.00     0.038 C 
HETATM    3  C3  UNL     1      11.965  -3.802  -5.842  1.00  0.00     0.292 C 
HETATM    4  O1  UNL     1      11.225  -4.167  -6.774  1.00  0.00    -0.259 OA
HETATM    5  O2  UNL     1      12.315  -4.661  -4.756  1.00  0.00    -0.279 OA
HETATM    6  C4  UNL     1      13.225  -3.980  -3.918  1.00  0.00     0.363 C 
HETATM    7  N1  UNL     1      12.445  -2.804  -3.461  1.00  0.00    -0.036 N 
ATOM      8  H11 UNL     1      12.622  -2.523  -2.497  1.00  0.00     0.281 HD
ATOM      9  H12 UNL     1      11.447  -2.976  -3.335  1.00  0.00     0.281 HD
HETATM   10  C5  UNL     1      12.770  -1.788  -4.464  1.00  0.00     0.227 C 
HETATM   11  C6  UNL     1      14.211  -1.415  -4.182  1.00  0.00     0.042 C 
HETATM   12  C7  UNL     1      14.607  -1.587  -2.761  1.00  0.00     0.036 C 
HETATM   13  C8  UNL     1      15.892  -2.391  -2.525  1.00  0.00    -0.078 C 
HETATM   14  C9  UNL     1      16.760  -2.353  -3.717  1.00  0.00     0.044 C 
HETATM   15  C10 UNL     1      15.696  -3.630  -1.752  1.00  0.00    -0.035 C 
HETATM   16  C11 UNL     1      16.801  -4.056  -0.851  1.00  0.00     0.039 C 
HETATM   17  C12 UNL     1      18.052  -4.576  -1.404  1.00  0.00     0.012 C 
HETATM   18  C13 UNL     1      18.008  -5.816  -2.223  1.00  0.00     0.004 C 
HETATM   19  C14 UNL     1      19.440  -6.056  -2.728  1.00  0.00     0.014 C 
HETATM   20  C15 UNL     1      17.149  -5.785  -3.409  1.00  0.00    -0.023 C 
HETATM   21  C16 UNL     1      15.871  -5.368  -3.542  1.00  0.00     0.017 C 
HETATM   22  C17 UNL     1      15.092  -4.836  -2.403  1.00  0.00     0.139 C 
HETATM   23  C22 UNL     1      13.642  -4.643  -2.692  1.00  0.00     0.010 C 
HETATM   24  C23 UNL     1      12.690  -5.018  -1.862  1.00  0.00     0.022 C 
ENDROOT
BRANCH  22  25
HETATM   25  O3  UNL     1      15.162  -5.873  -1.439  1.00  0.00    -0.293 OA
BRANCH  25  26
HETATM   26  C18 UNL     1      14.873  -7.197  -1.831  1.00  0.00     0.284 C 
HETATM   27  O4  UNL     1      13.992  -7.363  -2.700  1.00  0.00    -0.260 OA
BRANCH  26  28
HETATM   28  C19 UNL     1      15.615  -8.266  -1.201  1.00  0.00     0.078 C 
HETATM   29  C20 UNL     1      16.228  -9.190  -1.891  1.00  0.00    -0.025 C 
HETATM   30  C21 UNL     1      16.220  -9.228  -3.361  1.00  0.00     0.036 C 
ENDBRANCH  26  28
ENDBRANCH  25  26
ENDBRANCH  22  25
TORSDOF 3
ENDMDL
MODEL 3
REMARK VINA RESULT: -7.521417572      1.500      1.940
REMARK  3 active torsions:
REMARK  status: ('A' for Active; 'I' for Inactive)
REMARK    1  A    between atoms: C17_22  and  O3_23 
REMARK    2  A    between atoms: O3_23  and  C18_24 
REMARK    3  A    between atoms: C18_24  and  C19_26 
ROOT
HETATM    1  C1  UNL     1      17.141  -0.835  -4.508  1.00  0.00     0.027 C 
HETATM    2  C2  UNL     1      15.981  -1.182  -4.018  1.00  0.00     0.038 C 
HETATM    3  C3  UNL     1      14.833  -1.213  -4.922  1.00  0.00     0.292 C 
HETATM    4  O1  UNL     1      14.691  -0.425  -5.875  1.00  0.00    -0.259 OA
HETATM    5  O2  UNL     1      13.879  -2.233  -4.618  1.00  0.00    -0.279 OA
HETATM    6  C4  UNL     1      14.370  -3.001  -3.540  1.00  0.00     0.363 C 
HETATM    7  N1  UNL     1      14.481  -2.008  -2.444  1.00  0.00    -0.036 N 
ATOM      8  H11 UNL     1      14.249  -2.367  -1.518  1.00  0.00     0.281 HD
ATOM      9  H12 UNL     1      13.767  -1.280  -2.453  1.00  0.00     0.281 HD
HETATM   10  C5  UNL     1      15.855  -1.522  -2.584  1.00  0.00     0.227 C 
HETATM   11  C6  UNL     1      16.722  -2.679  -2.132  1.00  0.00     0.042 C 
HETATM   12  C7  UNL     1      16.067  -3.565  -1.137  1.00  0.00     0.036 C 
HETATM   13  C8  UNL     1      16.102  -5.064  -1.461  1.00  0.00    -0.078 C 
HETATM   14  C9  UNL     1      17.225  -5.378  -2.364  1.00  0.00     0.044 C 
HETATM   15  C10 UNL     1      14.773  -5.675  -1.640  1.00  0.00    -0.035 C 
HETATM   16  C11 UNL     1      14.607  -7.089  -1.209  1.00  0.00     0.039 C 
HETATM   17  C12 UNL     1      15.229  -8.175  -1.968  1.00  0.00     0.012 C 
HETATM   18  C13 UNL     1      14.826  -8.376  -3.384  1.00  0.00     0.004 C 
HETATM   19  C14 UNL     1      15.703  -9.514  -3.929  1.00  0.00     0.014 C 
HETATM   20  C15 UNL     1      15.015  -7.238  -4.285  1.00  0.00    -0.023 C 
HETATM   21  C16 UNL     1      14.676  -5.940  -4.125  1.00  0.00     0.017 C 
HETATM   22  C17 UNL     1      14.003  -5.446  -2.904  1.00  0.00     0.139 C 
HETATM   23  C22 UNL     1      13.507  -4.044  -3.005  1.00  0.00     0.010 C 
HETATM   24  C23 UNL     1      12.309  -3.676  -2.594  1.00  0.00     0.022 C 
ENDROOT
BRANCH  22  25
HETATM   25  O3  UNL     1      12.848  -6.261  -2.808  1.00  0.00    -0.293 OA
BRANCH  25  26
HETATM   26  C18 UNL     1      11.870  -6.192  -3.821  1.00  0.00     0.284 C 
HETATM   27  O4  UNL     1      12.264  -6.016  -4.993  1.00  0.00    -0.260 OA
BRANCH  26  28
HETATM   28  C19 UNL     1      10.484  -6.330  -3.436  1.00  0.00     0.078 C 
HETATM   29  C20 UNL     1       9.525  -5.676  -4.034  1.00  0.00    -0.025 C 
HETATM   30  C21 UNL     1       9.765  -4.744  -5.147  1.00  0.00     0.036 C 
ENDBRANCH  26  28
ENDBRANCH  25  26
ENDBRANCH  22  25
TORSDOF 3
ENDMDL
MODEL 4
REMARK VINA RESULT: -6.532514380      2.043      4.409
REMARK  3 active torsions:
REMARK  status: ('A' for Active; 'I' for Inactive)
REMARK    1  A    between atoms: C17_22  and  O3_23 
REMARK    2  A    between atoms: O3_23  and  C18_24 
REMARK    3  A    between atoms: C18_24  and  C19_26 
ROOT
HETATM    1  C1  UNL     1      18.249  -7.553  -3.695  1.00  0.00     0.027 C 
HETATM    2  C2  UNL     1      17.701  -6.673  -2.900  1.00  0.00     0.038 C 
HETATM    3  C3  UNL     1      18.116  -5.278  -3.026  1.00  0.00     0.292 C 
HETATM    4  O1  UNL     1      19.272  -4.933  -3.334  1.00  0.00    -0.259 OA
HETATM    5  O2  UNL     1      17.077  -4.334  -2.764  1.00  0.00    -0.279 OA
HETATM    6  C4  UNL     1      15.877  -5.039  -2.526  1.00  0.00     0.363 C 
HETATM    7  N1  UNL     1      16.198  -5.851  -1.326  1.00  0.00    -0.036 N 
ATOM      8  H11 UNL     1      15.427  -5.963  -0.668  1.00  0.00     0.281 HD
ATOM      9  H12 UNL     1      16.833  -5.404  -0.665  1.00  0.00     0.281 HD
HETATM   10  C5  UNL     1      16.695  -7.101  -1.904  1.00  0.00     0.227 C 
HETATM   11  C6  UNL     1      15.470  -7.769  -2.492  1.00  0.00     0.042 C 
HETATM   12  C7  UNL     1      14.204  -7.416  -1.799  1.00  0.00     0.036 C 
HETATM   13  C8  UNL     1      13.062  -6.942  -2.707  1.00  0.00    -0.078 C 
HETATM   14  C9  UNL     1      13.240  -7.451  -4.080  1.00  0.00     0.044 C 
HETATM   15  C10 UNL     1      12.615  -5.563  -2.446  1.00  0.00    -0.035 C 
HETATM   16  C11 UNL     1      11.172  -5.263  -2.649  1.00  0.00     0.039 C 
HETATM   17  C12 UNL     1      10.606  -5.210  -3.998  1.00  0.00     0.012 C 
HETATM   18  C13 UNL     1      11.131  -4.199  -4.953  1.00  0.00     0.004 C 
HETATM   19  C14 UNL     1      10.415  -4.450  -6.289  1.00  0.00     0.014 C 
HETATM   20  C15 UNL     1      12.567  -4.250  -5.234  1.00  0.00    -0.023 C 
HETATM   21  C16 UNL     1      13.614  -4.340  -4.385  1.00  0.00     0.017 C 
HETATM   22  C17 UNL     1      13.436  -4.403  -2.918  1.00  0.00     0.139 C 
HETATM   23  C22 UNL     1      14.703  -4.269  -2.144  1.00  0.00     0.010 C 
HETATM   24  C23 UNL     1      14.815  -3.496  -1.082  1.00  0.00     0.022 C 
ENDROOT
BRANCH  22  25
HETATM   25  O3  UNL     1      12.676  -3.244  -2.625  1.00  0.00    -0.293 OA
BRANCH  25  26
HETATM   26  C18 UNL     1      12.969  -2.040  -3.298  1.00  0.00     0.284 C 
HETATM   27  O4  UNL     1      12.028  -1.457  -3.875  1.00  0.00    -0.260 OA
BRANCH  26  28
HETATM   28  C19 UNL     1      14.334  -1.565  -3.273  1.00  0.00     0.078 C 
HETATM   29  C20 UNL     1      14.928  -1.091  -4.335  1.00  0.00    -0.025 C 
HETATM   30  C21 UNL     1      14.267  -0.999  -5.646  1.00  0.00     0.036 C 
ENDBRANCH  26  28
ENDBRANCH  25  26
ENDBRANCH  22  25
TORSDOF 3
ENDMDL
MODEL 5
REMARK VINA RESULT: -6.473936001      3.531      5.085
REMARK  3 active torsions:
REMARK  status: ('A' for Active; 'I' for Inactive)
REMARK    1  A    between atoms: C17_22  and  O3_23 
REMARK    2  A    between atoms: O3_23  and  C18_24 
REMARK    3  A    between atoms: C18_24  and  C19_26 
ROOT
HETATM    1  C1  UNL     1      14.010  -1.309  -8.121  1.00  0.00     0.027 C 
HETATM    2  C2  UNL     1      12.894  -1.878  -7.752  1.00  0.00     0.038 C 
HETATM    3  C3  UNL     1      12.344  -2.933  -8.600  1.00  0.00     0.292 C 
HETATM    4  O1  UNL     1      12.453  -2.940  -9.840  1.00  0.00    -0.259 OA
HETATM    5  O2  UNL     1      11.667  -3.966  -7.882  1.00  0.00    -0.279 OA
HETATM    6  C4  UNL     1      11.791  -3.708  -6.499  1.00  0.00     0.363 C 
HETATM    7  N1  UNL     1      11.118  -2.395  -6.341  1.00  0.00    -0.036 N 
ATOM      8  H11 UNL     1      10.590  -2.288  -5.475  1.00  0.00     0.281 HD
ATOM      9  H12 UNL     1      10.324  -2.245  -6.964  1.00  0.00     0.281 HD
HETATM   10  C5  UNL     1      12.218  -1.444  -6.510  1.00  0.00     0.227 C 
HETATM   11  C6  UNL     1      13.052  -1.592  -5.254  1.00  0.00     0.042 C 
HETATM   12  C7  UNL     1      12.274  -2.028  -4.066  1.00  0.00     0.036 C 
HETATM   13  C8  UNL     1      12.850  -3.227  -3.302  1.00  0.00    -0.078 C 
HETATM   14  C9  UNL     1      14.300  -3.352  -3.540  1.00  0.00     0.044 C 
HETATM   15  C10 UNL     1      11.967  -4.407  -3.274  1.00  0.00    -0.035 C 
HETATM   16  C11 UNL     1      12.004  -5.259  -2.055  1.00  0.00     0.039 C 
HETATM   17  C12 UNL     1      13.167  -6.100  -1.771  1.00  0.00     0.012 C 
HETATM   18  C13 UNL     1      13.530  -7.167  -2.740  1.00  0.00     0.004 C 
HETATM   19  C14 UNL     1      14.826  -7.807  -2.218  1.00  0.00     0.014 C 
HETATM   20  C15 UNL     1      13.803  -6.736  -4.113  1.00  0.00    -0.023 C 
HETATM   21  C16 UNL     1      13.097  -5.914  -4.919  1.00  0.00     0.017 C 
HETATM   22  C17 UNL     1      11.835  -5.277  -4.486  1.00  0.00     0.139 C 
HETATM   23  C22 UNL     1      11.089  -4.593  -5.581  1.00  0.00     0.010 C 
HETATM   24  C23 UNL     1       9.788  -4.719  -5.750  1.00  0.00     0.022 C 
ENDROOT
BRANCH  22  25
HETATM   25  O3  UNL     1      11.028  -6.372  -4.091  1.00  0.00    -0.293 OA
BRANCH  25  26
HETATM   26  C18 UNL     1       9.642  -6.178  -3.915  1.00  0.00     0.284 C 
HETATM   27  O4  UNL     1       9.263  -5.665  -2.842  1.00  0.00    -0.260 OA
BRANCH  26  28
HETATM   28  C19 UNL     1       8.760  -6.583  -4.985  1.00  0.00     0.078 C 
HETATM   29  C20 UNL     1       8.122  -7.722  -4.970  1.00  0.00    -0.025 C 
HETATM   30  C21 UNL     1       8.242  -8.692  -3.871  1.00  0.00     0.036 C 
ENDBRANCH  26  28
ENDBRANCH  25  26
ENDBRANCH  22  25
TORSDOF 3
ENDMDL
