MODEL 1
REMARK VINA RESULT: -8.234791073      0.000      0.000
REMARK  6 active torsions:
REMARK  status: ('A' for Active; 'I' for Inactive)
REMARK    1  A    between atoms: C6_6  and  C8_8 
REMARK    2  A    between atoms: C8_8  and  O1_9 
REMARK    3  A    between atoms: C14_16  and  C15_17 
REMARK    4  A    between atoms: C15_17  and  O3_22 
REMARK    5  A    between atoms: N1_18  and  O2_20 
REMARK    6  A    between atoms: O3_22  and  C16_23 
ROOT
HETATM    1  C1  UNL     1      13.642  -2.985  -4.084  1.00  0.00     0.011 C 
HETATM    2  C2  UNL     1      13.874  -4.081  -3.064  1.00  0.00    -0.006 C 
HETATM    3  C3  UNL     1      15.311  -3.964  -2.656  1.00  0.00     0.005 C 
HETATM    4  C4  UNL     1      15.890  -5.266  -2.149  1.00  0.00     0.006 C 
HETATM    5  C5  UNL     1      15.687  -6.218  -3.276  1.00  0.00     0.005 C 
HETATM    6  C6  UNL     1      16.657  -7.321  -3.306  1.00  0.00    -0.018 C 
HETATM    7  C7  UNL     1      17.131  -7.807  -1.943  1.00  0.00     0.018 C 
HETATM    8  C9  UNL     1      16.281  -8.508  -4.122  1.00  0.00     0.012 C 
HETATM    9  C10 UNL     1      14.822  -8.832  -4.144  1.00  0.00     0.002 C 
HETATM   10  C11 UNL     1      14.055  -7.578  -4.426  1.00  0.00     0.010 C 
HETATM   11  C12 UNL     1      14.224  -6.598  -3.258  1.00  0.00    -0.028 C 
HETATM   12  C13 UNL     1      13.771  -7.188  -1.957  1.00  0.00     0.016 C 
HETATM   13  C14 UNL     1      13.367  -5.385  -3.514  1.00  0.00     0.074 C 
ENDROOT
BRANCH  13  14
HETATM   14  C15 UNL     1      11.928  -5.608  -3.181  1.00  0.00     0.143 C 
HETATM   15  N1  UNL     1      11.302  -5.244  -2.153  1.00  0.00    -0.251 N 
ATOM     16  H1  UNL     1      10.327  -5.539  -2.198  1.00  0.00     0.196 HD
BRANCH  15  17
HETATM   17  O2  UNL     1      11.543  -4.592  -1.039  1.00  0.00    -0.288 OA
ATOM     18  H2  UNL     1      11.056  -4.116  -0.377  1.00  0.00     0.244 HD
ENDBRANCH  15  17
BRANCH  14  19
HETATM   19  O3  UNL     1      11.095  -6.301  -4.074  1.00  0.00    -0.332 OA
BRANCH  19  20
HETATM   20  C16 UNL     1       9.780  -5.971  -4.373  1.00  0.00     0.134 C 
HETATM   21  C17 UNL     1       8.825  -7.115  -4.331  1.00  0.00     0.058 C 
HETATM   22  C18 UNL     1       7.990  -7.339  -5.522  1.00  0.00     0.170 C 
HETATM   23  O4  UNL     1       7.836  -6.305  -6.395  1.00  0.00    -0.391 OA
HETATM   24  C19 UNL     1       8.123  -5.054  -5.920  1.00  0.00     0.170 C 
HETATM   25  C20 UNL     1       9.611  -5.062  -5.559  1.00  0.00     0.058 C 
ENDBRANCH  19  20
ENDBRANCH  14  19
ENDBRANCH  13  14
BRANCH   6  26
HETATM   26  C8  UNL     1      17.940  -6.761  -3.957  1.00  0.00     0.173 C 
BRANCH  26  27
HETATM   27  O1  UNL     1      19.016  -6.851  -3.100  1.00  0.00    -0.400 OA
ATOM     28  H1  UNL     1      19.447  -7.693  -3.177  1.00  0.00     0.209 HD
ENDBRANCH  26  27
ENDBRANCH   6  26
TORSDOF 6
ENDMDL
MODEL 2
REMARK VINA RESULT: -7.952507325      1.151      1.423
REMARK  6 active torsions:
REMARK  status: ('A' for Active; 'I' for Inactive)
REMARK    1  A    between atoms: C6_6  and  C8_8 
REMARK    2  A    between atoms: C8_8  and  O1_9 
REMARK    3  A    between atoms: C14_16  and  C15_17 
REMARK    4  A    between atoms: C15_17  and  O3_22 
REMARK    5  A    between atoms: N1_18  and  O2_20 
REMARK    6  A    between atoms: O3_22  and  C16_23 
ROOT
HETATM    1  C1  UNL     1      14.096  -2.644  -3.741  1.00  0.00     0.011 C 
HETATM    2  C2  UNL     1      14.165  -3.853  -2.831  1.00  0.00    -0.006 C 
HETATM    3  C3  UNL     1      15.592  -3.952  -2.387  1.00  0.00     0.005 C 
HETATM    4  C4  UNL     1      15.996  -5.358  -2.001  1.00  0.00     0.006 C 
HETATM    5  C5  UNL     1      15.714  -6.165  -3.220  1.00  0.00     0.005 C 
HETATM    6  C6  UNL     1      16.547  -7.369  -3.342  1.00  0.00    -0.018 C 
HETATM    7  C7  UNL     1      16.918  -8.039  -2.024  1.00  0.00     0.018 C 
HETATM    8  C9  UNL     1      16.057  -8.418  -4.278  1.00  0.00     0.012 C 
HETATM    9  C10 UNL     1      14.570  -8.558  -4.358  1.00  0.00     0.002 C 
HETATM   10  C11 UNL     1      13.968  -7.199  -4.529  1.00  0.00     0.010 C 
HETATM   11  C12 UNL     1      14.217  -6.364  -3.267  1.00  0.00    -0.028 C 
HETATM   12  C13 UNL     1      13.657  -7.016  -2.040  1.00  0.00     0.016 C 
HETATM   13  C14 UNL     1      13.519  -5.037  -3.418  1.00  0.00     0.074 C 
ENDROOT
BRANCH  13  14
HETATM   14  C15 UNL     1      12.054  -5.114  -3.134  1.00  0.00     0.143 C 
HETATM   15  N1  UNL     1      11.461  -4.911  -2.044  1.00  0.00    -0.251 N 
ATOM     16  H1  UNL     1      10.454  -5.038  -2.150  1.00  0.00     0.196 HD
BRANCH  15  17
HETATM   17  O2  UNL     1      11.764  -4.583  -0.811  1.00  0.00    -0.288 OA
ATOM     18  H2  UNL     1      11.612  -4.911   0.068  1.00  0.00     0.244 HD
ENDBRANCH  15  17
BRANCH  14  19
HETATM   19  O3  UNL     1      11.153  -5.445  -4.159  1.00  0.00    -0.332 OA
BRANCH  19  20
HETATM   20  C16 UNL     1      10.688  -4.576  -5.137  1.00  0.00     0.134 C 
HETATM   21  C17 UNL     1       9.313  -4.872  -5.632  1.00  0.00     0.058 C 
HETATM   22  C18 UNL     1       9.137  -5.015  -7.086  1.00  0.00     0.170 C 
HETATM   23  O4  UNL     1      10.095  -4.489  -7.898  1.00  0.00    -0.391 OA
HETATM   24  C19 UNL     1      10.920  -3.547  -7.344  1.00  0.00     0.170 C 
HETATM   25  C20 UNL     1      11.682  -4.252  -6.218  1.00  0.00     0.058 C 
ENDBRANCH  19  20
ENDBRANCH  14  19
ENDBRANCH  13  14
BRANCH   6  26
HETATM   26  C8  UNL     1      17.906  -6.911  -3.910  1.00  0.00     0.173 C 
BRANCH  26  27
HETATM   27  O1  UNL     1      18.903  -7.008  -2.963  1.00  0.00    -0.400 OA
ATOM     28  H1  UNL     1      18.925  -6.240  -2.406  1.00  0.00     0.209 HD
ENDBRANCH  26  27
ENDBRANCH   6  26
TORSDOF 6
ENDMDL
MODEL 3
REMARK VINA RESULT: -7.864100035      2.525      6.825
REMARK  6 active torsions:
REMARK  status: ('A' for Active; 'I' for Inactive)
REMARK    1  A    between atoms: C6_6  and  C8_8 
REMARK    2  A    between atoms: C8_8  and  O1_9 
REMARK    3  A    between atoms: C14_16  and  C15_17 
REMARK    4  A    between atoms: C15_17  and  O3_22 
REMARK    5  A    between atoms: N1_18  and  O2_20 
REMARK    6  A    between atoms: O3_22  and  C16_23 
ROOT
HETATM    1  C1  UNL     1      16.678  -7.672  -4.859  1.00  0.00     0.011 C 
HETATM    2  C2  UNL     1      15.493  -7.701  -3.917  1.00  0.00    -0.006 C 
HETATM    3  C3  UNL     1      14.304  -8.040  -4.762  1.00  0.00     0.005 C 
HETATM    4  C4  UNL     1      13.001  -7.538  -4.180  1.00  0.00     0.006 C 
HETATM    5  C5  UNL     1      13.207  -6.071  -4.038  1.00  0.00     0.005 C 
HETATM    6  C6  UNL     1      11.965  -5.287  -4.087  1.00  0.00    -0.018 C 
HETATM    7  C7  UNL     1      10.742  -5.971  -3.489  1.00  0.00     0.018 C 
HETATM    8  C9  UNL     1      12.037  -3.902  -3.547  1.00  0.00     0.012 C 
HETATM    9  C10 UNL     1      12.961  -3.715  -2.387  1.00  0.00     0.002 C 
HETATM   10  C11 UNL     1      14.273  -4.359  -2.708  1.00  0.00     0.010 C 
HETATM   11  C12 UNL     1      14.087  -5.877  -2.825  1.00  0.00    -0.028 C 
HETATM   12  C13 UNL     1      13.524  -6.473  -1.570  1.00  0.00     0.016 C 
HETATM   13  C14 UNL     1      15.434  -6.515  -3.050  1.00  0.00     0.074 C 
ENDROOT
BRANCH  13  14
HETATM   14  C15 UNL     1      16.227  -6.661  -1.792  1.00  0.00     0.143 C 
HETATM   15  N1  UNL     1      16.313  -7.664  -1.038  1.00  0.00    -0.251 N 
ATOM     16  H1  UNL     1      16.928  -7.472  -0.248  1.00  0.00     0.196 HD
BRANCH  15  17
HETATM   17  O2  UNL     1      15.838  -8.886  -0.977  1.00  0.00    -0.288 OA
ATOM     18  H2  UNL     1      15.310  -9.412  -0.388  1.00  0.00     0.244 HD
ENDBRANCH  15  17
BRANCH  14  19
HETATM   19  O3  UNL     1      17.006  -5.592  -1.320  1.00  0.00    -0.332 OA
BRANCH  19  20
HETATM   20  C16 UNL     1      17.136  -4.355  -1.937  1.00  0.00     0.134 C 
HETATM   21  C17 UNL     1      18.452  -4.122  -2.597  1.00  0.00     0.058 C 
HETATM   22  C18 UNL     1      19.185  -2.901  -2.227  1.00  0.00     0.170 C 
HETATM   23  O4  UNL     1      18.482  -1.887  -1.649  1.00  0.00    -0.391 OA
HETATM   24  C19 UNL     1      17.123  -1.912  -1.813  1.00  0.00     0.170 C 
HETATM   25  C20 UNL     1      16.631  -3.191  -1.129  1.00  0.00     0.058 C 
ENDBRANCH  19  20
ENDBRANCH  14  19
ENDBRANCH  13  14
BRANCH   6  26
HETATM   26  C8  UNL     1      11.601  -5.132  -5.578  1.00  0.00     0.173 C 
BRANCH  26  27
HETATM   27  O1  UNL     1      12.049  -3.930  -6.081  1.00  0.00    -0.400 OA
ATOM     28  H1  UNL     1      11.349  -3.291  -6.122  1.00  0.00     0.209 HD
ENDBRANCH  26  27
ENDBRANCH   6  26
TORSDOF 6
ENDMDL
MODEL 4
REMARK VINA RESULT: -7.813270903      3.154      5.183
REMARK  6 active torsions:
REMARK  status: ('A' for Active; 'I' for Inactive)
REMARK    1  A    between atoms: C6_6  and  C8_8 
REMARK    2  A    between atoms: C8_8  and  O1_9 
REMARK    3  A    between atoms: C14_16  and  C15_17 
REMARK    4  A    between atoms: C15_17  and  O3_22 
REMARK    5  A    between atoms: N1_18  and  O2_20 
REMARK    6  A    between atoms: O3_22  and  C16_23 
ROOT
HETATM    1  C1  UNL     1      13.281  -4.238  -4.553  1.00  0.00     0.011 C 
HETATM    2  C2  UNL     1      13.865  -3.698  -3.264  1.00  0.00    -0.006 C 
HETATM    3  C3  UNL     1      14.091  -2.235  -3.496  1.00  0.00     0.005 C 
HETATM    4  C4  UNL     1      15.180  -1.657  -2.619  1.00  0.00     0.006 C 
HETATM    5  C5  UNL     1      16.377  -2.483  -2.935  1.00  0.00     0.005 C 
HETATM    6  C6  UNL     1      17.654  -1.789  -2.716  1.00  0.00    -0.018 C 
HETATM    7  C7  UNL     1      17.665  -0.799  -1.558  1.00  0.00     0.018 C 
HETATM    8  C9  UNL     1      18.863  -2.650  -2.607  1.00  0.00     0.012 C 
HETATM    9  C10 UNL     1      18.645  -3.978  -1.957  1.00  0.00     0.002 C 
HETATM   10  C11 UNL     1      17.441  -4.621  -2.569  1.00  0.00     0.010 C 
HETATM   11  C12 UNL     1      16.189  -3.802  -2.224  1.00  0.00    -0.028 C 
HETATM   12  C13 UNL     1      15.996  -3.667  -0.744  1.00  0.00     0.016 C 
HETATM   13  C14 UNL     1      14.978  -4.518  -2.763  1.00  0.00     0.074 C 
ENDROOT
BRANCH  13  14
HETATM   14  C15 UNL     1      14.535  -5.649  -1.895  1.00  0.00     0.143 C 
HETATM   15  N1  UNL     1      13.541  -5.698  -1.126  1.00  0.00    -0.251 N 
ATOM     16  H1  UNL     1      13.489  -6.601  -0.656  1.00  0.00     0.196 HD
BRANCH  15  17
HETATM   17  O2  UNL     1      12.551  -4.919  -0.756  1.00  0.00    -0.288 OA
ATOM     18  H2  UNL     1      12.129  -4.120  -1.051  1.00  0.00     0.244 HD
ENDBRANCH  15  17
BRANCH  14  19
HETATM   19  O3  UNL     1      15.262  -6.851  -1.875  1.00  0.00    -0.332 OA
BRANCH  19  20
HETATM   20  C16 UNL     1      15.211  -7.841  -2.846  1.00  0.00     0.134 C 
HETATM   21  C17 UNL     1      16.466  -8.009  -3.632  1.00  0.00     0.058 C 
HETATM   22  C18 UNL     1      16.355  -7.957  -5.099  1.00  0.00     0.170 C 
HETATM   23  O4  UNL     1      15.128  -8.164  -5.652  1.00  0.00    -0.391 OA
HETATM   24  C19 UNL     1      14.197  -8.783  -4.863  1.00  0.00     0.170 C 
HETATM   25  C20 UNL     1      13.954  -7.850  -3.673  1.00  0.00     0.058 C 
ENDBRANCH  19  20
ENDBRANCH  14  19
ENDBRANCH  13  14
BRANCH   6  26
HETATM   26  C8  UNL     1      17.890  -0.899  -3.955  1.00  0.00     0.173 C 
BRANCH  26  27
HETATM   27  O1  UNL     1      18.620  -1.563  -4.917  1.00  0.00    -0.400 OA
ATOM     28  H1  UNL     1      18.970  -0.960  -5.561  1.00  0.00     0.209 HD
ENDBRANCH  26  27
ENDBRANCH   6  26
TORSDOF 6
ENDMDL
MODEL 5
REMARK VINA RESULT: -7.671857183      2.456      6.862
REMARK  6 active torsions:
REMARK  status: ('A' for Active; 'I' for Inactive)
REMARK    1  A    between atoms: C6_6  and  C8_8 
REMARK    2  A    between atoms: C8_8  and  O1_9 
REMARK    3  A    between atoms: C14_16  and  C15_17 
REMARK    4  A    between atoms: C15_17  and  O3_22 
REMARK    5  A    between atoms: N1_18  and  O2_20 
REMARK    6  A    between atoms: O3_22  and  C16_23 
ROOT
HETATM    1  C1  UNL     1      16.213  -8.063  -5.229  1.00  0.00     0.011 C 
HETATM    2  C2  UNL     1      15.295  -7.742  -4.068  1.00  0.00    -0.006 C 
HETATM    3  C3  UNL     1      13.908  -8.047  -4.545  1.00  0.00     0.005 C 
HETATM    4  C4  UNL     1      12.844  -7.259  -3.815  1.00  0.00     0.006 C 
HETATM    5  C5  UNL     1      13.229  -5.838  -4.035  1.00  0.00     0.005 C 
HETATM    6  C6  UNL     1      12.100  -4.899  -3.980  1.00  0.00    -0.018 C 
HETATM    7  C7  UNL     1      10.993  -5.270  -3.001  1.00  0.00     0.018 C 
HETATM    8  C9  UNL     1      12.443  -3.465  -3.776  1.00  0.00     0.012 C 
HETATM    9  C10 UNL     1      13.634  -3.210  -2.909  1.00  0.00     0.002 C 
HETATM   10  C11 UNL     1      14.756  -4.091  -3.363  1.00  0.00     0.010 C 
HETATM   11  C12 UNL     1      14.391  -5.560  -3.111  1.00  0.00    -0.028 C 
HETATM   12  C13 UNL     1      14.090  -5.825  -1.667  1.00  0.00     0.016 C 
HETATM   13  C14 UNL     1      15.570  -6.422  -3.481  1.00  0.00     0.074 C 
ENDROOT
BRANCH  13  14
HETATM   14  C15 UNL     1      16.624  -6.454  -2.423  1.00  0.00     0.143 C 
HETATM   15  N1  UNL     1      16.614  -7.080  -1.332  1.00  0.00    -0.251 N 
ATOM     16  H1  UNL     1      17.473  -6.910  -0.808  1.00  0.00     0.196 HD
BRANCH  15  17
HETATM   17  O2  UNL     1      15.817  -7.890  -0.676  1.00  0.00    -0.288 OA
ATOM     18  H2  UNL     1      15.031  -7.834  -0.144  1.00  0.00     0.244 HD
ENDBRANCH  15  17
BRANCH  14  19
HETATM   19  O3  UNL     1      17.811  -5.721  -2.587  1.00  0.00    -0.332 OA
BRANCH  19  20
HETATM   20  C16 UNL     1      18.144  -4.561  -1.900  1.00  0.00     0.134 C 
HETATM   21  C17 UNL     1      17.223  -4.210  -0.783  1.00  0.00     0.058 C 
HETATM   22  C18 UNL     1      16.648  -2.856  -0.783  1.00  0.00     0.170 C 
HETATM   23  O4  UNL     1      17.270  -1.900  -1.528  1.00  0.00    -0.391 OA
HETATM   24  C19 UNL     1      18.566  -2.152  -1.888  1.00  0.00     0.170 C 
HETATM   25  C20 UNL     1      18.531  -3.400  -2.775  1.00  0.00     0.058 C 
ENDBRANCH  19  20
ENDBRANCH  14  19
ENDBRANCH  13  14
BRANCH   6  26
HETATM   26  C8  UNL     1      11.403  -4.966  -5.355  1.00  0.00     0.173 C 
BRANCH  26  27
HETATM   27  O1  UNL     1      10.292  -4.151  -5.394  1.00  0.00    -0.400 OA
ATOM     28  H1  UNL     1       9.552  -4.596  -5.787  1.00  0.00     0.209 HD
ENDBRANCH  26  27
ENDBRANCH   6  26
TORSDOF 6
ENDMDL
