MODEL 1
REMARK VINA RESULT: -10.780069096      0.000      0.000
REMARK  11 active torsions:
REMARK  status: ('A' for Active; 'I' for Inactive)
REMARK    1  A    between atoms: N1_1  and  C1_4 
REMARK    2  A    between atoms: C2_7  and  O1_8 
REMARK    3  A    between atoms: O1_8  and  C3_9 
REMARK    4  A    between atoms: N5_16  and  C6_18 
REMARK    5  A    between atoms: N7_22  and  C8_23 
REMARK    6  A    between atoms: C8_23  and  N8_24 
REMARK    7  A    between atoms: N13_39  and  C14_41 
REMARK    8  A    between atoms: C14_41  and  C15_42 
REMARK    9  A    between atoms: C15_42  and  C16_43 
REMARK   10  A    between atoms: C18_45  and  O2_46 
REMARK   11  A    between atoms: C20_49  and  O3_50 
ROOT
HETATM    1  C3  UNL     1     -12.921  -0.235  10.731  1.00  0.00     0.246 A 
HETATM    2  N3  UNL     1     -13.227   0.615  11.733  1.00  0.00    -0.317 N 
ATOM      3  H3  UNL     1     -13.659   1.510  11.503  1.00  0.00     0.170 HD
HETATM    4  C4  UNL     1     -12.984   0.329  13.021  1.00  0.00     0.201 A 
HETATM    5  N4  UNL     1     -12.405  -0.869  13.289  1.00  0.00    -0.187 N 
ATOM      6  H4  UNL     1     -12.207  -1.119  14.257  1.00  0.00     0.185 HD
HETATM    7  C5  UNL     1     -12.089  -1.732  12.317  1.00  0.00     0.700 A 
HETATM    8  N5  UNL     1     -11.534  -2.855  12.597  1.00  0.00    -0.021 N 
ATOM      9  H5  UNL     1     -11.309  -3.487  11.830  1.00  0.00     0.203 HD
HETATM   10  N11 UNL     1     -12.343  -1.422  11.042  1.00  0.00    -0.154 N 
ATOM     11  H11 UNL     1     -12.103  -2.080  10.300  1.00  0.00     0.188 HD
ENDROOT
BRANCH   1  12
HETATM   12  O1  UNL     1     -13.156   0.029   9.396  1.00  0.00    -0.245 OA
BRANCH  12  13
HETATM   13  C2  UNL     1     -14.196  -0.563   8.700  1.00  0.00     0.260 A 
HETATM   14  N2  UNL     1     -13.927  -1.098   7.468  1.00  0.00    -0.154 N 
HETATM   15  C1  UNL     1     -14.872  -1.692   6.723  1.00  0.00     0.693 A 
ATOM     16  H2  UNL     1     -12.975  -1.044   7.105  1.00  0.00     0.188 HD
HETATM   17  N14 UNL     1     -16.118  -1.760   7.208  1.00  0.00    -0.022 N 
HETATM   18  C13 UNL     1     -16.452  -1.242   8.436  1.00  0.00     0.695 A 
ATOM     19  H14 UNL     1     -16.842  -2.211   6.648  1.00  0.00     0.203 HD
HETATM   20  N12 UNL     1     -15.461  -0.661   9.132  1.00  0.00    -0.153 N 
HETATM   21  N13 UNL     1     -17.641  -1.343   8.826  1.00  0.00    -0.225 N 
ATOM     22  H12 UNL     1     -15.684  -0.270  10.047  1.00  0.00     0.188 HD
ATOM     23  H13 UNL     1     -18.255  -1.819   8.166  1.00  0.00     0.177 HD
BRANCH  15  24
HETATM   24  N1  UNL     1     -14.521  -2.163   5.580  1.00  0.00    -0.234 N 
ATOM     25  H12 UNL     1     -13.578  -2.483   5.362  1.00  0.00     0.174 HD
ATOM     26  H11 UNL     1     -15.233  -2.217   4.852  1.00  0.00     0.174 HD
ENDBRANCH  15  24
BRANCH  21  27
HETATM   27  C14 UNL     1     -18.289  -0.919  10.010  1.00  0.00     0.142 C 
BRANCH  27  28
HETATM   28  C15 UNL     1     -18.347  -2.025  11.056  1.00  0.00     0.059 C 
BRANCH  28  29
HETATM   29  C16 UNL     1     -18.411  -1.458  12.425  1.00  0.00    -0.051 A 
HETATM   30  C17 UNL     1     -17.929  -0.178  12.600  1.00  0.00     0.043 A 
HETATM   31  C18 UNL     1     -17.979   0.346  13.876  1.00  0.00     0.068 A 
HETATM   32  C19 UNL     1     -18.485  -0.354  14.945  1.00  0.00     0.073 A 
HETATM   33  C20 UNL     1     -18.964  -1.651  14.729  1.00  0.00     0.068 A 
HETATM   34  C21 UNL     1     -18.926  -2.200  13.463  1.00  0.00     0.043 A 
BRANCH  31  35
HETATM   35  O2  UNL     1     -17.497   1.632  14.056  1.00  0.00    -0.361 OA
ATOM     36  H2  UNL     1     -17.268   1.892  14.941  1.00  0.00     0.217 HD
ENDBRANCH  31  35
BRANCH  33  37
HETATM   37  O3  UNL     1     -19.471  -2.354  15.803  1.00  0.00    -0.361 OA
ATOM     38  H3  UNL     1     -20.029  -3.104  15.632  1.00  0.00     0.217 HD
ENDBRANCH  33  37
ENDBRANCH  28  29
ENDBRANCH  27  28
ENDBRANCH  21  27
ENDBRANCH  12  13
ENDBRANCH   1  12
BRANCH   8  39
HETATM   39  C6  UNL     1     -11.217  -3.259  13.912  1.00  0.00     0.712 A 
HETATM   40  N6  UNL     1     -10.051  -3.202  14.565  1.00  0.00    -0.184 N 
HETATM   41  C7  UNL     1     -10.190  -3.691  15.810  1.00  0.00     0.220 A 
ATOM     42  H6  UNL     1      -9.181  -2.841  14.175  1.00  0.00     0.185 HD
HETATM   43  N7  UNL     1     -11.490  -4.060  15.925  1.00  0.00    -0.245 N 
HETATM   44  N10 UNL     1     -12.084  -3.794  14.779  1.00  0.00    -0.127 N 
ATOM     45  H10 UNL     1     -13.068  -3.970  14.582  1.00  0.00     0.206 HD
BRANCH  43  46
HETATM   46  C8  UNL     1     -12.091  -4.632  17.098  1.00  0.00     0.422 C 
BRANCH  46  47
HETATM   47  N8  UNL     1     -12.026  -3.798  18.270  1.00  0.00     0.110 N 
HETATM   48  C9  UNL     1     -10.922  -4.138  19.153  1.00  0.00     0.302 C 
HETATM   49  C10 UNL     1     -10.874  -3.027  20.195  1.00  0.00     0.262 C 
HETATM   50  N9  UNL     1     -12.045  -2.183  20.143  1.00  0.00    -0.072 N 
HETATM   51  C11 UNL     1     -13.226  -3.014  20.217  1.00  0.00     0.262 C 
ATOM     52  H92 UNL     1     -12.034  -1.458  20.861  1.00  0.00     0.277 HD
ATOM     53  H91 UNL     1     -12.050  -1.573  19.326  1.00  0.00     0.277 HD
HETATM   54  C12 UNL     1     -13.246  -3.985  19.052  1.00  0.00     0.302 C 
ENDBRANCH  46  47
ENDBRANCH  43  46
ENDBRANCH   8  39
TORSDOF 11
ENDMDL
MODEL 2
REMARK VINA RESULT: -10.764472335      0.125      1.349
REMARK  11 active torsions:
REMARK  status: ('A' for Active; 'I' for Inactive)
REMARK    1  A    between atoms: N1_1  and  C1_4 
REMARK    2  A    between atoms: C2_7  and  O1_8 
REMARK    3  A    between atoms: O1_8  and  C3_9 
REMARK    4  A    between atoms: N5_16  and  C6_18 
REMARK    5  A    between atoms: N7_22  and  C8_23 
REMARK    6  A    between atoms: C8_23  and  N8_24 
REMARK    7  A    between atoms: N13_39  and  C14_41 
REMARK    8  A    between atoms: C14_41  and  C15_42 
REMARK    9  A    between atoms: C15_42  and  C16_43 
REMARK   10  A    between atoms: C18_45  and  O2_46 
REMARK   11  A    between atoms: C20_49  and  O3_50 
ROOT
HETATM    1  C3  UNL     1     -12.871  -0.213  10.732  1.00  0.00     0.246 A 
HETATM    2  N3  UNL     1     -13.205   0.626  11.736  1.00  0.00    -0.317 N 
ATOM      3  H3  UNL     1     -13.638   1.520  11.504  1.00  0.00     0.170 HD
HETATM    4  C4  UNL     1     -12.989   0.329  13.026  1.00  0.00     0.201 A 
HETATM    5  N4  UNL     1     -12.409  -0.869  13.295  1.00  0.00    -0.187 N 
ATOM      6  H4  UNL     1     -12.230  -1.126  14.265  1.00  0.00     0.185 HD
HETATM    7  C5  UNL     1     -12.066  -1.720  12.322  1.00  0.00     0.700 A 
HETATM    8  N5  UNL     1     -11.509  -2.841  12.604  1.00  0.00    -0.021 N 
ATOM      9  H5  UNL     1     -11.263  -3.465  11.835  1.00  0.00     0.203 HD
HETATM   10  N11 UNL     1     -12.293  -1.399  11.044  1.00  0.00    -0.154 N 
ATOM     11  H11 UNL     1     -12.032  -2.048  10.302  1.00  0.00     0.188 HD
ENDROOT
BRANCH   1  12
HETATM   12  O1  UNL     1     -13.079   0.063   9.395  1.00  0.00    -0.245 OA
BRANCH  12  13
HETATM   13  C2  UNL     1     -14.098  -0.530   8.670  1.00  0.00     0.260 A 
HETATM   14  N2  UNL     1     -13.794  -1.061   7.444  1.00  0.00    -0.154 N 
HETATM   15  C1  UNL     1     -14.717  -1.655   6.672  1.00  0.00     0.693 A 
ATOM     16  H2  UNL     1     -12.833  -1.002   7.107  1.00  0.00     0.188 HD
HETATM   17  N14 UNL     1     -15.976  -1.729   7.124  1.00  0.00    -0.022 N 
HETATM   18  C13 UNL     1     -16.343  -1.215   8.344  1.00  0.00     0.695 A 
ATOM     19  H14 UNL     1     -16.683  -2.180   6.544  1.00  0.00     0.203 HD
HETATM   20  N12 UNL     1     -15.373  -0.633   9.067  1.00  0.00    -0.153 N 
HETATM   21  N13 UNL     1     -17.542  -1.321   8.701  1.00  0.00    -0.225 N 
ATOM     22  H12 UNL     1     -15.622  -0.246   9.977  1.00  0.00     0.188 HD
ATOM     23  H13 UNL     1     -18.137  -1.798   8.024  1.00  0.00     0.177 HD
BRANCH  15  24
HETATM   24  N1  UNL     1     -14.334  -2.121   5.538  1.00  0.00    -0.234 N 
ATOM     25  H12 UNL     1     -13.731  -1.616   4.889  1.00  0.00     0.174 HD
ATOM     26  H11 UNL     1     -14.656  -3.053   5.276  1.00  0.00     0.174 HD
ENDBRANCH  15  24
BRANCH  21  27
HETATM   27  C14 UNL     1     -18.223  -0.903   9.869  1.00  0.00     0.142 C 
BRANCH  27  28
HETATM   28  C15 UNL     1     -18.327  -2.020  10.900  1.00  0.00     0.059 C 
BRANCH  28  29
HETATM   29  C16 UNL     1     -18.388  -1.468  12.276  1.00  0.00    -0.051 A 
HETATM   30  C17 UNL     1     -18.937  -2.272  13.252  1.00  0.00     0.043 A 
HETATM   31  C18 UNL     1     -19.003  -1.754  14.531  1.00  0.00     0.068 A 
HETATM   32  C19 UNL     1     -18.546  -0.497  14.846  1.00  0.00     0.073 A 
HETATM   33  C20 UNL     1     -17.995   0.289  13.827  1.00  0.00     0.068 A 
HETATM   34  C21 UNL     1     -17.917  -0.203  12.540  1.00  0.00     0.043 A 
BRANCH  31  35
HETATM   35  O2  UNL     1     -19.553  -2.559  15.515  1.00  0.00    -0.361 OA
ATOM     36  H2  UNL     1     -19.534  -2.231  16.407  1.00  0.00     0.217 HD
ENDBRANCH  31  35
BRANCH  33  37
HETATM   37  O3  UNL     1     -17.537   1.552  14.144  1.00  0.00    -0.361 OA
ATOM     38  H3  UNL     1     -17.606   2.237  13.490  1.00  0.00     0.217 HD
ENDBRANCH  33  37
ENDBRANCH  28  29
ENDBRANCH  27  28
ENDBRANCH  21  27
ENDBRANCH  12  13
ENDBRANCH   1  12
BRANCH   8  39
HETATM   39  C6  UNL     1     -11.219  -3.256  13.921  1.00  0.00     0.712 A 
HETATM   40  N6  UNL     1     -10.062  -3.224  14.592  1.00  0.00    -0.184 N 
HETATM   41  C7  UNL     1     -10.228  -3.714  15.833  1.00  0.00     0.220 A 
ATOM     42  H6  UNL     1      -9.180  -2.877  14.216  1.00  0.00     0.185 HD
HETATM   43  N7  UNL     1     -11.536  -4.060  15.927  1.00  0.00    -0.245 N 
HETATM   44  N10 UNL     1     -12.108  -3.778  14.774  1.00  0.00    -0.127 N 
ATOM     45  H10 UNL     1     -13.093  -3.935  14.562  1.00  0.00     0.206 HD
BRANCH  43  46
HETATM   46  C8  UNL     1     -12.165  -4.625  17.089  1.00  0.00     0.422 C 
BRANCH  46  47
HETATM   47  N8  UNL     1     -12.080  -3.808  18.271  1.00  0.00     0.110 N 
HETATM   48  C9  UNL     1     -10.956  -4.153  19.126  1.00  0.00     0.302 C 
HETATM   49  C10 UNL     1     -10.891  -3.057  20.182  1.00  0.00     0.262 C 
HETATM   50  N9  UNL     1     -12.069  -2.220  20.168  1.00  0.00    -0.072 N 
HETATM   51  C11 UNL     1     -13.243  -3.060  20.255  1.00  0.00     0.262 C 
ATOM     52  H92 UNL     1     -12.048  -1.505  20.896  1.00  0.00     0.277 HD
ATOM     53  H91 UNL     1     -12.096  -1.599  19.360  1.00  0.00     0.277 HD
HETATM   54  C12 UNL     1     -13.282  -4.014  19.076  1.00  0.00     0.302 C 
ENDBRANCH  46  47
ENDBRANCH  43  46
ENDBRANCH   8  39
TORSDOF 11
ENDMDL
MODEL 3
REMARK VINA RESULT: -10.468653403      1.645      2.638
REMARK  11 active torsions:
REMARK  status: ('A' for Active; 'I' for Inactive)
REMARK    1  A    between atoms: N1_1  and  C1_4 
REMARK    2  A    between atoms: C2_7  and  O1_8 
REMARK    3  A    between atoms: O1_8  and  C3_9 
REMARK    4  A    between atoms: N5_16  and  C6_18 
REMARK    5  A    between atoms: N7_22  and  C8_23 
REMARK    6  A    between atoms: C8_23  and  N8_24 
REMARK    7  A    between atoms: N13_39  and  C14_41 
REMARK    8  A    between atoms: C14_41  and  C15_42 
REMARK    9  A    between atoms: C15_42  and  C16_43 
REMARK   10  A    between atoms: C18_45  and  O2_46 
REMARK   11  A    between atoms: C20_49  and  O3_50 
ROOT
HETATM    1  C3  UNL     1     -11.373  -1.098  11.474  1.00  0.00     0.246 A 
HETATM    2  N3  UNL     1     -12.139  -0.191  12.118  1.00  0.00    -0.317 N 
ATOM      3  H3  UNL     1     -12.396   0.667  11.632  1.00  0.00     0.170 HD
HETATM    4  C4  UNL     1     -12.573  -0.377  13.374  1.00  0.00     0.201 A 
HETATM    5  N4  UNL     1     -12.208  -1.531  13.989  1.00  0.00    -0.187 N 
ATOM      6  H4  UNL     1     -12.521  -1.704  14.944  1.00  0.00     0.185 HD
HETATM    7  C5  UNL     1     -11.450  -2.446  13.377  1.00  0.00     0.700 A 
HETATM    8  N5  UNL     1     -11.112  -3.525  13.986  1.00  0.00    -0.021 N 
ATOM      9  H5  UNL     1     -10.534  -4.200  13.486  1.00  0.00     0.203 HD
HETATM   10  N11 UNL     1     -11.031  -2.237  12.125  1.00  0.00    -0.154 N 
ATOM     11  H11 UNL     1     -10.453  -2.935  11.658  1.00  0.00     0.188 HD
ENDROOT
BRANCH   1  12
HETATM   12  O1  UNL     1     -10.909  -0.938  10.184  1.00  0.00    -0.245 OA
BRANCH  12  13
HETATM   13  C2  UNL     1     -11.763  -0.855   9.097  1.00  0.00     0.260 A 
HETATM   14  N2  UNL     1     -11.261  -1.143   7.856  1.00  0.00    -0.154 N 
HETATM   15  C1  UNL     1     -12.015  -1.090   6.747  1.00  0.00     0.693 A 
ATOM     16  H2  UNL     1     -10.279  -1.407   7.772  1.00  0.00     0.188 HD
HETATM   17  N14 UNL     1     -13.303  -0.744   6.868  1.00  0.00    -0.022 N 
HETATM   18  C13 UNL     1     -13.866  -0.442   8.084  1.00  0.00     0.695 A 
ATOM     19  H14 UNL     1     -13.884  -0.702   6.030  1.00  0.00     0.203 HD
HETATM   20  N12 UNL     1     -13.058  -0.514   9.154  1.00  0.00    -0.153 N 
HETATM   21  N13 UNL     1     -15.081  -0.125   8.120  1.00  0.00    -0.225 N 
ATOM     22  H12 UNL     1     -13.455  -0.296  10.068  1.00  0.00     0.188 HD
ATOM     23  H13 UNL     1     -15.537  -0.129   7.208  1.00  0.00     0.177 HD
BRANCH  15  24
HETATM   24  N1  UNL     1     -11.451  -1.377   5.630  1.00  0.00    -0.234 N 
ATOM     25  H12 UNL     1     -11.260  -2.329   5.316  1.00  0.00     0.174 HD
ATOM     26  H11 UNL     1     -11.182  -0.603   5.022  1.00  0.00     0.174 HD
ENDBRANCH  15  24
BRANCH  21  27
HETATM   27  C14 UNL     1     -15.934   0.235   9.189  1.00  0.00     0.142 C 
BRANCH  27  28
HETATM   28  C15 UNL     1     -16.914  -0.879   9.539  1.00  0.00     0.059 C 
BRANCH  28  29
HETATM   29  C16 UNL     1     -17.342  -0.784  10.955  1.00  0.00    -0.051 A 
HETATM   30  C17 UNL     1     -18.080  -1.833  11.461  1.00  0.00     0.043 A 
HETATM   31  C18 UNL     1     -18.488  -1.739  12.777  1.00  0.00     0.068 A 
HETATM   32  C19 UNL     1     -18.184  -0.660  13.572  1.00  0.00     0.073 A 
HETATM   33  C20 UNL     1     -17.435   0.387  13.022  1.00  0.00     0.068 A 
HETATM   34  C21 UNL     1     -17.014   0.319  11.709  1.00  0.00     0.043 A 
BRANCH  31  35
HETATM   35  O2  UNL     1     -19.227  -2.792  13.290  1.00  0.00    -0.361 OA
ATOM     36  H2  UNL     1     -20.097  -2.594  13.618  1.00  0.00     0.217 HD
ENDBRANCH  31  35
BRANCH  33  37
HETATM   37  O3  UNL     1     -17.131   1.471  13.820  1.00  0.00    -0.361 OA
ATOM     38  H3  UNL     1     -17.762   2.178  13.885  1.00  0.00     0.217 HD
ENDBRANCH  33  37
ENDBRANCH  28  29
ENDBRANCH  27  28
ENDBRANCH  21  27
ENDBRANCH  12  13
ENDBRANCH   1  12
BRANCH   8  39
HETATM   39  C6  UNL     1     -11.496  -3.823  15.311  1.00  0.00     0.712 A 
HETATM   40  N6  UNL     1     -12.540  -4.530  15.758  1.00  0.00    -0.184 N 
HETATM   41  C7  UNL     1     -12.531  -4.576  17.102  1.00  0.00     0.220 A 
ATOM     42  H6  UNL     1     -13.243  -4.971  15.165  1.00  0.00     0.185 HD
HETATM   43  N7  UNL     1     -11.440  -3.872  17.494  1.00  0.00    -0.245 N 
HETATM   44  N10 UNL     1     -10.838  -3.431  16.407  1.00  0.00    -0.127 N 
ATOM     45  H10 UNL     1      -9.987  -2.870  16.404  1.00  0.00     0.206 HD
BRANCH  43  46
HETATM   46  C8  UNL     1     -11.031  -3.661  18.854  1.00  0.00     0.422 C 
BRANCH  46  47
HETATM   47  N8  UNL     1     -11.980  -4.110  19.840  1.00  0.00     0.110 N 
HETATM   48  C9  UNL     1     -13.069  -3.172  20.055  1.00  0.00     0.302 C 
HETATM   49  C10 UNL     1     -14.074  -3.904  20.936  1.00  0.00     0.262 C 
HETATM   50  N9  UNL     1     -13.529  -5.128  21.478  1.00  0.00    -0.072 N 
HETATM   51  C11 UNL     1     -12.272  -4.835  22.128  1.00  0.00     0.262 C 
ATOM     52  H92 UNL     1     -14.185  -5.605  22.096  1.00  0.00     0.277 HD
ATOM     53  H91 UNL     1     -13.440  -5.860  20.773  1.00  0.00     0.277 HD
HETATM   54  C12 UNL     1     -11.299  -4.245  21.126  1.00  0.00     0.302 C 
ENDBRANCH  46  47
ENDBRANCH  43  46
ENDBRANCH   8  39
TORSDOF 11
ENDMDL
MODEL 4
REMARK VINA RESULT: -10.413040680      1.652      2.338
REMARK  11 active torsions:
REMARK  status: ('A' for Active; 'I' for Inactive)
REMARK    1  A    between atoms: N1_1  and  C1_4 
REMARK    2  A    between atoms: C2_7  and  O1_8 
REMARK    3  A    between atoms: O1_8  and  C3_9 
REMARK    4  A    between atoms: N5_16  and  C6_18 
REMARK    5  A    between atoms: N7_22  and  C8_23 
REMARK    6  A    between atoms: C8_23  and  N8_24 
REMARK    7  A    between atoms: N13_39  and  C14_41 
REMARK    8  A    between atoms: C14_41  and  C15_42 
REMARK    9  A    between atoms: C15_42  and  C16_43 
REMARK   10  A    between atoms: C18_45  and  O2_46 
REMARK   11  A    between atoms: C20_49  and  O3_50 
ROOT
HETATM    1  C3  UNL     1     -11.352  -1.142  11.427  1.00  0.00     0.246 A 
HETATM    2  N3  UNL     1     -12.124  -0.232  12.057  1.00  0.00    -0.317 N 
ATOM      3  H3  UNL     1     -12.381   0.621  11.560  1.00  0.00     0.170 HD
HETATM    4  C4  UNL     1     -12.565  -0.405  13.312  1.00  0.00     0.201 A 
HETATM    5  N4  UNL     1     -12.201  -1.551  13.942  1.00  0.00    -0.187 N 
ATOM      6  H4  UNL     1     -12.520  -1.715  14.897  1.00  0.00     0.185 HD
HETATM    7  C5  UNL     1     -11.436  -2.471  13.345  1.00  0.00     0.700 A 
HETATM    8  N5  UNL     1     -11.098  -3.541  13.967  1.00  0.00    -0.021 N 
ATOM      9  H5  UNL     1     -10.515  -4.221  13.478  1.00  0.00     0.203 HD
HETATM   10  N11 UNL     1     -11.010  -2.273  12.093  1.00  0.00    -0.154 N 
ATOM     11  H11 UNL     1     -10.427  -2.975  11.637  1.00  0.00     0.188 HD
ENDROOT
BRANCH   1  12
HETATM   12  O1  UNL     1     -10.880  -0.995  10.139  1.00  0.00    -0.245 OA
BRANCH  12  13
HETATM   13  C2  UNL     1     -11.726  -0.948   9.044  1.00  0.00     0.260 A 
HETATM   14  N2  UNL     1     -11.216  -1.281   7.817  1.00  0.00    -0.154 N 
HETATM   15  C1  UNL     1     -11.962  -1.266   6.702  1.00  0.00     0.693 A 
ATOM     16  H2  UNL     1     -10.234  -1.550   7.750  1.00  0.00     0.188 HD
HETATM   17  N14 UNL     1     -13.250  -0.912   6.801  1.00  0.00    -0.022 N 
HETATM   18  C13 UNL     1     -13.821  -0.567   8.002  1.00  0.00     0.695 A 
ATOM     19  H14 UNL     1     -13.825  -0.899   5.958  1.00  0.00     0.203 HD
HETATM   20  N12 UNL     1     -13.020  -0.603   9.080  1.00  0.00    -0.153 N 
HETATM   21  N13 UNL     1     -15.035  -0.247   8.018  1.00  0.00    -0.225 N 
ATOM     22  H12 UNL     1     -13.423  -0.352   9.982  1.00  0.00     0.188 HD
ATOM     23  H13 UNL     1     -15.485  -0.281   7.104  1.00  0.00     0.177 HD
BRANCH  15  24
HETATM   24  N1  UNL     1     -11.391  -1.593   5.599  1.00  0.00    -0.234 N 
ATOM     25  H12 UNL     1     -10.762  -2.389   5.498  1.00  0.00     0.174 HD
ATOM     26  H11 UNL     1     -11.583  -1.019   4.778  1.00  0.00     0.174 HD
ENDBRANCH  15  24
BRANCH  21  27
HETATM   27  C14 UNL     1     -15.895   0.153   9.068  1.00  0.00     0.142 C 
BRANCH  27  28
HETATM   28  C15 UNL     1     -16.950  -0.903   9.375  1.00  0.00     0.059 C 
BRANCH  28  29
HETATM   29  C16 UNL     1     -17.372  -0.833  10.795  1.00  0.00    -0.051 A 
HETATM   30  C17 UNL     1     -16.990   0.281  11.512  1.00  0.00     0.043 A 
HETATM   31  C18 UNL     1     -17.375   0.340  12.837  1.00  0.00     0.068 A 
HETATM   32  C19 UNL     1     -18.109  -0.652  13.440  1.00  0.00     0.073 A 
HETATM   33  C20 UNL     1     -18.478  -1.769  12.680  1.00  0.00     0.068 A 
HETATM   34  C21 UNL     1     -18.107  -1.854  11.353  1.00  0.00     0.043 A 
BRANCH  31  35
HETATM   35  O2  UNL     1     -16.994   1.458  13.560  1.00  0.00    -0.361 OA
ATOM     36  H2  UNL     1     -17.325   2.299  13.269  1.00  0.00     0.217 HD
ENDBRANCH  31  35
BRANCH  33  37
HETATM   37  O3  UNL     1     -19.215  -2.766  13.287  1.00  0.00    -0.361 OA
ATOM     38  H3  UNL     1     -19.313  -3.596  12.836  1.00  0.00     0.217 HD
ENDBRANCH  33  37
ENDBRANCH  28  29
ENDBRANCH  27  28
ENDBRANCH  21  27
ENDBRANCH  12  13
ENDBRANCH   1  12
BRANCH   8  39
HETATM   39  C6  UNL     1     -11.490  -3.827  15.292  1.00  0.00     0.712 A 
HETATM   40  N6  UNL     1     -12.544  -4.518  15.741  1.00  0.00    -0.184 N 
HETATM   41  C7  UNL     1     -12.539  -4.556  17.085  1.00  0.00     0.220 A 
ATOM     42  H6  UNL     1     -13.250  -4.955  15.149  1.00  0.00     0.185 HD
HETATM   43  N7  UNL     1     -11.441  -3.862  17.476  1.00  0.00    -0.245 N 
HETATM   44  N10 UNL     1     -10.830  -3.436  16.389  1.00  0.00    -0.127 N 
ATOM     45  H10 UNL     1      -9.972  -2.885  16.384  1.00  0.00     0.206 HD
BRANCH  43  46
HETATM   46  C8  UNL     1     -11.033  -3.649  18.836  1.00  0.00     0.422 C 
BRANCH  46  47
HETATM   47  N8  UNL     1     -11.974  -4.112  19.822  1.00  0.00     0.110 N 
HETATM   48  C9  UNL     1     -13.094  -3.206  20.015  1.00  0.00     0.302 C 
HETATM   49  C10 UNL     1     -14.082  -3.957  20.901  1.00  0.00     0.262 C 
HETATM   50  N9  UNL     1     -13.502  -5.154  21.465  1.00  0.00    -0.072 N 
HETATM   51  C11 UNL     1     -12.260  -4.812  22.120  1.00  0.00     0.262 C 
ATOM     52  H92 UNL     1     -14.147  -5.643  22.086  1.00  0.00     0.277 HD
ATOM     53  H91 UNL     1     -13.385  -5.894  20.772  1.00  0.00     0.277 HD
HETATM   54  C12 UNL     1     -11.299  -4.206  21.114  1.00  0.00     0.302 C 
ENDBRANCH  46  47
ENDBRANCH  43  46
ENDBRANCH   8  39
TORSDOF 11
ENDMDL
MODEL 5
REMARK VINA RESULT: -10.181511755      3.872     10.484
REMARK  11 active torsions:
REMARK  status: ('A' for Active; 'I' for Inactive)
REMARK    1  A    between atoms: N1_1  and  C1_4 
REMARK    2  A    between atoms: C2_7  and  O1_8 
REMARK    3  A    between atoms: O1_8  and  C3_9 
REMARK    4  A    between atoms: N5_16  and  C6_18 
REMARK    5  A    between atoms: N7_22  and  C8_23 
REMARK    6  A    between atoms: C8_23  and  N8_24 
REMARK    7  A    between atoms: N13_39  and  C14_41 
REMARK    8  A    between atoms: C14_41  and  C15_42 
REMARK    9  A    between atoms: C15_42  and  C16_43 
REMARK   10  A    between atoms: C18_45  and  O2_46 
REMARK   11  A    between atoms: C20_49  and  O3_50 
ROOT
HETATM    1  C3  UNL     1     -14.484  -1.159   7.766  1.00  0.00     0.246 A 
HETATM    2  N3  UNL     1     -15.684  -1.426   8.324  1.00  0.00    -0.317 N 
ATOM      3  H3  UNL     1     -15.867  -1.098   9.273  1.00  0.00     0.170 HD
HETATM    4  C4  UNL     1     -16.644  -2.106   7.680  1.00  0.00     0.201 A 
HETATM    5  N4  UNL     1     -16.362  -2.528   6.421  1.00  0.00    -0.187 N 
ATOM      6  H4  UNL     1     -17.070  -3.048   5.903  1.00  0.00     0.185 HD
HETATM    7  C5  UNL     1     -15.183  -2.280   5.842  1.00  0.00     0.700 A 
HETATM    8  N5  UNL     1     -14.940  -2.700   4.653  1.00  0.00    -0.021 N 
ATOM      9  H5  UNL     1     -14.029  -2.490   4.244  1.00  0.00     0.203 HD
HETATM   10  N11 UNL     1     -14.244  -1.599   6.506  1.00  0.00    -0.154 N 
ATOM     11  H11 UNL     1     -13.344  -1.410   6.065  1.00  0.00     0.188 HD
ENDROOT
BRANCH   1  12
HETATM   12  O1  UNL     1     -13.475  -0.464   8.401  1.00  0.00    -0.245 OA
BRANCH  12  13
HETATM   13  C2  UNL     1     -13.423  -0.331   9.778  1.00  0.00     0.260 A 
HETATM   14  N2  UNL     1     -12.295  -0.757  10.427  1.00  0.00    -0.154 N 
HETATM   15  C1  UNL     1     -12.157  -0.667  11.759  1.00  0.00     0.693 A 
ATOM     16  H2  UNL     1     -11.534  -1.157   9.879  1.00  0.00     0.188 HD
HETATM   17  N14 UNL     1     -13.162  -0.140  12.471  1.00  0.00    -0.022 N 
HETATM   18  C13 UNL     1     -14.319   0.305  11.879  1.00  0.00     0.695 A 
ATOM     19  H14 UNL     1     -13.065  -0.066  13.483  1.00  0.00     0.203 HD
HETATM   20  N12 UNL     1     -14.394   0.187  10.543  1.00  0.00    -0.153 N 
HETATM   21  N13 UNL     1     -15.218   0.788  12.610  1.00  0.00    -0.225 N 
ATOM     22  H12 UNL     1     -15.244   0.512  10.081  1.00  0.00     0.188 HD
ATOM     23  H13 UNL     1     -14.984   0.802  13.602  1.00  0.00     0.177 HD
BRANCH  15  24
HETATM   24  N1  UNL     1     -11.061  -1.095  12.275  1.00  0.00    -0.234 N 
ATOM     25  H12 UNL     1     -10.173  -1.130  11.776  1.00  0.00     0.174 HD
ATOM     26  H11 UNL     1     -11.088  -1.418  13.242  1.00  0.00     0.174 HD
ENDBRANCH  15  24
BRANCH  21  27
HETATM   27  C14 UNL     1     -16.497   1.318  12.314  1.00  0.00     0.142 C 
BRANCH  27  28
HETATM   28  C15 UNL     1     -17.446   1.217  13.502  1.00  0.00     0.059 C 
BRANCH  28  29
HETATM   29  C16 UNL     1     -18.029  -0.143  13.602  1.00  0.00    -0.051 A 
HETATM   30  C17 UNL     1     -18.558  -0.513  14.821  1.00  0.00     0.043 A 
HETATM   31  C18 UNL     1     -19.091  -1.783  14.917  1.00  0.00     0.068 A 
HETATM   32  C19 UNL     1     -19.110  -2.660  13.860  1.00  0.00     0.073 A 
HETATM   33  C20 UNL     1     -18.562  -2.249  12.639  1.00  0.00     0.068 A 
HETATM   34  C21 UNL     1     -18.022  -0.985  12.514  1.00  0.00     0.043 A 
BRANCH  31  35
HETATM   35  O2  UNL     1     -19.625  -2.158  16.139  1.00  0.00    -0.361 OA
ATOM     36  H2  UNL     1     -19.939  -3.050  16.221  1.00  0.00     0.217 HD
ENDBRANCH  31  35
BRANCH  33  37
HETATM   37  O3  UNL     1     -18.580  -3.132  11.578  1.00  0.00    -0.361 OA
ATOM     38  H3  UNL     1     -17.764  -3.537  11.310  1.00  0.00     0.217 HD
ENDBRANCH  33  37
ENDBRANCH  28  29
ENDBRANCH  27  28
ENDBRANCH  21  27
ENDBRANCH  12  13
ENDBRANCH   1  12
BRANCH   8  39
HETATM   39  C6  UNL     1     -15.865  -3.437   3.884  1.00  0.00     0.712 A 
HETATM   40  N6  UNL     1     -15.850  -4.728   3.535  1.00  0.00    -0.184 N 
HETATM   41  C7  UNL     1     -16.934  -5.025   2.798  1.00  0.00     0.220 A 
ATOM     42  H6  UNL     1     -15.120  -5.393   3.791  1.00  0.00     0.185 HD
HETATM   43  N7  UNL     1     -17.642  -3.873   2.691  1.00  0.00    -0.245 N 
HETATM   44  N10 UNL     1     -16.985  -2.938   3.347  1.00  0.00    -0.127 N 
ATOM     45  H10 UNL     1     -17.288  -1.969   3.433  1.00  0.00     0.206 HD
BRANCH  43  46
HETATM   46  C8  UNL     1     -18.886  -3.724   1.989  1.00  0.00     0.422 C 
BRANCH  46  47
HETATM   47  N8  UNL     1     -19.219  -2.366   1.645  1.00  0.00     0.110 N 
HETATM   48  C9  UNL     1     -20.492  -2.246   0.954  1.00  0.00     0.302 C 
HETATM   49  C10 UNL     1     -20.781  -0.752   0.881  1.00  0.00     0.262 C 
HETATM   50  N9  UNL     1     -19.631   0.041   1.253  1.00  0.00    -0.072 N 
HETATM   51  C11 UNL     1     -18.495  -0.382   0.466  1.00  0.00     0.262 C 
ATOM     52  H92 UNL     1     -19.808   1.043   1.173  1.00  0.00     0.277 HD
ATOM     53  H91 UNL     1     -19.444   0.009   2.255  1.00  0.00     0.277 HD
HETATM   54  C12 UNL     1     -18.207  -1.849   0.726  1.00  0.00     0.302 C 
ENDBRANCH  46  47
ENDBRANCH  43  46
ENDBRANCH   8  39
TORSDOF 11
ENDMDL
