MODEL 1
REMARK VINA RESULT: -9.995228359      0.000      0.000
REMARK  15 active torsions:
REMARK  status: ('A' for Active; 'I' for Inactive)
REMARK    1  A    between atoms: O1_2  and  C2_3 
REMARK    2  A    between atoms: C2_3  and  C3_5 
REMARK    3  A    between atoms: C5_7  and  C6_8 
REMARK    4  A    between atoms: C11_16  and  N2_17 
REMARK    5  A    between atoms: N2_17  and  C12_19 
REMARK    6  A    between atoms: C13_22  and  N4_23 
REMARK    7  A    between atoms: N4_23  and  C14_25 
REMARK    8  A    between atoms: C14_25  and  N5_26 
REMARK    9  A    between atoms: C14_25  and  C15_30 
REMARK   10  A    between atoms: C15_30  and  O3_31 
REMARK   11  A    between atoms: C15_30  and  C16_33 
REMARK   12  A    between atoms: C16_33  and  O4_35 
REMARK   13  A    between atoms: N8_42  and  C20_44 
REMARK   14  A    between atoms: C20_44  and  C21_45 
REMARK   15  A    between atoms: C21_45  and  O5_46 
ROOT
HETATM    1  C16 UNL     1      -9.416  -5.141   6.604  1.00  0.00     0.171 C 
HETATM    2  C17 UNL     1      -8.288  -5.851   5.894  1.00  0.00     0.065 C 
HETATM    3  C18 UNL     1      -8.950  -3.759   6.884  1.00  0.00     0.100 C 
HETATM    4  N6  UNL     1      -8.590  -2.679   7.085  1.00  0.00    -0.194 NA
ENDROOT
BRANCH   1   5
HETATM    5  C15 UNL     1     -10.657  -5.016   5.784  1.00  0.00     0.216 C 
BRANCH   5   6
HETATM    6  C14 UNL     1     -11.659  -4.046   6.331  1.00  0.00     0.329 C 
BRANCH   6   7
HETATM    7  N4  UNL     1     -12.330  -3.329   5.273  1.00  0.00    -0.193 N 
ATOM      8  H4  UNL     1     -11.857  -3.245   4.373  1.00  0.00     0.180 HD
BRANCH   7   9
HETATM    9  C13 UNL     1     -13.500  -2.787   5.401  1.00  0.00     0.709 A 
HETATM   10  N3  UNL     1     -13.760  -1.775   6.207  1.00  0.00    -0.021 N 
HETATM   11  C12 UNL     1     -15.031  -1.236   6.302  1.00  0.00     0.712 A 
ATOM     12  H3  UNL     1     -13.008  -1.381   6.772  1.00  0.00     0.203 HD
HETATM   13  N9  UNL     1     -15.977  -1.773   5.554  1.00  0.00    -0.021 N 
HETATM   14  C19 UNL     1     -15.741  -2.829   4.702  1.00  0.00     0.707 A 
ATOM     15  H9  UNL     1     -16.921  -1.390   5.609  1.00  0.00     0.203 HD
HETATM   16  N7  UNL     1     -14.491  -3.296   4.663  1.00  0.00    -0.021 N 
HETATM   17  N8  UNL     1     -16.707  -3.305   3.999  1.00  0.00    -0.223 N 
ATOM     18  H7  UNL     1     -14.283  -4.077   4.043  1.00  0.00     0.203 HD
ATOM     19  H8  UNL     1     -17.644  -2.907   4.069  1.00  0.00     0.177 HD
BRANCH  11  20
HETATM   20  N2  UNL     1     -15.156  -0.168   7.198  1.00  0.00    -0.183 N 
ATOM     21  H2  UNL     1     -14.990   0.770   6.832  1.00  0.00     0.185 HD
BRANCH  20  22
HETATM   22  C11 UNL     1     -15.492  -0.277   8.565  1.00  0.00     0.107 A 
HETATM   23  C3  UNL     1     -14.694  -0.057   9.681  1.00  0.00     0.075 A 
HETATM   24  C4  UNL     1     -15.273  -0.233  10.877  1.00  0.00     0.040 A 
HETATM   25  C5  UNL     1     -16.576  -0.607  10.927  1.00  0.00     0.018 A 
HETATM   26  S1  UNL     1     -16.993  -0.713   9.302  1.00  0.00    -0.070 SA
BRANCH  23  27
HETATM   27  C2  UNL     1     -13.271   0.352   9.552  1.00  0.00     0.295 C 
HETATM   28  O2  UNL     1     -12.723   1.260  10.160  1.00  0.00    -0.259 OA
BRANCH  27  29
HETATM   29  O1  UNL     1     -12.450  -0.354   8.652  1.00  0.00    -0.322 OA
HETATM   30  C1  UNL     1     -11.634  -1.429   9.107  1.00  0.00     0.213 C 
ENDBRANCH  27  29
ENDBRANCH  23  27
BRANCH  25  31
HETATM   31  C6  UNL     1     -17.422  -0.860  12.115  1.00  0.00    -0.016 A 
HETATM   32  C7  UNL     1     -18.177  -1.989  12.152  1.00  0.00     0.030 A 
HETATM   33  C8  UNL     1     -18.965  -2.234  13.249  1.00  0.00     0.088 A 
HETATM   34  N1  UNL     1     -18.969  -1.354  14.255  1.00  0.00    -0.375 N 
HETATM   35  C9  UNL     1     -18.235  -0.239  14.241  1.00  0.00     0.088 A 
ATOM     36  H1  UNL     1     -19.558  -1.542  15.067  1.00  0.00     0.164 HD
HETATM   37  C10 UNL     1     -17.431   0.031  13.145  1.00  0.00     0.030 A 
ENDBRANCH  25  31
ENDBRANCH  20  22
ENDBRANCH  11  20
BRANCH  17  38
HETATM   38  C20 UNL     1     -16.444  -4.415   3.107  1.00  0.00     0.164 C 
BRANCH  38  39
HETATM   39  C21 UNL     1     -17.358  -4.330   1.900  1.00  0.00     0.184 C 
BRANCH  39  40
HETATM   40  O5  UNL     1     -18.181  -5.461   1.928  1.00  0.00    -0.399 OA
ATOM     41  H5  UNL     1     -18.833  -5.348   1.247  1.00  0.00     0.209 HD
ENDBRANCH  39  40
ENDBRANCH  38  39
ENDBRANCH  17  38
ENDBRANCH   7   9
ENDBRANCH   6   7
BRANCH   6  42
HETATM   42  N5  UNL     1     -12.631  -4.664   7.201  1.00  0.00    -0.055 N 
ATOM     43  H53 UNL     1     -12.238  -5.453   7.715  1.00  0.00     0.276 HD
ATOM     44  H52 UNL     1     -12.863  -4.070   7.997  1.00  0.00     0.276 HD
ATOM     45  H51 UNL     1     -13.458  -4.928   6.667  1.00  0.00     0.276 HD
ENDBRANCH   6  42
ENDBRANCH   5   6
BRANCH   5  46
HETATM   46  O3  UNL     1     -10.293  -4.581   4.515  1.00  0.00    -0.388 OA
ATOM     47  H3  UNL     1     -10.748  -5.123   3.880  1.00  0.00     0.210 HD
ENDBRANCH   5  46
ENDBRANCH   1   5
BRANCH   1  48
HETATM   48  O4  UNL     1      -9.631  -5.724   7.844  1.00  0.00    -0.373 OA
ATOM     49  H4  UNL     1      -8.871  -6.180   8.184  1.00  0.00     0.212 HD
ENDBRANCH   1  48
TORSDOF 15
ENDMDL
MODEL 2
REMARK VINA RESULT: -9.646049977      1.736      2.312
REMARK  15 active torsions:
REMARK  status: ('A' for Active; 'I' for Inactive)
REMARK    1  A    between atoms: O1_2  and  C2_3 
REMARK    2  A    between atoms: C2_3  and  C3_5 
REMARK    3  A    between atoms: C5_7  and  C6_8 
REMARK    4  A    between atoms: C11_16  and  N2_17 
REMARK    5  A    between atoms: N2_17  and  C12_19 
REMARK    6  A    between atoms: C13_22  and  N4_23 
REMARK    7  A    between atoms: N4_23  and  C14_25 
REMARK    8  A    between atoms: C14_25  and  N5_26 
REMARK    9  A    between atoms: C14_25  and  C15_30 
REMARK   10  A    between atoms: C15_30  and  O3_31 
REMARK   11  A    between atoms: C15_30  and  C16_33 
REMARK   12  A    between atoms: C16_33  and  O4_35 
REMARK   13  A    between atoms: N8_42  and  C20_44 
REMARK   14  A    between atoms: C20_44  and  C21_45 
REMARK   15  A    between atoms: C21_45  and  O5_46 
ROOT
HETATM    1  C16 UNL     1     -11.077  -4.385   5.771  1.00  0.00     0.171 C 
HETATM    2  C17 UNL     1     -11.444  -3.579   4.549  1.00  0.00     0.065 C 
HETATM    3  C18 UNL     1     -10.033  -5.355   5.354  1.00  0.00     0.100 C 
HETATM    4  N6  UNL     1      -9.209  -6.098   5.028  1.00  0.00    -0.194 NA
ENDROOT
BRANCH   1   5
HETATM    5  C15 UNL     1     -10.486  -3.570   6.873  1.00  0.00     0.216 C 
BRANCH   5   6
HETATM    6  C14 UNL     1     -11.299  -2.370   7.253  1.00  0.00     0.329 C 
BRANCH   6   7
HETATM    7  N4  UNL     1     -12.611  -2.750   7.721  1.00  0.00    -0.193 N 
ATOM      8  H4  UNL     1     -12.680  -3.517   8.388  1.00  0.00     0.180 HD
BRANCH   7   9
HETATM    9  C13 UNL     1     -13.705  -2.169   7.341  1.00  0.00     0.709 A 
HETATM   10  N3  UNL     1     -14.281  -1.178   7.994  1.00  0.00    -0.021 N 
HETATM   11  C12 UNL     1     -15.451  -0.597   7.538  1.00  0.00     0.712 A 
ATOM     12  H3  UNL     1     -13.853  -0.832   8.853  1.00  0.00     0.203 HD
HETATM   13  N9  UNL     1     -15.972  -1.071   6.421  1.00  0.00    -0.021 N 
HETATM   14  C19 UNL     1     -15.398  -2.104   5.714  1.00  0.00     0.707 A 
ATOM     15  H9  UNL     1     -16.834  -0.656   6.069  1.00  0.00     0.203 HD
HETATM   16  N7  UNL     1     -14.271  -2.615   6.214  1.00  0.00    -0.021 N 
HETATM   17  N8  UNL     1     -15.956  -2.520   4.633  1.00  0.00    -0.223 N 
ATOM     18  H7  UNL     1     -13.821  -3.382   5.715  1.00  0.00     0.203 HD
ATOM     19  H8  UNL     1     -16.819  -2.090   4.297  1.00  0.00     0.177 HD
BRANCH  11  20
HETATM   20  N2  UNL     1     -15.945   0.443   8.335  1.00  0.00    -0.183 N 
ATOM     21  H2  UNL     1     -15.977   1.374   7.919  1.00  0.00     0.185 HD
BRANCH  20  22
HETATM   22  C11 UNL     1     -16.402   0.314   9.664  1.00  0.00     0.107 A 
HETATM   23  C3  UNL     1     -16.137   1.124  10.761  1.00  0.00     0.075 A 
HETATM   24  C4  UNL     1     -16.707   0.769  11.921  1.00  0.00     0.040 A 
HETATM   25  C5  UNL     1     -17.492  -0.337  11.955  1.00  0.00     0.018 A 
HETATM   26  S1  UNL     1     -17.434  -0.880  10.366  1.00  0.00    -0.070 SA
BRANCH  23  27
HETATM   27  C2  UNL     1     -15.265   2.323  10.651  1.00  0.00     0.295 C 
HETATM   28  O2  UNL     1     -15.432   3.391  11.223  1.00  0.00    -0.259 OA
BRANCH  27  29
HETATM   29  O1  UNL     1     -14.133   2.254   9.817  1.00  0.00    -0.322 OA
HETATM   30  C1  UNL     1     -13.021   1.438  10.173  1.00  0.00     0.213 C 
ENDBRANCH  27  29
ENDBRANCH  23  27
BRANCH  25  31
HETATM   31  C6  UNL     1     -18.219  -0.921  13.104  1.00  0.00    -0.016 A 
HETATM   32  C7  UNL     1     -18.968  -2.037  12.906  1.00  0.00     0.030 A 
HETATM   33  C8  UNL     1     -19.647  -2.587  13.964  1.00  0.00     0.088 A 
HETATM   34  N1  UNL     1     -19.554  -2.010  15.167  1.00  0.00    -0.375 N 
HETATM   35  C9  UNL     1     -18.823  -0.914  15.385  1.00  0.00     0.088 A 
ATOM     36  H1  UNL     1     -20.061  -2.424  15.949  1.00  0.00     0.164 HD
HETATM   37  C10 UNL     1     -18.129  -0.339  14.333  1.00  0.00     0.030 A 
ENDBRANCH  25  31
ENDBRANCH  20  22
ENDBRANCH  11  20
BRANCH  17  38
HETATM   38  C20 UNL     1     -15.342  -3.607   3.900  1.00  0.00     0.164 C 
BRANCH  38  39
HETATM   39  C21 UNL     1     -16.385  -4.305   3.050  1.00  0.00     0.184 C 
BRANCH  39  40
HETATM   40  O5  UNL     1     -15.789  -5.464   2.539  1.00  0.00    -0.399 OA
ATOM     41  H5  UNL     1     -16.244  -6.204   2.922  1.00  0.00     0.209 HD
ENDBRANCH  39  40
ENDBRANCH  38  39
ENDBRANCH  17  38
ENDBRANCH   7   9
ENDBRANCH   6   7
BRANCH   6  42
HETATM   42  N5  UNL     1     -10.650  -1.532   8.233  1.00  0.00    -0.055 N 
ATOM     43  H53 UNL     1     -11.005  -1.698   9.175  1.00  0.00     0.276 HD
ATOM     44  H52 UNL     1      -9.680  -1.806   8.389  1.00  0.00     0.276 HD
ATOM     45  H51 UNL     1     -10.731  -0.552   7.961  1.00  0.00     0.276 HD
ENDBRANCH   6  42
ENDBRANCH   5   6
BRANCH   5  46
HETATM   46  O3  UNL     1     -10.373  -4.380   7.996  1.00  0.00    -0.388 OA
ATOM     47  H3  UNL     1     -11.204  -4.358   8.457  1.00  0.00     0.210 HD
ENDBRANCH   5  46
ENDBRANCH   1   5
BRANCH   1  48
HETATM   48  O4  UNL     1     -12.163  -5.149   6.172  1.00  0.00    -0.373 OA
ATOM     49  H4  UNL     1     -12.441  -4.972   7.063  1.00  0.00     0.212 HD
ENDBRANCH   1  48
TORSDOF 15
ENDMDL
MODEL 3
REMARK VINA RESULT: -9.645431877      1.557      5.520
REMARK  15 active torsions:
REMARK  status: ('A' for Active; 'I' for Inactive)
REMARK    1  A    between atoms: O1_2  and  C2_3 
REMARK    2  A    between atoms: C2_3  and  C3_5 
REMARK    3  A    between atoms: C5_7  and  C6_8 
REMARK    4  A    between atoms: C11_16  and  N2_17 
REMARK    5  A    between atoms: N2_17  and  C12_19 
REMARK    6  A    between atoms: C13_22  and  N4_23 
REMARK    7  A    between atoms: N4_23  and  C14_25 
REMARK    8  A    between atoms: C14_25  and  N5_26 
REMARK    9  A    between atoms: C14_25  and  C15_30 
REMARK   10  A    between atoms: C15_30  and  O3_31 
REMARK   11  A    between atoms: C15_30  and  C16_33 
REMARK   12  A    between atoms: C16_33  and  O4_35 
REMARK   13  A    between atoms: N8_42  and  C20_44 
REMARK   14  A    between atoms: C20_44  and  C21_45 
REMARK   15  A    between atoms: C21_45  and  O5_46 
ROOT
HETATM    1  C16 UNL     1     -18.433  -4.069   1.605  1.00  0.00     0.171 C 
HETATM    2  C17 UNL     1     -19.912  -3.765   1.632  1.00  0.00     0.065 C 
HETATM    3  C18 UNL     1     -17.998  -3.983   0.188  1.00  0.00     0.100 C 
HETATM    4  N6  UNL     1     -17.661  -3.899  -0.914  1.00  0.00    -0.194 NA
ENDROOT
BRANCH   1   5
HETATM    5  C15 UNL     1     -17.605  -3.088   2.367  1.00  0.00     0.216 C 
BRANCH   5   6
HETATM    6  C14 UNL     1     -16.221  -3.567   2.680  1.00  0.00     0.329 C 
BRANCH   6   7
HETATM    7  N4  UNL     1     -16.074  -3.873   4.083  1.00  0.00    -0.193 N 
ATOM      8  H4  UNL     1     -16.474  -4.745   4.429  1.00  0.00     0.180 HD
BRANCH   7   9
HETATM    9  C13 UNL     1     -15.463  -3.104   4.927  1.00  0.00     0.709 A 
HETATM   10  N3  UNL     1     -16.064  -2.180   5.653  1.00  0.00    -0.021 N 
HETATM   11  C12 UNL     1     -15.357  -1.387   6.540  1.00  0.00     0.712 A 
ATOM     12  H3  UNL     1     -17.070  -2.047   5.558  1.00  0.00     0.203 HD
HETATM   13  N9  UNL     1     -14.056  -1.589   6.635  1.00  0.00    -0.021 N 
HETATM   14  C19 UNL     1     -13.397  -2.545   5.894  1.00  0.00     0.707 A 
ATOM     15  H9  UNL     1     -13.517  -1.015   7.283  1.00  0.00     0.203 HD
HETATM   16  N7  UNL     1     -14.143  -3.271   5.059  1.00  0.00    -0.021 N 
HETATM   17  N8  UNL     1     -12.127  -2.692   6.034  1.00  0.00    -0.223 N 
ATOM     18  H7  UNL     1     -13.686  -3.987   4.496  1.00  0.00     0.203 HD
ATOM     19  H8  UNL     1     -11.607  -2.108   6.689  1.00  0.00     0.177 HD
BRANCH  11  20
HETATM   20  N2  UNL     1     -16.127  -0.450   7.239  1.00  0.00    -0.183 N 
ATOM     21  H2  UNL     1     -16.554   0.302   6.697  1.00  0.00     0.185 HD
BRANCH  20  22
HETATM   22  C11 UNL     1     -16.364  -0.456   8.631  1.00  0.00     0.107 A 
HETATM   23  C3  UNL     1     -15.648   0.174   9.642  1.00  0.00     0.075 A 
HETATM   24  C4  UNL     1     -16.097   0.002  10.892  1.00  0.00     0.040 A 
HETATM   25  C5  UNL     1     -17.200  -0.761  11.094  1.00  0.00     0.018 A 
HETATM   26  S1  UNL     1     -17.611  -1.238   9.536  1.00  0.00    -0.070 SA
BRANCH  23  27
HETATM   27  C2  UNL     1     -14.445   0.997   9.347  1.00  0.00     0.295 C 
HETATM   28  O2  UNL     1     -14.320   2.194   9.560  1.00  0.00    -0.259 OA
BRANCH  27  29
HETATM   29  O1  UNL     1     -13.328   0.367   8.766  1.00  0.00    -0.322 OA
HETATM   30  C1  UNL     1     -12.385  -0.327   9.579  1.00  0.00     0.213 C 
ENDBRANCH  27  29
ENDBRANCH  23  27
BRANCH  25  31
HETATM   31  C6  UNL     1     -17.875  -1.092  12.369  1.00  0.00    -0.016 A 
HETATM   32  C7  UNL     1     -17.809  -0.203  13.395  1.00  0.00     0.030 A 
HETATM   33  C8  UNL     1     -18.431  -0.499  14.582  1.00  0.00     0.088 A 
HETATM   34  N1  UNL     1     -19.089  -1.658  14.699  1.00  0.00    -0.375 N 
HETATM   35  C9  UNL     1     -19.168  -2.546  13.705  1.00  0.00     0.088 A 
ATOM     36  H1  UNL     1     -19.549  -1.872  15.584  1.00  0.00     0.164 HD
HETATM   37  C10 UNL     1     -18.548  -2.270  12.497  1.00  0.00     0.030 A 
ENDBRANCH  25  31
ENDBRANCH  20  22
ENDBRANCH  11  20
BRANCH  17  38
HETATM   38  C20 UNL     1     -11.447  -3.701   5.249  1.00  0.00     0.164 C 
BRANCH  38  39
HETATM   39  C21 UNL     1     -11.045  -4.859   6.140  1.00  0.00     0.184 C 
BRANCH  39  40
HETATM   40  O5  UNL     1     -12.210  -5.578   6.429  1.00  0.00    -0.399 OA
ATOM     41  H5  UNL     1     -11.940  -6.401   6.818  1.00  0.00     0.209 HD
ENDBRANCH  39  40
ENDBRANCH  38  39
ENDBRANCH  17  38
ENDBRANCH   7   9
ENDBRANCH   6   7
BRANCH   6  42
HETATM   42  N5  UNL     1     -15.817  -4.701   1.883  1.00  0.00    -0.055 N 
ATOM     43  H53 UNL     1     -15.112  -5.268   2.354  1.00  0.00     0.276 HD
ATOM     44  H52 UNL     1     -16.553  -5.403   1.818  1.00  0.00     0.276 HD
ATOM     45  H51 UNL     1     -15.505  -4.387   0.965  1.00  0.00     0.276 HD
ENDBRANCH   6  42
ENDBRANCH   5   6
BRANCH   5  46
HETATM   46  O3  UNL     1     -17.493  -1.933   1.603  1.00  0.00    -0.388 OA
ATOM     47  H3  UNL     1     -17.755  -2.145   0.714  1.00  0.00     0.210 HD
ENDBRANCH   5  46
ENDBRANCH   1   5
BRANCH   1  48
HETATM   48  O4  UNL     1     -18.218  -5.385   1.986  1.00  0.00    -0.373 OA
ATOM     49  H4  UNL     1     -18.808  -6.001   1.567  1.00  0.00     0.212 HD
ENDBRANCH   1  48
TORSDOF 15
ENDMDL
MODEL 4
REMARK VINA RESULT: -9.609255028      0.966      1.086
REMARK  15 active torsions:
REMARK  status: ('A' for Active; 'I' for Inactive)
REMARK    1  A    between atoms: O1_2  and  C2_3 
REMARK    2  A    between atoms: C2_3  and  C3_5 
REMARK    3  A    between atoms: C5_7  and  C6_8 
REMARK    4  A    between atoms: C11_16  and  N2_17 
REMARK    5  A    between atoms: N2_17  and  C12_19 
REMARK    6  A    between atoms: C13_22  and  N4_23 
REMARK    7  A    between atoms: N4_23  and  C14_25 
REMARK    8  A    between atoms: C14_25  and  N5_26 
REMARK    9  A    between atoms: C14_25  and  C15_30 
REMARK   10  A    between atoms: C15_30  and  O3_31 
REMARK   11  A    between atoms: C15_30  and  C16_33 
REMARK   12  A    between atoms: C16_33  and  O4_35 
REMARK   13  A    between atoms: N8_42  and  C20_44 
REMARK   14  A    between atoms: C20_44  and  C21_45 
REMARK   15  A    between atoms: C21_45  and  O5_46 
ROOT
HETATM    1  C16 UNL     1     -10.005  -5.087   6.881  1.00  0.00     0.171 C 
HETATM    2  C17 UNL     1      -9.807  -6.577   7.016  1.00  0.00     0.065 C 
HETATM    3  C18 UNL     1      -8.656  -4.481   6.743  1.00  0.00     0.100 C 
HETATM    4  N6  UNL     1      -7.605  -4.016   6.620  1.00  0.00    -0.194 NA
ENDROOT
BRANCH   1   5
HETATM    5  C15 UNL     1     -10.776  -4.691   5.666  1.00  0.00     0.216 C 
BRANCH   5   6
HETATM    6  C14 UNL     1     -11.413  -3.339   5.757  1.00  0.00     0.329 C 
BRANCH   6   7
HETATM    7  N4  UNL     1     -12.553  -3.351   6.642  1.00  0.00    -0.193 N 
ATOM      8  H4  UNL     1     -12.496  -3.913   7.491  1.00  0.00     0.180 HD
BRANCH   7   9
HETATM    9  C13 UNL     1     -13.644  -2.689   6.419  1.00  0.00     0.709 A 
HETATM   10  N3  UNL     1     -14.037  -1.651   7.132  1.00  0.00    -0.021 N 
HETATM   11  C12 UNL     1     -15.214  -0.983   6.846  1.00  0.00     0.712 A 
ATOM     12  H3  UNL     1     -13.460  -1.334   7.911  1.00  0.00     0.203 HD
HETATM   13  N9  UNL     1     -15.932  -1.422   5.829  1.00  0.00    -0.021 N 
HETATM   14  C19 UNL     1     -15.553  -2.502   5.063  1.00  0.00     0.707 A 
ATOM     15  H9  UNL     1     -16.803  -0.943   5.601  1.00  0.00     0.203 HD
HETATM   16  N7  UNL     1     -14.406  -3.097   5.399  1.00  0.00    -0.021 N 
HETATM   17  N8  UNL     1     -16.298  -2.880   4.086  1.00  0.00    -0.223 N 
ATOM     18  H7  UNL     1     -14.096  -3.900   4.852  1.00  0.00     0.203 HD
ATOM     19  H8  UNL     1     -17.165  -2.386   3.874  1.00  0.00     0.177 HD
BRANCH  11  20
HETATM   20  N2  UNL     1     -15.501   0.099   7.688  1.00  0.00    -0.183 N 
ATOM     21  H2  UNL     1     -15.444   1.033   7.283  1.00  0.00     0.185 HD
BRANCH  20  22
HETATM   22  C11 UNL     1     -15.861   0.007   9.050  1.00  0.00     0.107 A 
HETATM   23  C3  UNL     1     -15.201   0.510  10.164  1.00  0.00     0.075 A 
HETATM   24  C4  UNL     1     -15.771   0.277  11.354  1.00  0.00     0.040 A 
HETATM   25  C5  UNL     1     -16.932  -0.422  11.401  1.00  0.00     0.018 A 
HETATM   26  S1  UNL     1     -17.230  -0.753   9.781  1.00  0.00    -0.070 SA
BRANCH  23  27
HETATM   27  C2  UNL     1     -13.929   1.268  10.038  1.00  0.00     0.295 C 
HETATM   28  O2  UNL     1     -13.680   2.350  10.550  1.00  0.00    -0.259 OA
BRANCH  27  29
HETATM   29  O1  UNL     1     -12.893   0.715   9.262  1.00  0.00    -0.322 OA
HETATM   30  C1  UNL     1     -12.036  -0.286   9.806  1.00  0.00     0.213 C 
ENDBRANCH  27  29
ENDBRANCH  23  27
BRANCH  25  31
HETATM   31  C6  UNL     1     -17.738  -0.799  12.584  1.00  0.00    -0.016 A 
HETATM   32  C7  UNL     1     -18.439  -1.963  12.554  1.00  0.00     0.030 A 
HETATM   33  C8  UNL     1     -19.190  -2.324  13.645  1.00  0.00     0.088 A 
HETATM   34  N1  UNL     1     -19.213  -1.519  14.712  1.00  0.00    -0.375 N 
HETATM   35  C9  UNL     1     -18.532  -0.371  14.764  1.00  0.00     0.088 A 
ATOM     36  H1  UNL     1     -19.773  -1.793  15.519  1.00  0.00     0.164 HD
HETATM   37  C10 UNL     1     -17.767   0.015  13.676  1.00  0.00     0.030 A 
ENDBRANCH  25  31
ENDBRANCH  20  22
ENDBRANCH  11  20
BRANCH  17  38
HETATM   38  C20 UNL     1     -15.886  -4.017   3.289  1.00  0.00     0.164 C 
BRANCH  38  39
HETATM   39  C21 UNL     1     -16.929  -4.302   2.226  1.00  0.00     0.184 C 
BRANCH  39  40
HETATM   40  O5  UNL     1     -17.519  -5.530   2.551  1.00  0.00    -0.399 OA
ATOM     41  H5  UNL     1     -18.454  -5.434   2.413  1.00  0.00     0.209 HD
ENDBRANCH  39  40
ENDBRANCH  38  39
ENDBRANCH  17  38
ENDBRANCH   7   9
ENDBRANCH   6   7
BRANCH   6  42
HETATM   42  N5  UNL     1     -10.491  -2.302   6.155  1.00  0.00    -0.055 N 
ATOM     43  H53 UNL     1     -10.871  -1.369   5.995  1.00  0.00     0.276 HD
ATOM     44  H52 UNL     1     -10.390  -2.249   7.169  1.00  0.00     0.276 HD
ATOM     45  H51 UNL     1      -9.594  -2.435   5.688  1.00  0.00     0.276 HD
ENDBRANCH   6  42
ENDBRANCH   5   6
BRANCH   5  46
HETATM   46  O3  UNL     1      -9.903  -4.679   4.586  1.00  0.00    -0.388 OA
ATOM     47  H3  UNL     1     -10.365  -5.029   3.833  1.00  0.00     0.210 HD
ENDBRANCH   5  46
ENDBRANCH   1   5
BRANCH   1  48
HETATM   48  O4  UNL     1     -10.529  -4.575   8.058  1.00  0.00    -0.373 OA
ATOM     49  H4  UNL     1     -11.210  -5.118   8.436  1.00  0.00     0.212 HD
ENDBRANCH   1  48
TORSDOF 15
ENDMDL
MODEL 5
REMARK VINA RESULT: -9.558250412      1.167      1.629
REMARK  15 active torsions:
REMARK  status: ('A' for Active; 'I' for Inactive)
REMARK    1  A    between atoms: O1_2  and  C2_3 
REMARK    2  A    between atoms: C2_3  and  C3_5 
REMARK    3  A    between atoms: C5_7  and  C6_8 
REMARK    4  A    between atoms: C11_16  and  N2_17 
REMARK    5  A    between atoms: N2_17  and  C12_19 
REMARK    6  A    between atoms: C13_22  and  N4_23 
REMARK    7  A    between atoms: N4_23  and  C14_25 
REMARK    8  A    between atoms: C14_25  and  N5_26 
REMARK    9  A    between atoms: C14_25  and  C15_30 
REMARK   10  A    between atoms: C15_30  and  O3_31 
REMARK   11  A    between atoms: C15_30  and  C16_33 
REMARK   12  A    between atoms: C16_33  and  O4_35 
REMARK   13  A    between atoms: N8_42  and  C20_44 
REMARK   14  A    between atoms: C20_44  and  C21_45 
REMARK   15  A    between atoms: C21_45  and  O5_46 
ROOT
HETATM    1  C16 UNL     1      -9.285  -4.913   6.177  1.00  0.00     0.171 C 
HETATM    2  C17 UNL     1      -7.816  -4.643   6.400  1.00  0.00     0.065 C 
HETATM    3  C18 UNL     1      -9.585  -6.224   6.809  1.00  0.00     0.100 C 
HETATM    4  N6  UNL     1      -9.818  -7.236   7.315  1.00  0.00    -0.194 NA
ENDROOT
BRANCH   1   5
HETATM    5  C15 UNL     1     -10.184  -3.912   6.823  1.00  0.00     0.216 C 
BRANCH   5   6
HETATM    6  C14 UNL     1     -11.421  -3.601   6.037  1.00  0.00     0.329 C 
BRANCH   6   7
HETATM    7  N4  UNL     1     -12.583  -3.529   6.890  1.00  0.00    -0.193 N 
ATOM      8  H4  UNL     1     -12.589  -4.088   7.743  1.00  0.00     0.180 HD
BRANCH   7   9
HETATM    9  C13 UNL     1     -13.619  -2.795   6.633  1.00  0.00     0.709 A 
HETATM   10  N3  UNL     1     -13.969  -1.738   7.342  1.00  0.00    -0.021 N 
HETATM   11  C12 UNL     1     -15.088  -0.991   7.019  1.00  0.00     0.712 A 
ATOM     12  H3  UNL     1     -13.402  -1.466   8.144  1.00  0.00     0.203 HD
HETATM   13  N9  UNL     1     -15.795  -1.375   5.971  1.00  0.00    -0.021 N 
HETATM   14  C19 UNL     1     -15.459  -2.472   5.209  1.00  0.00     0.707 A 
ATOM     15  H9  UNL     1     -16.623  -0.837   5.716  1.00  0.00     0.203 HD
HETATM   16  N7  UNL     1     -14.367  -3.144   5.581  1.00  0.00    -0.021 N 
HETATM   17  N8  UNL     1     -16.190  -2.792   4.201  1.00  0.00    -0.223 N 
ATOM     18  H7  UNL     1     -14.091  -3.961   5.038  1.00  0.00     0.203 HD
ATOM     19  H8  UNL     1     -17.014  -2.240   3.963  1.00  0.00     0.177 HD
BRANCH  11  20
HETATM   20  N2  UNL     1     -15.335   0.100   7.860  1.00  0.00    -0.183 N 
ATOM     21  H2  UNL     1     -15.197   1.032   7.468  1.00  0.00     0.185 HD
BRANCH  20  22
HETATM   22  C11 UNL     1     -15.757   0.022   9.205  1.00  0.00     0.107 A 
HETATM   23  C3  UNL     1     -15.205   0.620  10.331  1.00  0.00     0.075 A 
HETATM   24  C4  UNL     1     -15.814   0.377  11.499  1.00  0.00     0.040 A 
HETATM   25  C5  UNL     1     -16.910  -0.422  11.515  1.00  0.00     0.018 A 
HETATM   26  S1  UNL     1     -17.091  -0.833   9.896  1.00  0.00    -0.070 SA
BRANCH  23  27
HETATM   27  C2  UNL     1     -13.999   1.484  10.240  1.00  0.00     0.295 C 
HETATM   28  O2  UNL     1     -13.885   2.614  10.695  1.00  0.00    -0.259 OA
BRANCH  27  29
HETATM   29  O1  UNL     1     -12.865   0.985   9.572  1.00  0.00    -0.322 OA
HETATM   30  C1  UNL     1     -12.102  -0.078  10.136  1.00  0.00     0.213 C 
ENDBRANCH  27  29
ENDBRANCH  23  27
BRANCH  25  31
HETATM   31  C6  UNL     1     -17.741  -0.830  12.669  1.00  0.00    -0.016 A 
HETATM   32  C7  UNL     1     -18.419  -2.006  12.604  1.00  0.00     0.030 A 
HETATM   33  C8  UNL     1     -19.193  -2.395  13.668  1.00  0.00     0.088 A 
HETATM   34  N1  UNL     1     -19.260  -1.606  14.746  1.00  0.00    -0.375 N 
HETATM   35  C9  UNL     1     -18.602  -0.447  14.833  1.00  0.00     0.088 A 
ATOM     36  H1  UNL     1     -19.838  -1.902  15.533  1.00  0.00     0.164 HD
HETATM   37  C10 UNL     1     -17.814  -0.032  13.771  1.00  0.00     0.030 A 
ENDBRANCH  25  31
ENDBRANCH  20  22
ENDBRANCH  11  20
BRANCH  17  38
HETATM   38  C20 UNL     1     -15.824  -3.947   3.409  1.00  0.00     0.164 C 
BRANCH  38  39
HETATM   39  C21 UNL     1     -16.876  -4.192   2.344  1.00  0.00     0.184 C 
BRANCH  39  40
HETATM   40  O5  UNL     1     -17.426  -5.454   2.594  1.00  0.00    -0.399 OA
ATOM     41  H5  UNL     1     -17.779  -5.434   3.475  1.00  0.00     0.209 HD
ENDBRANCH  39  40
ENDBRANCH  38  39
ENDBRANCH  17  38
ENDBRANCH   7   9
ENDBRANCH   6   7
BRANCH   6  42
HETATM   42  N5  UNL     1     -11.308  -2.393   5.255  1.00  0.00    -0.055 N 
ATOM     43  H53 UNL     1     -11.887  -1.640   5.628  1.00  0.00     0.276 HD
ATOM     44  H52 UNL     1     -10.397  -1.949   5.366  1.00  0.00     0.276 HD
ATOM     45  H51 UNL     1     -11.520  -2.590   4.277  1.00  0.00     0.276 HD
ENDBRANCH   6  42
ENDBRANCH   5   6
BRANCH   5  46
HETATM   46  O3  UNL     1     -10.579  -4.419   8.055  1.00  0.00    -0.388 OA
ATOM     47  H3  UNL     1     -10.911  -3.695   8.575  1.00  0.00     0.210 HD
ENDBRANCH   5  46
ENDBRANCH   1   5
BRANCH   1  48
HETATM   48  O4  UNL     1      -9.531  -5.083   4.823  1.00  0.00    -0.373 OA
ATOM     49  H4  UNL     1      -8.747  -5.038   4.288  1.00  0.00     0.212 HD
ENDBRANCH   1  48
TORSDOF 15
ENDMDL
