MODEL 1
REMARK VINA RESULT: -10.284603411      0.000      0.000
REMARK  11 active torsions:
REMARK  status: ('A' for Active; 'I' for Inactive)
REMARK    1  A    between atoms: N1_1  and  C1_5 
REMARK    2  A    between atoms: C1_5  and  C2_6 
REMARK    3  A    between atoms: C2_6  and  N2_7 
REMARK    4  A    between atoms: N2_7  and  C3_9 
REMARK    5  A    between atoms: C6_18  and  C7_19 
REMARK    6  A    between atoms: N6_20  and  N7_22 
REMARK    7  A    between atoms: N7_22  and  C8_24 
REMARK    8  A    between atoms: C9_27  and  N9_28 
REMARK    9  A    between atoms: N9_28  and  C10_30 
REMARK   10  A    between atoms: C10_30  and  C11_31 
REMARK   11  A    between atoms: C17_41  and  C18_42 
ROOT
HETATM    1  C8  UNL     1     -16.001  -1.522   7.483  1.00  0.00     0.699 A 
HETATM    2  N8  UNL     1     -16.960  -1.773   8.419  1.00  0.00    -0.173 N 
ATOM      3  H8  UNL     1     -17.472  -2.651   8.334  1.00  0.00     0.186 HD
HETATM    4  C9  UNL     1     -17.290  -0.978   9.432  1.00  0.00     0.147 A 
HETATM    5  C16 UNL     1     -16.583   0.249   9.561  1.00  0.00     0.113 A 
HETATM    6  N11 UNL     1     -16.775   1.143  10.492  1.00  0.00    -0.342 N 
ATOM      7  H11 UNL     1     -17.485   0.984  11.207  1.00  0.00     0.167 HD
HETATM    8  C17 UNL     1     -16.058   2.248  10.518  1.00  0.00     0.124 A 
HETATM    9  S1  UNL     1     -15.041   2.038   9.152  1.00  0.00    -0.048 SA
HETATM   10  C19 UNL     1     -15.627   0.501   8.630  1.00  0.00     0.123 A 
HETATM   11  N16 UNL     1     -15.337  -0.359   7.612  1.00  0.00    -0.181 N 
ATOM     12  H16 UNL     1     -14.608  -0.118   6.940  1.00  0.00     0.185 HD
ENDROOT
BRANCH   1  13
HETATM   13  N7  UNL     1     -15.760  -2.342   6.551  1.00  0.00    -0.132 N 
ATOM     14  H7  UNL     1     -16.466  -2.470   5.827  1.00  0.00     0.205 HD
BRANCH  13  15
HETATM   15  N6  UNL     1     -14.597  -3.073   6.461  1.00  0.00    -0.297 N 
HETATM   16  C7  UNL     1     -13.467  -2.561   6.297  1.00  0.00     0.128 C 
ATOM     17  H6  UNL     1     -14.660  -4.089   6.530  1.00  0.00     0.186 HD
BRANCH  16  18
HETATM   18  C6  UNL     1     -12.223  -3.279   6.200  1.00  0.00     0.092 A 
HETATM   19  C3  UNL     1     -11.441  -3.585   7.269  1.00  0.00     0.120 A 
HETATM   20  N3  UNL     1     -10.301  -4.285   7.063  1.00  0.00    -0.316 N 
HETATM   21  C4  UNL     1      -9.926  -4.678   5.846  1.00  0.00     0.196 A 
ATOM     22  H3  UNL     1      -9.711  -4.519   7.862  1.00  0.00     0.170 HD
HETATM   23  N4  UNL     1      -8.705  -5.416   5.687  1.00  0.00    -0.063 NA
HETATM   24  N5  UNL     1     -10.687  -4.382   4.783  1.00  0.00    -0.297 N 
HETATM   25  C5  UNL     1     -11.801  -3.707   4.925  1.00  0.00     0.263 A 
ATOM     26  H5  UNL     1     -10.396  -4.686   3.854  1.00  0.00     0.171 HD
HETATM   27  O1  UNL     1     -12.520  -3.426   3.926  1.00  0.00    -0.267 OA
BRANCH  19  28
HETATM   28  N2  UNL     1     -11.708  -3.170   8.588  1.00  0.00    -0.374 N 
ATOM     29  H2  UNL     1     -12.269  -3.756   9.206  1.00  0.00     0.161 HD
BRANCH  28  30
HETATM   30  C2  UNL     1     -11.175  -1.890   9.068  1.00  0.00     0.148 C 
BRANCH  30  31
HETATM   31  C1  UNL     1     -12.195  -0.876   9.414  1.00  0.00     0.249 C 
BRANCH  31  32
HETATM   32  N1  UNL     1     -11.758   0.404   9.835  1.00  0.00    -0.078 N 
ATOM     33  H13 UNL     1     -12.363   0.729  10.590  1.00  0.00     0.274 HD
ATOM     34  H12 UNL     1     -10.869   0.307  10.325  1.00  0.00     0.274 HD
ATOM     35  H11 UNL     1     -11.674   1.144   9.137  1.00  0.00     0.274 HD
ENDBRANCH  31  32
ENDBRANCH  30  31
ENDBRANCH  28  30
ENDBRANCH  19  28
ENDBRANCH  16  18
ENDBRANCH  13  15
ENDBRANCH   1  13
BRANCH   4  36
HETATM   36  N9  UNL     1     -18.211  -1.239  10.288  1.00  0.00    -0.370 N 
ATOM     37  H9  UNL     1     -19.032  -0.633  10.274  1.00  0.00     0.161 HD
BRANCH  36  38
HETATM   38  C10 UNL     1     -18.210  -2.282  11.254  1.00  0.00     0.161 C 
BRANCH  38  39
HETATM   39  C11 UNL     1     -18.439  -1.814  12.630  1.00  0.00    -0.025 A 
HETATM   40  C12 UNL     1     -17.898  -0.643  13.103  1.00  0.00     0.011 A 
HETATM   41  C13 UNL     1     -18.140  -0.228  14.421  1.00  0.00     0.018 A 
HETATM   42  C14 UNL     1     -18.927  -0.999  15.251  1.00  0.00     0.087 A 
HETATM   43  N10 UNL     1     -19.442  -2.135  14.764  1.00  0.00    -0.375 N 
HETATM   44  C15 UNL     1     -19.215  -2.550  13.487  1.00  0.00     0.096 A 
ATOM     45  H10 UNL     1     -20.025  -2.711  15.371  1.00  0.00     0.164 HD
ENDBRANCH  38  39
ENDBRANCH  36  38
ENDBRANCH   4  36
BRANCH   8  46
HETATM   46  C18 UNL     1     -16.115   3.366  11.475  1.00  0.00     0.171 A 
HETATM   47  N12 UNL     1     -15.065   4.130  11.787  1.00  0.00    -0.266 N 
HETATM   48  N13 UNL     1     -15.454   5.032  12.667  1.00  0.00    -0.227 N 
ATOM     49  H12 UNL     1     -14.123   4.033  11.408  1.00  0.00     0.190 HD
HETATM   50  N14 UNL     1     -16.733   4.860  12.928  1.00  0.00    -0.227 N 
ATOM     51  H13 UNL     1     -14.858   5.749  13.082  1.00  0.00     0.210 HD
HETATM   52  N15 UNL     1     -17.137   3.836  12.193  1.00  0.00    -0.266 N 
ATOM     53  H14 UNL     1     -17.303   5.411  13.571  1.00  0.00     0.210 HD
ATOM     54  H15 UNL     1     -18.087   3.463  12.178  1.00  0.00     0.190 HD
ENDBRANCH   8  46
TORSDOF 11
ENDMDL
MODEL 2
REMARK VINA RESULT: -10.155477969      1.179      1.250
REMARK  11 active torsions:
REMARK  status: ('A' for Active; 'I' for Inactive)
REMARK    1  A    between atoms: N1_1  and  C1_5 
REMARK    2  A    between atoms: C1_5  and  C2_6 
REMARK    3  A    between atoms: C2_6  and  N2_7 
REMARK    4  A    between atoms: N2_7  and  C3_9 
REMARK    5  A    between atoms: C6_18  and  C7_19 
REMARK    6  A    between atoms: N6_20  and  N7_22 
REMARK    7  A    between atoms: N7_22  and  C8_24 
REMARK    8  A    between atoms: C9_27  and  N9_28 
REMARK    9  A    between atoms: N9_28  and  C10_30 
REMARK   10  A    between atoms: C10_30  and  C11_31 
REMARK   11  A    between atoms: C17_41  and  C18_42 
ROOT
HETATM    1  C8  UNL     1     -15.269  -1.586   7.963  1.00  0.00     0.699 A 
HETATM    2  N8  UNL     1     -16.452  -1.722   8.629  1.00  0.00    -0.173 N 
ATOM      3  H8  UNL     1     -16.995  -2.565   8.440  1.00  0.00     0.186 HD
HETATM    4  C9  UNL     1     -16.961  -0.859   9.501  1.00  0.00     0.147 A 
HETATM    5  C16 UNL     1     -16.213   0.320   9.773  1.00  0.00     0.113 A 
HETATM    6  N11 UNL     1     -16.562   1.268  10.598  1.00  0.00    -0.342 N 
ATOM      7  H11 UNL     1     -17.441   1.195  11.110  1.00  0.00     0.167 HD
HETATM    8  C17 UNL     1     -15.787   2.319  10.776  1.00  0.00     0.124 A 
HETATM    9  S1  UNL     1     -14.477   1.972   9.723  1.00  0.00    -0.048 SA
HETATM   10  C19 UNL     1     -15.035   0.457   9.112  1.00  0.00     0.123 A 
HETATM   11  N16 UNL     1     -14.567  -0.469   8.226  1.00  0.00    -0.181 N 
ATOM     12  H16 UNL     1     -13.675  -0.312   7.757  1.00  0.00     0.185 HD
ENDROOT
BRANCH   1  13
HETATM   13  N7  UNL     1     -14.868  -2.465   7.148  1.00  0.00    -0.132 N 
ATOM     14  H7  UNL     1     -15.489  -2.736   6.387  1.00  0.00     0.205 HD
BRANCH  13  15
HETATM   15  N6  UNL     1     -13.636  -3.075   7.230  1.00  0.00    -0.297 N 
HETATM   16  C7  UNL     1     -12.732  -2.931   6.377  1.00  0.00     0.128 C 
ATOM     17  H6  UNL     1     -13.450  -3.680   8.031  1.00  0.00     0.186 HD
BRANCH  16  18
HETATM   18  C6  UNL     1     -11.430  -3.543   6.418  1.00  0.00     0.092 A 
HETATM   19  C3  UNL     1     -10.265  -2.841   6.458  1.00  0.00     0.120 A 
HETATM   20  N3  UNL     1      -9.097  -3.522   6.519  1.00  0.00    -0.316 N 
HETATM   21  C4  UNL     1      -9.057  -4.853   6.538  1.00  0.00     0.196 A 
ATOM     22  H3  UNL     1      -8.221  -3.000   6.551  1.00  0.00     0.170 HD
HETATM   23  N4  UNL     1      -7.788  -5.520   6.599  1.00  0.00    -0.063 NA
HETATM   24  N5  UNL     1     -10.197  -5.558   6.498  1.00  0.00    -0.297 N 
HETATM   25  C5  UNL     1     -11.357  -4.950   6.439  1.00  0.00     0.263 A 
ATOM     26  H5  UNL     1     -10.162  -6.576   6.513  1.00  0.00     0.171 HD
HETATM   27  O1  UNL     1     -12.433  -5.610   6.400  1.00  0.00    -0.267 OA
BRANCH  19  28
HETATM   28  N2  UNL     1     -10.187  -1.437   6.383  1.00  0.00    -0.374 N 
ATOM     29  H2  UNL     1     -10.320  -0.964   5.490  1.00  0.00     0.161 HD
BRANCH  28  30
HETATM   30  C2  UNL     1      -9.914  -0.659   7.597  1.00  0.00     0.148 C 
BRANCH  30  31
HETATM   31  C1  UNL     1     -11.066  -0.493   8.508  1.00  0.00     0.249 C 
BRANCH  31  32
HETATM   32  N1  UNL     1     -11.251  -1.442   9.544  1.00  0.00    -0.078 N 
ATOM     33  H13 UNL     1     -11.788  -2.229   9.179  1.00  0.00     0.274 HD
ATOM     34  H12 UNL     1     -10.358  -1.891   9.746  1.00  0.00     0.274 HD
ATOM     35  H11 UNL     1     -11.672  -1.131  10.420  1.00  0.00     0.274 HD
ENDBRANCH  31  32
ENDBRANCH  30  31
ENDBRANCH  28  30
ENDBRANCH  19  28
ENDBRANCH  16  18
ENDBRANCH  13  15
ENDBRANCH   1  13
BRANCH   4  36
HETATM   36  N9  UNL     1     -18.088  -1.012  10.099  1.00  0.00    -0.370 N 
ATOM     37  H9  UNL     1     -18.795  -0.297   9.929  1.00  0.00     0.161 HD
BRANCH  36  38
HETATM   38  C10 UNL     1     -18.455  -2.072  10.971  1.00  0.00     0.161 C 
BRANCH  38  39
HETATM   39  C11 UNL     1     -18.549  -1.670  12.384  1.00  0.00    -0.025 A 
HETATM   40  C12 UNL     1     -18.081  -0.458  12.831  1.00  0.00     0.011 A 
HETATM   41  C13 UNL     1     -18.190  -0.107  14.185  1.00  0.00     0.018 A 
HETATM   42  C14 UNL     1     -18.772  -0.984  15.077  1.00  0.00     0.087 A 
HETATM   43  N10 UNL     1     -19.220  -2.158  14.613  1.00  0.00    -0.375 N 
HETATM   44  C15 UNL     1     -19.121  -2.511  13.302  1.00  0.00     0.096 A 
ATOM     45  H10 UNL     1     -19.653  -2.812  15.267  1.00  0.00     0.164 HD
ENDBRANCH  38  39
ENDBRANCH  36  38
ENDBRANCH   4  36
BRANCH   8  46
HETATM   46  C18 UNL     1     -15.994   3.483  11.655  1.00  0.00     0.171 A 
HETATM   47  N12 UNL     1     -15.043   4.375  11.941  1.00  0.00    -0.266 N 
HETATM   48  N13 UNL     1     -15.554   5.283  12.750  1.00  0.00    -0.227 N 
ATOM     49  H12 UNL     1     -14.084   4.357  11.594  1.00  0.00     0.190 HD
HETATM   50  N14 UNL     1     -16.815   4.990  12.989  1.00  0.00    -0.227 N 
ATOM     51  H13 UNL     1     -15.052   6.085  13.131  1.00  0.00     0.210 HD
HETATM   52  N15 UNL     1     -17.084   3.883  12.314  1.00  0.00    -0.266 N 
ATOM     53  H14 UNL     1     -17.461   5.515  13.580  1.00  0.00     0.210 HD
ATOM     54  H15 UNL     1     -17.987   3.409  12.300  1.00  0.00     0.190 HD
ENDBRANCH   8  46
TORSDOF 11
ENDMDL
MODEL 3
REMARK VINA RESULT: -10.076952522      3.450      9.374
REMARK  11 active torsions:
REMARK  status: ('A' for Active; 'I' for Inactive)
REMARK    1  A    between atoms: N1_1  and  C1_5 
REMARK    2  A    between atoms: C1_5  and  C2_6 
REMARK    3  A    between atoms: C2_6  and  N2_7 
REMARK    4  A    between atoms: N2_7  and  C3_9 
REMARK    5  A    between atoms: C6_18  and  C7_19 
REMARK    6  A    between atoms: N6_20  and  N7_22 
REMARK    7  A    between atoms: N7_22  and  C8_24 
REMARK    8  A    between atoms: C9_27  and  N9_28 
REMARK    9  A    between atoms: N9_28  and  C10_30 
REMARK   10  A    between atoms: C10_30  and  C11_31 
REMARK   11  A    between atoms: C17_41  and  C18_42 
ROOT
HETATM    1  C8  UNL     1     -15.012  -0.495   7.182  1.00  0.00     0.699 A 
HETATM    2  N8  UNL     1     -15.443  -1.289   6.160  1.00  0.00    -0.173 N 
ATOM      3  H8  UNL     1     -16.346  -1.059   5.745  1.00  0.00     0.186 HD
HETATM    4  C9  UNL     1     -14.795  -2.333   5.655  1.00  0.00     0.147 A 
HETATM    5  C16 UNL     1     -13.534  -2.662   6.225  1.00  0.00     0.113 A 
HETATM    6  N11 UNL     1     -12.765  -3.648   5.853  1.00  0.00    -0.342 N 
ATOM      7  H11 UNL     1     -13.061  -4.260   5.092  1.00  0.00     0.167 HD
HETATM    8  C17 UNL     1     -11.611  -3.860   6.451  1.00  0.00     0.124 A 
HETATM    9  S1  UNL     1     -11.584  -2.602   7.618  1.00  0.00    -0.048 SA
HETATM   10  C19 UNL     1     -13.102  -1.872   7.242  1.00  0.00     0.123 A 
HETATM   11  N16 UNL     1     -13.818  -0.812   7.715  1.00  0.00    -0.181 N 
ATOM     12  H16 UNL     1     -13.445  -0.253   8.483  1.00  0.00     0.185 HD
ENDROOT
BRANCH   1  13
HETATM   13  N7  UNL     1     -15.704   0.479   7.595  1.00  0.00    -0.132 N 
ATOM     14  H7  UNL     1     -15.788   1.300   6.996  1.00  0.00     0.205 HD
BRANCH  13  15
HETATM   15  N6  UNL     1     -16.350   0.495   8.811  1.00  0.00    -0.297 N 
HETATM   16  C7  UNL     1     -15.827   0.105   9.879  1.00  0.00     0.128 C 
ATOM     17  H6  UNL     1     -17.308   0.843   8.843  1.00  0.00     0.186 HD
BRANCH  16  18
HETATM   18  C6  UNL     1     -16.456   0.104  11.174  1.00  0.00     0.092 A 
HETATM   19  C3  UNL     1     -15.941   0.729  12.266  1.00  0.00     0.120 A 
HETATM   20  N3  UNL     1     -16.631   0.682  13.430  1.00  0.00    -0.316 N 
HETATM   21  C4  UNL     1     -17.794   0.041  13.533  1.00  0.00     0.196 A 
ATOM     22  H3  UNL     1     -16.250   1.151  14.251  1.00  0.00     0.170 HD
HETATM   23  N4  UNL     1     -18.480   0.021  14.793  1.00  0.00    -0.063 NA
HETATM   24  N5  UNL     1     -18.313  -0.581  12.465  1.00  0.00    -0.297 N 
HETATM   25  C5  UNL     1     -17.687  -0.567  11.313  1.00  0.00     0.263 A 
ATOM     26  H5  UNL     1     -19.204  -1.070  12.549  1.00  0.00     0.171 HD
HETATM   27  O1  UNL     1     -18.173  -1.152  10.305  1.00  0.00    -0.267 OA
BRANCH  19  28
HETATM   28  N2  UNL     1     -14.694   1.383  12.286  1.00  0.00    -0.374 N 
ATOM     29  H2  UNL     1     -14.586   2.293  11.839  1.00  0.00     0.161 HD
BRANCH  28  30
HETATM   30  C2  UNL     1     -13.552   0.749  12.954  1.00  0.00     0.148 C 
BRANCH  30  31
HETATM   31  C1  UNL     1     -12.970  -0.407  12.239  1.00  0.00     0.249 C 
BRANCH  31  32
HETATM   32  N1  UNL     1     -12.379  -0.188  10.969  1.00  0.00    -0.078 N 
ATOM     33  H13 UNL     1     -12.509  -1.021  10.396  1.00  0.00     0.274 HD
ATOM     34  H12 UNL     1     -12.938   0.493  10.456  1.00  0.00     0.274 HD
ATOM     35  H11 UNL     1     -11.398   0.091  10.931  1.00  0.00     0.274 HD
ENDBRANCH  31  32
ENDBRANCH  30  31
ENDBRANCH  28  30
ENDBRANCH  19  28
ENDBRANCH  16  18
ENDBRANCH  13  15
ENDBRANCH   1  13
BRANCH   4  36
HETATM   36  N9  UNL     1     -15.239  -3.070   4.701  1.00  0.00    -0.370 N 
ATOM     37  H9  UNL     1     -14.540  -3.514   4.105  1.00  0.00     0.161 HD
BRANCH  36  38
HETATM   38  C10 UNL     1     -16.599  -3.333   4.387  1.00  0.00     0.161 C 
BRANCH  38  39
HETATM   39  C11 UNL     1     -16.852  -3.505   2.947  1.00  0.00    -0.025 A 
HETATM   40  C12 UNL     1     -17.942  -2.947   2.325  1.00  0.00     0.011 A 
HETATM   41  C13 UNL     1     -18.148  -3.130   0.950  1.00  0.00     0.018 A 
HETATM   42  C14 UNL     1     -17.251  -3.875   0.213  1.00  0.00     0.087 A 
HETATM   43  N10 UNL     1     -16.197  -4.407   0.845  1.00  0.00    -0.375 N 
HETATM   44  C15 UNL     1     -15.985  -4.237   2.179  1.00  0.00     0.096 A 
ATOM     45  H10 UNL     1     -15.528  -4.959   0.308  1.00  0.00     0.164 HD
ENDBRANCH  38  39
ENDBRANCH  36  38
ENDBRANCH   4  36
BRANCH   8  46
HETATM   46  C18 UNL     1     -10.607  -4.904   6.182  1.00  0.00     0.171 A 
HETATM   47  N12 UNL     1     -10.143  -5.744   7.110  1.00  0.00    -0.266 N 
HETATM   48  N13 UNL     1      -9.262  -6.546   6.543  1.00  0.00    -0.227 N 
ATOM     49  H12 UNL     1     -10.421  -5.763   8.091  1.00  0.00     0.190 HD
HETATM   50  N14 UNL     1      -9.152  -6.236   5.267  1.00  0.00    -0.227 N 
ATOM     51  H13 UNL     1      -8.748  -7.289   7.016  1.00  0.00     0.210 HD
HETATM   52  N15 UNL     1      -9.980  -5.227   5.048  1.00  0.00    -0.266 N 
ATOM     53  H14 UNL     1      -8.546  -6.686   4.581  1.00  0.00     0.210 HD
ATOM     54  H15 UNL     1     -10.119  -4.766   4.149  1.00  0.00     0.190 HD
ENDBRANCH   8  46
TORSDOF 11
ENDMDL
MODEL 4
REMARK VINA RESULT: -10.036302668      3.991      7.398
REMARK  11 active torsions:
REMARK  status: ('A' for Active; 'I' for Inactive)
REMARK    1  A    between atoms: N1_1  and  C1_5 
REMARK    2  A    between atoms: C1_5  and  C2_6 
REMARK    3  A    between atoms: C2_6  and  N2_7 
REMARK    4  A    between atoms: N2_7  and  C3_9 
REMARK    5  A    between atoms: C6_18  and  C7_19 
REMARK    6  A    between atoms: N6_20  and  N7_22 
REMARK    7  A    between atoms: N7_22  and  C8_24 
REMARK    8  A    between atoms: C9_27  and  N9_28 
REMARK    9  A    between atoms: N9_28  and  C10_30 
REMARK   10  A    between atoms: C10_30  and  C11_31 
REMARK   11  A    between atoms: C17_41  and  C18_42 
ROOT
HETATM    1  C8  UNL     1     -16.033  -2.352   6.754  1.00  0.00     0.699 A 
HETATM    2  N8  UNL     1     -14.697  -2.115   6.886  1.00  0.00    -0.173 N 
ATOM      3  H8  UNL     1     -14.067  -2.703   6.340  1.00  0.00     0.186 HD
HETATM    4  C9  UNL     1     -14.141  -1.189   7.660  1.00  0.00     0.147 A 
HETATM    5  C16 UNL     1     -15.009  -0.363   8.425  1.00  0.00     0.113 A 
HETATM    6  N11 UNL     1     -14.635   0.591   9.232  1.00  0.00    -0.342 N 
ATOM      7  H11 UNL     1     -13.643   0.792   9.352  1.00  0.00     0.167 HD
HETATM    8  C17 UNL     1     -15.530   1.299   9.892  1.00  0.00     0.124 A 
HETATM    9  S1  UNL     1     -17.000   0.592   9.358  1.00  0.00    -0.048 SA
HETATM   10  C19 UNL     1     -16.341  -0.597   8.294  1.00  0.00     0.123 A 
HETATM   11  N16 UNL     1     -16.849  -1.566   7.481  1.00  0.00    -0.181 N 
ATOM     12  H16 UNL     1     -17.859  -1.697   7.422  1.00  0.00     0.185 HD
ENDROOT
BRANCH   1  13
HETATM   13  N7  UNL     1     -16.469  -3.260   5.990  1.00  0.00    -0.132 N 
ATOM     14  H7  UNL     1     -16.934  -4.063   6.413  1.00  0.00     0.205 HD
BRANCH  13  15
HETATM   15  N6  UNL     1     -16.350  -3.227   4.619  1.00  0.00    -0.297 N 
HETATM   16  C7  UNL     1     -16.991  -3.975   3.849  1.00  0.00     0.128 C 
ATOM     17  H6  UNL     1     -15.703  -2.554   4.208  1.00  0.00     0.186 HD
BRANCH  16  18
HETATM   18  C6  UNL     1     -16.907  -3.978   2.412  1.00  0.00     0.092 A 
HETATM   19  C3  UNL     1     -17.989  -3.936   1.590  1.00  0.00     0.120 A 
HETATM   20  N3  UNL     1     -17.791  -3.919   0.251  1.00  0.00    -0.316 N 
HETATM   21  C4  UNL     1     -16.569  -3.943  -0.280  1.00  0.00     0.196 A 
ATOM     22  H3  UNL     1     -18.600  -3.886  -0.370  1.00  0.00     0.170 HD
HETATM   23  N4  UNL     1     -16.419  -3.926  -1.707  1.00  0.00    -0.063 NA
HETATM   24  N5  UNL     1     -15.493  -3.985   0.518  1.00  0.00    -0.297 N 
HETATM   25  C5  UNL     1     -15.627  -4.003   1.822  1.00  0.00     0.263 A 
ATOM     26  H5  UNL     1     -14.560  -4.003   0.107  1.00  0.00     0.171 HD
HETATM   27  O1  UNL     1     -14.616  -4.043   2.577  1.00  0.00    -0.267 OA
BRANCH  19  28
HETATM   28  N2  UNL     1     -19.323  -3.969   2.040  1.00  0.00    -0.374 N 
ATOM     29  H2  UNL     1     -19.578  -4.533   2.850  1.00  0.00     0.161 HD
BRANCH  28  30
HETATM   30  C2  UNL     1     -20.346  -3.185   1.337  1.00  0.00     0.148 C 
BRANCH  30  31
HETATM   31  C1  UNL     1     -20.104  -1.726   1.302  1.00  0.00     0.249 C 
BRANCH  31  32
HETATM   32  N1  UNL     1     -21.222  -0.856   1.313  1.00  0.00    -0.078 N 
ATOM     33  H13 UNL     1     -21.964  -1.263   0.745  1.00  0.00     0.274 HD
ATOM     34  H12 UNL     1     -21.650  -0.877   2.239  1.00  0.00     0.274 HD
ATOM     35  H11 UNL     1     -21.085   0.116   1.033  1.00  0.00     0.274 HD
ENDBRANCH  31  32
ENDBRANCH  30  31
ENDBRANCH  28  30
ENDBRANCH  19  28
ENDBRANCH  16  18
ENDBRANCH  13  15
ENDBRANCH   1  13
BRANCH   4  36
HETATM   36  N9  UNL     1     -12.874  -1.004   7.773  1.00  0.00    -0.370 N 
ATOM     37  H9  UNL     1     -12.513  -0.890   8.719  1.00  0.00     0.161 HD
BRANCH  36  38
HETATM   38  C10 UNL     1     -11.923  -0.942   6.719  1.00  0.00     0.161 C 
BRANCH  38  39
HETATM   39  C11 UNL     1     -11.402  -2.258   6.314  1.00  0.00    -0.025 A 
HETATM   40  C12 UNL     1     -10.687  -3.057   7.173  1.00  0.00     0.011 A 
HETATM   41  C13 UNL     1     -10.209  -4.307   6.752  1.00  0.00     0.018 A 
HETATM   42  C14 UNL     1     -10.457  -4.740   5.466  1.00  0.00     0.087 A 
HETATM   43  N10 UNL     1     -11.157  -3.942   4.651  1.00  0.00    -0.375 N 
HETATM   44  C15 UNL     1     -11.627  -2.727   5.046  1.00  0.00     0.096 A 
ATOM     45  H10 UNL     1     -11.346  -4.255   3.698  1.00  0.00     0.164 HD
ENDBRANCH  38  39
ENDBRANCH  36  38
ENDBRANCH   4  36
BRANCH   8  46
HETATM   46  C18 UNL     1     -15.318   2.409  10.836  1.00  0.00     0.171 A 
HETATM   47  N12 UNL     1     -16.307   3.135  11.362  1.00  0.00    -0.266 N 
HETATM   48  N13 UNL     1     -15.779   4.042  12.161  1.00  0.00    -0.227 N 
ATOM     49  H12 UNL     1     -17.303   3.010  11.177  1.00  0.00     0.190 HD
HETATM   50  N14 UNL     1     -14.468   3.912  12.157  1.00  0.00    -0.227 N 
ATOM     51  H13 UNL     1     -16.302   4.734  12.697  1.00  0.00     0.210 HD
HETATM   52  N15 UNL     1     -14.187   2.908  11.343  1.00  0.00    -0.266 N 
ATOM     53  H14 UNL     1     -13.799   4.477  12.681  1.00  0.00     0.210 HD
ATOM     54  H15 UNL     1     -13.249   2.566  11.134  1.00  0.00     0.190 HD
ENDBRANCH   8  46
TORSDOF 11
ENDMDL
MODEL 5
REMARK VINA RESULT: -9.998219501      3.334      9.454
REMARK  11 active torsions:
REMARK  status: ('A' for Active; 'I' for Inactive)
REMARK    1  A    between atoms: N1_1  and  C1_5 
REMARK    2  A    between atoms: C1_5  and  C2_6 
REMARK    3  A    between atoms: C2_6  and  N2_7 
REMARK    4  A    between atoms: N2_7  and  C3_9 
REMARK    5  A    between atoms: C6_18  and  C7_19 
REMARK    6  A    between atoms: N6_20  and  N7_22 
REMARK    7  A    between atoms: N7_22  and  C8_24 
REMARK    8  A    between atoms: C9_27  and  N9_28 
REMARK    9  A    between atoms: N9_28  and  C10_30 
REMARK   10  A    between atoms: C10_30  and  C11_31 
REMARK   11  A    between atoms: C17_41  and  C18_42 
ROOT
HETATM    1  C8  UNL     1     -14.953  -0.479   7.246  1.00  0.00     0.699 A 
HETATM    2  N8  UNL     1     -15.362  -1.265   6.209  1.00  0.00    -0.173 N 
ATOM      3  H8  UNL     1     -16.248  -1.023   5.766  1.00  0.00     0.186 HD
HETATM    4  C9  UNL     1     -14.712  -2.318   5.724  1.00  0.00     0.147 A 
HETATM    5  C16 UNL     1     -13.475  -2.665   6.334  1.00  0.00     0.113 A 
HETATM    6  N11 UNL     1     -12.709  -3.661   5.985  1.00  0.00    -0.342 N 
ATOM      7  H11 UNL     1     -12.988  -4.268   5.214  1.00  0.00     0.167 HD
HETATM    8  C17 UNL     1     -11.577  -3.891   6.620  1.00  0.00     0.124 A 
HETATM    9  S1  UNL     1     -11.571  -2.634   7.789  1.00  0.00    -0.048 SA
HETATM   10  C19 UNL     1     -13.066  -1.883   7.366  1.00  0.00     0.123 A 
HETATM   11  N16 UNL     1     -13.782  -0.814   7.817  1.00  0.00    -0.181 N 
ATOM     12  H16 UNL     1     -13.426  -0.261   8.598  1.00  0.00     0.185 HD
ENDROOT
BRANCH   1  13
HETATM   13  N7  UNL     1     -15.644   0.504   7.639  1.00  0.00    -0.132 N 
ATOM     14  H7  UNL     1     -15.745   1.303   7.014  1.00  0.00     0.205 HD
BRANCH  13  15
HETATM   15  N6  UNL     1     -16.270   0.556   8.864  1.00  0.00    -0.297 N 
HETATM   16  C7  UNL     1     -15.848  -0.035   9.883  1.00  0.00     0.128 C 
ATOM     17  H6  UNL     1     -17.125   1.107   8.946  1.00  0.00     0.186 HD
BRANCH  16  18
HETATM   18  C6  UNL     1     -16.461  -0.010  11.186  1.00  0.00     0.092 A 
HETATM   19  C3  UNL     1     -15.947   0.661  12.251  1.00  0.00     0.120 A 
HETATM   20  N3  UNL     1     -16.621   0.634  13.425  1.00  0.00    -0.316 N 
HETATM   21  C4  UNL     1     -17.768  -0.030  13.563  1.00  0.00     0.196 A 
ATOM     22  H3  UNL     1     -16.241   1.138  14.226  1.00  0.00     0.170 HD
HETATM   23  N4  UNL     1     -18.437  -0.025  14.833  1.00  0.00    -0.063 NA
HETATM   24  N5  UNL     1     -18.286  -0.697  12.522  1.00  0.00    -0.297 N 
HETATM   25  C5  UNL     1     -17.675  -0.704  11.362  1.00  0.00     0.263 A 
ATOM     26  H5  UNL     1     -19.164  -1.203  12.633  1.00  0.00     0.171 HD
HETATM   27  O1  UNL     1     -18.159  -1.332  10.379  1.00  0.00    -0.267 OA
BRANCH  19  28
HETATM   28  N2  UNL     1     -14.716   1.344  12.234  1.00  0.00    -0.374 N 
ATOM     29  H2  UNL     1     -13.912   0.963  12.734  1.00  0.00     0.161 HD
BRANCH  28  30
HETATM   30  C2  UNL     1     -14.595   2.605  11.495  1.00  0.00     0.148 C 
BRANCH  30  31
HETATM   31  C1  UNL     1     -15.633   3.613  11.801  1.00  0.00     0.249 C 
BRANCH  31  32
HETATM   32  N1  UNL     1     -15.222   4.879  12.287  1.00  0.00    -0.078 N 
ATOM     33  H13 UNL     1     -14.223   4.848  12.489  1.00  0.00     0.274 HD
ATOM     34  H12 UNL     1     -15.247   5.553  11.521  1.00  0.00     0.274 HD
ATOM     35  H11 UNL     1     -15.711   5.274  13.091  1.00  0.00     0.274 HD
ENDBRANCH  31  32
ENDBRANCH  30  31
ENDBRANCH  28  30
ENDBRANCH  19  28
ENDBRANCH  16  18
ENDBRANCH  13  15
ENDBRANCH   1  13
BRANCH   4  36
HETATM   36  N9  UNL     1     -15.135  -3.047   4.755  1.00  0.00    -0.370 N 
ATOM     37  H9  UNL     1     -14.424  -3.450   4.144  1.00  0.00     0.161 HD
BRANCH  36  38
HETATM   38  C10 UNL     1     -16.487  -3.353   4.443  1.00  0.00     0.161 C 
BRANCH  38  39
HETATM   39  C11 UNL     1     -16.740  -3.511   3.001  1.00  0.00    -0.025 A 
HETATM   40  C12 UNL     1     -17.814  -2.921   2.380  1.00  0.00     0.011 A 
HETATM   41  C13 UNL     1     -18.022  -3.091   1.003  1.00  0.00     0.018 A 
HETATM   42  C14 UNL     1     -17.143  -3.856   0.264  1.00  0.00     0.087 A 
HETATM   43  N10 UNL     1     -16.105  -4.418   0.896  1.00  0.00    -0.375 N 
HETATM   44  C15 UNL     1     -15.891  -4.262   2.231  1.00  0.00     0.096 A 
ATOM     45  H10 UNL     1     -15.450  -4.985   0.357  1.00  0.00     0.164 HD
ENDBRANCH  38  39
ENDBRANCH  36  38
ENDBRANCH   4  36
BRANCH   8  46
HETATM   46  C18 UNL     1     -10.580  -4.948   6.382  1.00  0.00     0.171 A 
HETATM   47  N12 UNL     1      -9.944  -5.119   5.220  1.00  0.00    -0.266 N 
HETATM   48  N13 UNL     1      -9.125  -6.146   5.341  1.00  0.00    -0.227 N 
ATOM     49  H12 UNL     1     -10.071  -4.553   4.381  1.00  0.00     0.190 HD
HETATM   50  N14 UNL     1      -9.224  -6.638   6.559  1.00  0.00    -0.227 N 
ATOM     51  H13 UNL     1      -8.513  -6.504   4.609  1.00  0.00     0.210 HD
HETATM   52  N15 UNL     1     -10.118  -5.899   7.197  1.00  0.00    -0.266 N 
ATOM     53  H14 UNL     1      -8.710  -7.433   6.938  1.00  0.00     0.210 HD
ATOM     54  H15 UNL     1     -10.409  -6.035   8.165  1.00  0.00     0.190 HD
ENDBRANCH   8  46
TORSDOF 11
ENDMDL
