MODEL 1
REMARK VINA RESULT: -9.543626456      0.000      0.000
REMARK  16 active torsions:
REMARK  status: ('A' for Active; 'I' for Inactive)
REMARK    1  A    between atoms: C2_2  and  O1_5 
REMARK    2  A    between atoms: O1_5  and  C5_6 
REMARK    3  A    between atoms: C5_6  and  O2_7 
REMARK    4  A    between atoms: C5_6  and  N1_9 
REMARK    5  A    between atoms: N1_9  and  C6_11 
REMARK    6  A    between atoms: C7_14  and  N3_15 
REMARK    7  A    between atoms: C9_21  and  C10_22 
REMARK    8  A    between atoms: C10_22  and  C11_24 
REMARK    9  A    between atoms: C11_24  and  C12_25 
REMARK   10  A    between atoms: C13_26  and  O4_27 
REMARK   11  A    between atoms: C13_26  and  O5_29 
REMARK   12  A    between atoms: O5_29  and  C14_30 
REMARK   13  A    between atoms: C15_35  and  N7_36 
REMARK   14  A    between atoms: C17_43  and  O7_44 
REMARK   15  A    between atoms: C17_43  and  C18_46 
REMARK   16  A    between atoms: N10_49  and  O8_51 
ROOT
HETATM    1  C18 UNL     1     -11.125  -2.967   5.742  1.00  0.00     0.168 C 
HETATM    2  C19 UNL     1      -9.988  -3.218   6.604  1.00  0.00     0.122 C 
HETATM    3  N9  UNL     1      -9.044  -3.457   7.285  1.00  0.00    -0.190 NA
HETATM    4  N10 UNL     1     -11.208  -3.704   4.689  1.00  0.00    -0.256 N 
ATOM      5  H10 UNL     1     -10.507  -4.437   4.579  1.00  0.00     0.195 HD
ENDROOT
BRANCH   1   6
HETATM    6  C17 UNL     1     -12.067  -1.889   6.002  1.00  0.00     0.119 C 
HETATM    7  C11 UNL     1     -13.248  -1.931   6.778  1.00  0.00     0.056 C 
BRANCH   7   8
HETATM    8  C10 UNL     1     -13.776  -0.539   7.235  1.00  0.00     0.200 C 
HETATM    9  O3  UNL     1     -14.263   0.157   6.367  1.00  0.00    -0.286 OA
BRANCH   8  10
HETATM   10  C9  UNL     1     -13.613  -0.273   8.644  1.00  0.00     0.075 A 
HETATM   11  C6  UNL     1     -14.377   0.523   9.462  1.00  0.00     0.136 A 
HETATM   12  N2  UNL     1     -14.257   0.708  10.706  1.00  0.00    -0.176 N 
HETATM   13  C7  UNL     1     -13.258   0.078  11.456  1.00  0.00     0.677 A 
ATOM     14  H2  UNL     1     -14.908   1.337  11.178  1.00  0.00     0.186 HD
HETATM   15  N4  UNL     1     -12.471  -0.723  10.747  1.00  0.00    -0.201 N 
HETATM   16  C8  UNL     1     -12.620  -0.895   9.469  1.00  0.00     0.125 A 
ATOM     17  H4  UNL     1     -11.721  -1.222  11.225  1.00  0.00     0.183 HD
BRANCH  11  18
HETATM   18  N1  UNL     1     -15.433   1.539   8.610  1.00  0.00    -0.327 N 
ATOM     19  H1  UNL     1     -15.301   2.159   7.812  1.00  0.00     0.166 HD
BRANCH  18  20
HETATM   20  C5  UNL     1     -16.558   1.221   9.398  1.00  0.00     0.370 C 
BRANCH  20  21
HETATM   21  O1  UNL     1     -17.072   0.257  10.025  1.00  0.00    -0.334 OA
BRANCH  21  22
HETATM   22  C2  UNL     1     -17.819  -0.862   9.692  1.00  0.00     0.055 C 
HETATM   23  C1  UNL     1     -19.063  -0.552   8.892  1.00  0.00     0.045 C 
HETATM   24  C3  UNL     1     -18.135  -1.680  10.911  1.00  0.00     0.045 C 
HETATM   25  C4  UNL     1     -16.970  -1.806   8.794  1.00  0.00     0.045 C 
ENDBRANCH  21  22
ENDBRANCH  20  21
BRANCH  20  26
HETATM   26  O2  UNL     1     -17.327   2.382   9.465  1.00  0.00    -0.354 OA
ATOM     27  H2  UNL     1     -16.813   3.173   9.349  1.00  0.00     0.214 HD
ENDBRANCH  20  26
ENDBRANCH  18  20
ENDBRANCH  11  18
BRANCH  13  28
HETATM   28  N3  UNL     1     -13.139   0.364  12.692  1.00  0.00    -0.234 N 
ATOM     29  H32 UNL     1     -13.875   0.700  13.313  1.00  0.00     0.174 HD
ATOM     30  H31 UNL     1     -12.246   0.198  13.155  1.00  0.00     0.174 HD
ENDBRANCH  13  28
ENDBRANCH   8  10
ENDBRANCH   7   8
BRANCH   7  31
HETATM   31  C12 UNL     1     -14.467  -2.698   6.475  1.00  0.00     0.082 C 
HETATM   32  C13 UNL     1     -14.931  -2.878   5.162  1.00  0.00     0.186 C 
BRANCH  32  33
HETATM   33  O4  UNL     1     -15.514  -1.858   4.575  1.00  0.00    -0.341 OA
ATOM     34  H4  UNL     1     -14.957  -1.177   4.216  1.00  0.00     0.220 HD
ENDBRANCH  32  33
BRANCH  32  35
HETATM   35  O5  UNL     1     -14.947  -3.969   4.228  1.00  0.00    -0.264 OA
BRANCH  35  36
HETATM   36  C14 UNL     1     -16.195  -4.007   3.526  1.00  0.00     0.235 A 
HETATM   37  N5  UNL     1     -17.425  -3.835   3.814  1.00  0.00    -0.261 N 
HETATM   38  N6  UNL     1     -18.428  -3.973   2.900  1.00  0.00    -0.130 N 
ATOM     39  H5  UNL     1     -17.670  -3.583   4.771  1.00  0.00     0.190 HD
HETATM   40  C15 UNL     1     -18.131  -4.318   1.569  1.00  0.00     0.693 A 
ATOM     41  H6  UNL     1     -19.397  -3.825   3.182  1.00  0.00     0.205 HD
HETATM   42  N8  UNL     1     -16.867  -4.473   1.318  1.00  0.00    -0.151 N 
HETATM   43  C16 UNL     1     -15.842  -4.361   2.127  1.00  0.00     0.312 A 
ATOM     44  H8  UNL     1     -16.639  -4.716   0.353  1.00  0.00     0.188 HD
HETATM   45  O6  UNL     1     -14.656  -4.493   1.938  1.00  0.00    -0.263 OA
BRANCH  40  46
HETATM   46  N7  UNL     1     -19.044  -4.449   0.737  1.00  0.00    -0.233 N 
ATOM     47  H72 UNL     1     -20.030  -4.578   0.965  1.00  0.00     0.174 HD
ATOM     48  H71 UNL     1     -18.836  -4.435  -0.261  1.00  0.00     0.174 HD
ENDBRANCH  40  46
ENDBRANCH  35  36
ENDBRANCH  32  35
ENDBRANCH   7  31
BRANCH   6  49
HETATM   49  O7  UNL     1     -11.698  -0.785   5.402  1.00  0.00    -0.357 OA
ATOM     50  H7  UNL     1     -11.793  -0.689   4.461  1.00  0.00     0.218 HD
ENDBRANCH   6  49
ENDBRANCH   1   6
BRANCH   4  51
HETATM   51  O8  UNL     1     -12.140  -3.596   3.716  1.00  0.00    -0.289 OA
ATOM     52  H8  UNL     1     -12.772  -4.262   3.472  1.00  0.00     0.244 HD
ENDBRANCH   4  51
TORSDOF 16
ENDMDL
MODEL 2
REMARK VINA RESULT: -9.438777864      3.269      5.617
REMARK  16 active torsions:
REMARK  status: ('A' for Active; 'I' for Inactive)
REMARK    1  A    between atoms: C2_2  and  O1_5 
REMARK    2  A    between atoms: O1_5  and  C5_6 
REMARK    3  A    between atoms: C5_6  and  O2_7 
REMARK    4  A    between atoms: C5_6  and  N1_9 
REMARK    5  A    between atoms: N1_9  and  C6_11 
REMARK    6  A    between atoms: C7_14  and  N3_15 
REMARK    7  A    between atoms: C9_21  and  C10_22 
REMARK    8  A    between atoms: C10_22  and  C11_24 
REMARK    9  A    between atoms: C11_24  and  C12_25 
REMARK   10  A    between atoms: C13_26  and  O4_27 
REMARK   11  A    between atoms: C13_26  and  O5_29 
REMARK   12  A    between atoms: O5_29  and  C14_30 
REMARK   13  A    between atoms: C15_35  and  N7_36 
REMARK   14  A    between atoms: C17_43  and  O7_44 
REMARK   15  A    between atoms: C17_43  and  C18_46 
REMARK   16  A    between atoms: N10_49  and  O8_51 
ROOT
HETATM    1  C18 UNL     1     -11.248  -3.885   6.955  1.00  0.00     0.168 C 
HETATM    2  C19 UNL     1     -10.351  -4.570   6.047  1.00  0.00     0.122 C 
HETATM    3  N9  UNL     1      -9.643  -5.165   5.301  1.00  0.00    -0.190 NA
HETATM    4  N10 UNL     1     -12.368  -4.477   7.195  1.00  0.00    -0.256 N 
ATOM      5  H10 UNL     1     -12.505  -5.397   6.777  1.00  0.00     0.195 HD
ENDROOT
BRANCH   1   6
HETATM    6  C17 UNL     1     -10.944  -2.569   7.493  1.00  0.00     0.119 C 
HETATM    7  C11 UNL     1     -11.822  -1.473   7.665  1.00  0.00     0.056 C 
BRANCH   7   8
HETATM    8  C10 UNL     1     -11.323  -0.390   8.667  1.00  0.00     0.200 C 
HETATM    9  O3  UNL     1     -10.224   0.078   8.442  1.00  0.00    -0.286 OA
BRANCH   8  10
HETATM   10  C9  UNL     1     -12.249  -0.093   9.733  1.00  0.00     0.075 A 
HETATM   11  C6  UNL     1     -12.389  -0.717  10.948  1.00  0.00     0.136 A 
HETATM   12  N2  UNL     1     -13.167  -0.415  11.897  1.00  0.00    -0.176 N 
HETATM   13  C7  UNL     1     -14.044   0.672  11.818  1.00  0.00     0.677 A 
ATOM     14  H2  UNL     1     -13.156  -0.982  12.745  1.00  0.00     0.186 HD
HETATM   15  N4  UNL     1     -13.973   1.346  10.676  1.00  0.00    -0.201 N 
HETATM   16  C8  UNL     1     -13.161   1.013   9.719  1.00  0.00     0.125 A 
ATOM     17  H4  UNL     1     -14.579   2.156  10.545  1.00  0.00     0.183 HD
BRANCH  11  18
HETATM   18  N1  UNL     1     -11.577  -2.202  11.034  1.00  0.00    -0.327 N 
ATOM     19  H1  UNL     1     -11.541  -3.008  10.410  1.00  0.00     0.166 HD
BRANCH  18  20
HETATM   20  C5  UNL     1     -10.969  -1.928  12.277  1.00  0.00     0.370 C 
BRANCH  20  21
HETATM   21  O1  UNL     1     -11.140  -2.111  13.511  1.00  0.00    -0.334 OA
BRANCH  21  22
HETATM   22  C2  UNL     1     -11.230  -3.209  14.351  1.00  0.00     0.055 C 
HETATM   23  C1  UNL     1     -12.057  -4.344  13.793  1.00  0.00     0.045 C 
HETATM   24  C3  UNL     1     -11.698  -2.804  15.719  1.00  0.00     0.045 C 
HETATM   25  C4  UNL     1      -9.811  -3.803  14.582  1.00  0.00     0.045 C 
ENDBRANCH  21  22
ENDBRANCH  20  21
BRANCH  20  26
HETATM   26  O2  UNL     1      -9.811  -1.205  11.992  1.00  0.00    -0.354 OA
ATOM     27  H2  UNL     1      -9.757  -0.938  11.082  1.00  0.00     0.214 HD
ENDBRANCH  20  26
ENDBRANCH  18  20
ENDBRANCH  11  18
BRANCH  13  28
HETATM   28  N3  UNL     1     -14.859   0.880  12.775  1.00  0.00    -0.234 N 
ATOM     29  H32 UNL     1     -15.568   0.236  13.123  1.00  0.00     0.174 HD
ATOM     30  H31 UNL     1     -14.785   1.747  13.308  1.00  0.00     0.174 HD
ENDBRANCH  13  28
ENDBRANCH   8  10
ENDBRANCH   7   8
BRANCH   7  31
HETATM   31  C12 UNL     1     -12.477  -0.701   6.597  1.00  0.00     0.082 C 
HETATM   32  C13 UNL     1     -13.858  -0.778   6.357  1.00  0.00     0.186 C 
BRANCH  32  33
HETATM   33  O4  UNL     1     -14.315  -1.854   5.758  1.00  0.00    -0.341 OA
ATOM     34  H4  UNL     1     -14.627  -1.764   4.865  1.00  0.00     0.220 HD
ENDBRANCH  32  33
BRANCH  32  35
HETATM   35  O5  UNL     1     -14.984   0.079   6.601  1.00  0.00    -0.264 OA
BRANCH  35  36
HETATM   36  C14 UNL     1     -15.913  -0.555   7.486  1.00  0.00     0.235 A 
HETATM   37  N5  UNL     1     -16.363  -1.735   7.666  1.00  0.00    -0.261 N 
HETATM   38  N6  UNL     1     -17.302  -2.036   8.608  1.00  0.00    -0.130 N 
ATOM     39  H5  UNL     1     -16.004  -2.488   7.078  1.00  0.00     0.190 HD
HETATM   40  C15 UNL     1     -17.821  -1.027   9.439  1.00  0.00     0.693 A 
ATOM     41  H6  UNL     1     -17.629  -2.997   8.711  1.00  0.00     0.205 HD
HETATM   42  N8  UNL     1     -17.328   0.155   9.229  1.00  0.00    -0.151 N 
HETATM   43  C16 UNL     1     -16.430   0.535   8.353  1.00  0.00     0.312 A 
ATOM     44  H8  UNL     1     -17.691   0.894   9.831  1.00  0.00     0.188 HD
HETATM   45  O6  UNL     1     -15.943   1.617   8.125  1.00  0.00    -0.263 OA
BRANCH  40  46
HETATM   46  N7  UNL     1     -18.680  -1.299  10.294  1.00  0.00    -0.233 N 
ATOM     47  H72 UNL     1     -18.533  -1.266  11.303  1.00  0.00     0.174 HD
ATOM     48  H71 UNL     1     -19.617  -1.583  10.009  1.00  0.00     0.174 HD
ENDBRANCH  40  46
ENDBRANCH  35  36
ENDBRANCH  32  35
ENDBRANCH   7  31
BRANCH   6  49
HETATM   49  O7  UNL     1      -9.682  -2.475   7.828  1.00  0.00    -0.357 OA
ATOM     50  H7  UNL     1      -9.000  -2.495   7.166  1.00  0.00     0.218 HD
ENDBRANCH   6  49
ENDBRANCH   1   6
BRANCH   4  51
HETATM   51  O8  UNL     1     -13.377  -3.988   7.949  1.00  0.00    -0.289 OA
ATOM     52  H8  UNL     1     -14.181  -4.445   8.170  1.00  0.00     0.244 HD
ENDBRANCH   4  51
TORSDOF 16
ENDMDL
MODEL 3
REMARK VINA RESULT: -9.435543685      0.811      1.439
REMARK  16 active torsions:
REMARK  status: ('A' for Active; 'I' for Inactive)
REMARK    1  A    between atoms: C2_2  and  O1_5 
REMARK    2  A    between atoms: O1_5  and  C5_6 
REMARK    3  A    between atoms: C5_6  and  O2_7 
REMARK    4  A    between atoms: C5_6  and  N1_9 
REMARK    5  A    between atoms: N1_9  and  C6_11 
REMARK    6  A    between atoms: C7_14  and  N3_15 
REMARK    7  A    between atoms: C9_21  and  C10_22 
REMARK    8  A    between atoms: C10_22  and  C11_24 
REMARK    9  A    between atoms: C11_24  and  C12_25 
REMARK   10  A    between atoms: C13_26  and  O4_27 
REMARK   11  A    between atoms: C13_26  and  O5_29 
REMARK   12  A    between atoms: O5_29  and  C14_30 
REMARK   13  A    between atoms: C15_35  and  N7_36 
REMARK   14  A    between atoms: C17_43  and  O7_44 
REMARK   15  A    between atoms: C17_43  and  C18_46 
REMARK   16  A    between atoms: N10_49  and  O8_51 
ROOT
HETATM    1  C18 UNL     1     -10.649  -2.732   6.369  1.00  0.00     0.168 C 
HETATM    2  C19 UNL     1     -10.927  -4.033   5.796  1.00  0.00     0.122 C 
HETATM    3  N9  UNL     1     -11.113  -5.112   5.333  1.00  0.00    -0.190 NA
HETATM    4  N10 UNL     1      -9.460  -2.562   6.835  1.00  0.00    -0.256 N 
ATOM      5  H10 UNL     1      -8.800  -3.329   6.710  1.00  0.00     0.195 HD
ENDROOT
BRANCH   1   6
HETATM    6  C17 UNL     1     -11.676  -1.710   6.493  1.00  0.00     0.119 C 
HETATM    7  C11 UNL     1     -12.927  -1.804   7.145  1.00  0.00     0.056 C 
BRANCH   7   8
HETATM    8  C10 UNL     1     -13.584  -0.436   7.497  1.00  0.00     0.200 C 
HETATM    9  O3  UNL     1     -14.032   0.195   6.561  1.00  0.00    -0.286 OA
BRANCH   8  10
HETATM   10  C9  UNL     1     -13.567  -0.110   8.902  1.00  0.00     0.075 A 
HETATM   11  C6  UNL     1     -14.442   0.674   9.613  1.00  0.00     0.136 A 
HETATM   12  N2  UNL     1     -14.449   0.911  10.854  1.00  0.00    -0.176 N 
HETATM   13  C7  UNL     1     -13.496   0.361  11.718  1.00  0.00     0.677 A 
ATOM     14  H2  UNL     1     -15.171   1.522  11.237  1.00  0.00     0.186 HD
HETATM   15  N4  UNL     1     -12.609  -0.424  11.119  1.00  0.00    -0.201 N 
HETATM   16  C8  UNL     1     -12.628  -0.651   9.840  1.00  0.00     0.125 A 
ATOM     17  H4  UNL     1     -11.884  -0.867  11.685  1.00  0.00     0.183 HD
BRANCH  11  18
HETATM   18  N1  UNL     1     -15.460   1.603   8.625  1.00  0.00    -0.327 N 
ATOM     19  H1  UNL     1     -15.283   2.194   7.813  1.00  0.00     0.166 HD
BRANCH  18  20
HETATM   20  C5  UNL     1     -16.636   1.268   9.327  1.00  0.00     0.370 C 
BRANCH  20  21
HETATM   21  O1  UNL     1     -17.157   0.313   9.962  1.00  0.00    -0.334 OA
BRANCH  21  22
HETATM   22  C2  UNL     1     -17.747  -0.897   9.635  1.00  0.00     0.055 C 
HETATM   23  C1  UNL     1     -18.098  -1.751  10.831  1.00  0.00     0.045 C 
HETATM   24  C3  UNL     1     -16.911  -1.653   8.642  1.00  0.00     0.045 C 
HETATM   25  C4  UNL     1     -19.092  -0.637   8.899  1.00  0.00     0.045 C 
ENDBRANCH  21  22
ENDBRANCH  20  21
BRANCH  20  26
HETATM   26  O2  UNL     1     -17.466   2.386   9.252  1.00  0.00    -0.354 OA
ATOM     27  H2  UNL     1     -18.179   2.276   8.634  1.00  0.00     0.214 HD
ENDBRANCH  20  26
ENDBRANCH  18  20
ENDBRANCH  11  18
BRANCH  13  28
HETATM   28  N3  UNL     1     -13.509   0.697  12.947  1.00  0.00    -0.234 N 
ATOM     29  H32 UNL     1     -14.309   1.044  13.476  1.00  0.00     0.174 HD
ATOM     30  H31 UNL     1     -12.666   0.566  13.505  1.00  0.00     0.174 HD
ENDBRANCH  13  28
ENDBRANCH   8  10
ENDBRANCH   7   8
BRANCH   7  31
HETATM   31  C12 UNL     1     -14.060  -2.655   6.746  1.00  0.00     0.082 C 
HETATM   32  C13 UNL     1     -14.535  -2.699   5.426  1.00  0.00     0.186 C 
BRANCH  32  33
HETATM   33  O4  UNL     1     -15.245  -1.680   4.999  1.00  0.00    -0.341 OA
ATOM     34  H4  UNL     1     -15.831  -1.827   4.265  1.00  0.00     0.220 HD
ENDBRANCH  32  33
BRANCH  32  35
HETATM   35  O5  UNL     1     -14.453  -3.640   4.345  1.00  0.00    -0.264 OA
BRANCH  35  36
HETATM   36  C14 UNL     1     -15.753  -3.891   3.801  1.00  0.00     0.235 A 
HETATM   37  N5  UNL     1     -16.959  -3.816   4.211  1.00  0.00    -0.261 N 
HETATM   38  N6  UNL     1     -18.029  -4.165   3.439  1.00  0.00    -0.130 N 
ATOM     39  H5  UNL     1     -17.131  -3.481   5.158  1.00  0.00     0.190 HD
HETATM   40  C15 UNL     1     -17.833  -4.631   2.126  1.00  0.00     0.693 A 
ATOM     41  H6  UNL     1     -18.973  -4.087   3.815  1.00  0.00     0.205 HD
HETATM   42  N8  UNL     1     -16.593  -4.681   1.748  1.00  0.00    -0.151 N 
HETATM   43  C16 UNL     1     -15.509  -4.369   2.415  1.00  0.00     0.312 A 
ATOM     44  H8  UNL     1     -16.440  -5.011   0.794  1.00  0.00     0.188 HD
HETATM   45  O6  UNL     1     -14.342  -4.397   2.104  1.00  0.00    -0.263 OA
BRANCH  40  46
HETATM   46  N7  UNL     1     -18.806  -4.954   1.425  1.00  0.00    -0.233 N 
ATOM     47  H72 UNL     1     -19.779  -4.735   1.638  1.00  0.00     0.174 HD
ATOM     48  H71 UNL     1     -18.667  -5.482   0.563  1.00  0.00     0.174 HD
ENDBRANCH  40  46
ENDBRANCH  35  36
ENDBRANCH  32  35
ENDBRANCH   7  31
BRANCH   6  49
HETATM   49  O7  UNL     1     -11.315  -0.602   5.894  1.00  0.00    -0.357 OA
ATOM     50  H7  UNL     1     -11.727  -0.333   5.081  1.00  0.00     0.218 HD
ENDBRANCH   6  49
ENDBRANCH   1   6
BRANCH   4  51
HETATM   51  O8  UNL     1      -9.008  -1.460   7.473  1.00  0.00    -0.289 OA
ATOM     52  H8  UNL     1      -8.126  -1.110   7.426  1.00  0.00     0.244 HD
ENDBRANCH   4  51
TORSDOF 16
ENDMDL
MODEL 4
REMARK VINA RESULT: -9.351274387      1.937      3.364
REMARK  16 active torsions:
REMARK  status: ('A' for Active; 'I' for Inactive)
REMARK    1  A    between atoms: C2_2  and  O1_5 
REMARK    2  A    between atoms: O1_5  and  C5_6 
REMARK    3  A    between atoms: C5_6  and  O2_7 
REMARK    4  A    between atoms: C5_6  and  N1_9 
REMARK    5  A    between atoms: N1_9  and  C6_11 
REMARK    6  A    between atoms: C7_14  and  N3_15 
REMARK    7  A    between atoms: C9_21  and  C10_22 
REMARK    8  A    between atoms: C10_22  and  C11_24 
REMARK    9  A    between atoms: C11_24  and  C12_25 
REMARK   10  A    between atoms: C13_26  and  O4_27 
REMARK   11  A    between atoms: C13_26  and  O5_29 
REMARK   12  A    between atoms: O5_29  and  C14_30 
REMARK   13  A    between atoms: C15_35  and  N7_36 
REMARK   14  A    between atoms: C17_43  and  O7_44 
REMARK   15  A    between atoms: C17_43  and  C18_46 
REMARK   16  A    between atoms: N10_49  and  O8_51 
ROOT
HETATM    1  C18 UNL     1     -12.107  -3.038   6.767  1.00  0.00     0.168 C 
HETATM    2  C19 UNL     1     -11.637  -3.608   5.521  1.00  0.00     0.122 C 
HETATM    3  N9  UNL     1     -11.229  -4.103   4.522  1.00  0.00    -0.190 NA
HETATM    4  N10 UNL     1     -11.724  -3.638   7.842  1.00  0.00    -0.256 N 
ATOM      5  H10 UNL     1     -11.081  -4.421   7.731  1.00  0.00     0.195 HD
ENDROOT
BRANCH   1   6
HETATM    6  C17 UNL     1     -13.027  -1.912   6.803  1.00  0.00     0.119 C 
HETATM    7  C11 UNL     1     -14.374  -1.900   7.233  1.00  0.00     0.056 C 
BRANCH   7   8
HETATM    8  C10 UNL     1     -14.934  -0.488   7.580  1.00  0.00     0.200 C 
HETATM    9  O3  UNL     1     -14.931   0.323   6.675  1.00  0.00    -0.286 OA
BRANCH   8  10
HETATM   10  C9  UNL     1     -15.384  -0.344   8.943  1.00  0.00     0.075 A 
HETATM   11  C6  UNL     1     -14.816   0.379   9.963  1.00  0.00     0.136 A 
HETATM   12  N2  UNL     1     -15.246   0.543  11.140  1.00  0.00    -0.176 N 
HETATM   13  C7  UNL     1     -16.442  -0.037  11.578  1.00  0.00     0.677 A 
ATOM     14  H2  UNL     1     -14.705   1.113  11.790  1.00  0.00     0.186 HD
HETATM   15  N4  UNL     1     -17.070  -0.752  10.652  1.00  0.00    -0.201 N 
HETATM   16  C8  UNL     1     -16.604  -0.900   9.449  1.00  0.00     0.125 A 
ATOM     17  H4  UNL     1     -17.953  -1.202  10.895  1.00  0.00     0.183 HD
BRANCH  11  18
HETATM   18  N1  UNL     1     -13.235   0.888   9.622  1.00  0.00    -0.327 N 
ATOM     19  H1  UNL     1     -12.856   1.746   9.222  1.00  0.00     0.166 HD
BRANCH  18  20
HETATM   20  C5  UNL     1     -12.631  -0.298  10.089  1.00  0.00     0.370 C 
BRANCH  20  21
HETATM   21  O1  UNL     1     -12.732  -1.148  11.012  1.00  0.00    -0.334 OA
BRANCH  21  22
HETATM   22  C2  UNL     1     -12.074  -1.410  12.203  1.00  0.00     0.055 C 
HETATM   23  C1  UNL     1     -12.183  -2.845  12.662  1.00  0.00     0.045 C 
HETATM   24  C3  UNL     1     -12.501  -0.451  13.277  1.00  0.00     0.045 C 
HETATM   25  C4  UNL     1     -10.552  -1.145  12.024  1.00  0.00     0.045 C 
ENDBRANCH  21  22
ENDBRANCH  20  21
BRANCH  20  26
HETATM   26  O2  UNL     1     -11.575  -0.565   9.219  1.00  0.00    -0.354 OA
ATOM     27  H2  UNL     1     -11.206   0.221   8.833  1.00  0.00     0.214 HD
ENDBRANCH  20  26
ENDBRANCH  18  20
ENDBRANCH  11  18
BRANCH  13  28
HETATM   28  N3  UNL     1     -16.785   0.101  12.797  1.00  0.00    -0.234 N 
ATOM     29  H32 UNL     1     -16.173   0.056  13.611  1.00  0.00     0.174 HD
ATOM     30  H31 UNL     1     -17.753   0.336  13.016  1.00  0.00     0.174 HD
ENDBRANCH  13  28
ENDBRANCH   8  10
ENDBRANCH   7   8
BRANCH   7  31
HETATM   31  C12 UNL     1     -15.504  -2.587   6.589  1.00  0.00     0.082 C 
HETATM   32  C13 UNL     1     -15.577  -2.768   5.198  1.00  0.00     0.186 C 
BRANCH  32  33
HETATM   33  O4  UNL     1     -15.887  -1.725   4.463  1.00  0.00    -0.341 OA
ATOM     34  H4  UNL     1     -15.175  -1.233   4.071  1.00  0.00     0.220 HD
ENDBRANCH  32  33
BRANCH  32  35
HETATM   35  O5  UNL     1     -15.400  -3.878   4.304  1.00  0.00    -0.264 OA
BRANCH  35  36
HETATM   36  C14 UNL     1     -16.541  -4.019   3.451  1.00  0.00     0.235 A 
HETATM   37  N5  UNL     1     -17.808  -4.034   3.594  1.00  0.00    -0.261 N 
HETATM   38  N6  UNL     1     -18.671  -4.223   2.554  1.00  0.00    -0.130 N 
ATOM     39  H5  UNL     1     -18.194  -3.899   4.528  1.00  0.00     0.190 HD
HETATM   40  C15 UNL     1     -18.178  -4.412   1.250  1.00  0.00     0.693 A 
ATOM     41  H6  UNL     1     -19.677  -4.228   2.722  1.00  0.00     0.205 HD
HETATM   42  N8  UNL     1     -16.885  -4.378   1.149  1.00  0.00    -0.151 N 
HETATM   43  C16 UNL     1     -15.985  -4.203   2.086  1.00  0.00     0.312 A 
ATOM     44  H8  UNL     1     -16.516  -4.506   0.206  1.00  0.00     0.188 HD
HETATM   45  O6  UNL     1     -14.778  -4.162   2.038  1.00  0.00    -0.263 OA
BRANCH  40  46
HETATM   46  N7  UNL     1     -18.962  -4.590   0.304  1.00  0.00    -0.233 N 
ATOM     47  H72 UNL     1     -19.896  -4.186   0.234  1.00  0.00     0.174 HD
ATOM     48  H71 UNL     1     -18.693  -5.180  -0.484  1.00  0.00     0.174 HD
ENDBRANCH  40  46
ENDBRANCH  35  36
ENDBRANCH  32  35
ENDBRANCH   7  31
BRANCH   6  49
HETATM   49  O7  UNL     1     -12.455  -0.820   6.361  1.00  0.00    -0.357 OA
ATOM     50  H7  UNL     1     -12.257  -0.715   5.437  1.00  0.00     0.218 HD
ENDBRANCH   6  49
ENDBRANCH   1   6
BRANCH   4  51
HETATM   51  O8  UNL     1     -12.098  -3.324   9.102  1.00  0.00    -0.289 OA
ATOM     52  H8  UNL     1     -11.562  -3.414   9.882  1.00  0.00     0.244 HD
ENDBRANCH   4  51
TORSDOF 16
ENDMDL
MODEL 5
REMARK VINA RESULT: -9.321620592      1.213      1.841
REMARK  16 active torsions:
REMARK  status: ('A' for Active; 'I' for Inactive)
REMARK    1  A    between atoms: C2_2  and  O1_5 
REMARK    2  A    between atoms: O1_5  and  C5_6 
REMARK    3  A    between atoms: C5_6  and  O2_7 
REMARK    4  A    between atoms: C5_6  and  N1_9 
REMARK    5  A    between atoms: N1_9  and  C6_11 
REMARK    6  A    between atoms: C7_14  and  N3_15 
REMARK    7  A    between atoms: C9_21  and  C10_22 
REMARK    8  A    between atoms: C10_22  and  C11_24 
REMARK    9  A    between atoms: C11_24  and  C12_25 
REMARK   10  A    between atoms: C13_26  and  O4_27 
REMARK   11  A    between atoms: C13_26  and  O5_29 
REMARK   12  A    between atoms: O5_29  and  C14_30 
REMARK   13  A    between atoms: C15_35  and  N7_36 
REMARK   14  A    between atoms: C17_43  and  O7_44 
REMARK   15  A    between atoms: C17_43  and  C18_46 
REMARK   16  A    between atoms: N10_49  and  O8_51 
ROOT
HETATM    1  C18 UNL     1     -11.371  -3.177   5.678  1.00  0.00     0.168 C 
HETATM    2  C19 UNL     1     -10.323  -3.572   6.597  1.00  0.00     0.122 C 
HETATM    3  N9  UNL     1      -9.452  -3.927   7.322  1.00  0.00    -0.190 NA
HETATM    4  N10 UNL     1     -11.416  -3.820   4.562  1.00  0.00    -0.256 N 
ATOM      5  H10 UNL     1     -10.754  -4.587   4.442  1.00  0.00     0.195 HD
ENDROOT
BRANCH   1   6
HETATM    6  C17 UNL     1     -12.262  -2.063   5.958  1.00  0.00     0.119 C 
HETATM    7  C11 UNL     1     -13.451  -2.068   6.723  1.00  0.00     0.056 C 
BRANCH   7   8
HETATM    8  C10 UNL     1     -13.917  -0.664   7.213  1.00  0.00     0.200 C 
HETATM    9  O3  UNL     1     -14.372   0.073   6.361  1.00  0.00    -0.286 OA
BRANCH   8  10
HETATM   10  C9  UNL     1     -13.742  -0.438   8.627  1.00  0.00     0.075 A 
HETATM   11  C6  UNL     1     -14.700  -0.236   9.590  1.00  0.00     0.136 A 
HETATM   12  N2  UNL     1     -14.540  -0.091  10.834  1.00  0.00    -0.176 N 
HETATM   13  C7  UNL     1     -13.272  -0.122  11.426  1.00  0.00     0.677 A 
ATOM     14  H2  UNL     1     -15.359   0.053  11.426  1.00  0.00     0.186 HD
HETATM   15  N4  UNL     1     -12.278  -0.323  10.569  1.00  0.00    -0.201 N 
HETATM   16  C8  UNL     1     -12.475  -0.471   9.294  1.00  0.00     0.125 A 
ATOM     17  H4  UNL     1     -11.324  -0.364  10.926  1.00  0.00     0.183 HD
BRANCH  11  18
HETATM   18  N1  UNL     1     -16.234   0.094   8.947  1.00  0.00    -0.327 N 
ATOM     19  H1  UNL     1     -16.915  -0.482   8.454  1.00  0.00     0.166 HD
BRANCH  18  20
HETATM   20  C5  UNL     1     -16.232   1.450   9.338  1.00  0.00     0.370 C 
BRANCH  20  21
HETATM   21  O1  UNL     1     -16.718   2.216  10.211  1.00  0.00    -0.334 OA
BRANCH  21  22
HETATM   22  C2  UNL     1     -16.405   2.565  11.515  1.00  0.00     0.055 C 
HETATM   23  C1  UNL     1     -14.979   3.031  11.699  1.00  0.00     0.045 C 
HETATM   24  C3  UNL     1     -16.752   1.457  12.468  1.00  0.00     0.045 C 
HETATM   25  C4  UNL     1     -17.295   3.760  11.961  1.00  0.00     0.045 C 
ENDBRANCH  21  22
ENDBRANCH  20  21
BRANCH  20  26
HETATM   26  O2  UNL     1     -15.426   2.118   8.418  1.00  0.00    -0.354 OA
ATOM     27  H2  UNL     1     -14.675   1.605   8.142  1.00  0.00     0.214 HD
ENDBRANCH  20  26
ENDBRANCH  18  20
ENDBRANCH  11  18
BRANCH  13  28
HETATM   28  N3  UNL     1     -13.167   0.106  12.675  1.00  0.00    -0.234 N 
ATOM     29  H32 UNL     1     -13.317   0.998  13.147  1.00  0.00     0.174 HD
ATOM     30  H31 UNL     1     -12.970  -0.671  13.306  1.00  0.00     0.174 HD
ENDBRANCH  13  28
ENDBRANCH   8  10
ENDBRANCH   7   8
BRANCH   7  31
HETATM   31  C12 UNL     1     -14.703  -2.767   6.389  1.00  0.00     0.082 C 
HETATM   32  C13 UNL     1     -15.127  -2.951   5.064  1.00  0.00     0.186 C 
BRANCH  32  33
HETATM   33  O4  UNL     1     -15.625  -1.912   4.432  1.00  0.00    -0.341 OA
ATOM     34  H4  UNL     1     -16.283  -1.395   4.882  1.00  0.00     0.220 HD
ENDBRANCH  32  33
BRANCH  32  35
HETATM   35  O5  UNL     1     -15.175  -4.061   4.154  1.00  0.00    -0.264 OA
BRANCH  35  36
HETATM   36  C14 UNL     1     -16.394  -4.040   3.403  1.00  0.00     0.235 A 
HETATM   37  N5  UNL     1     -17.632  -3.856   3.651  1.00  0.00    -0.261 N 
HETATM   38  N6  UNL     1     -18.600  -3.929   2.693  1.00  0.00    -0.130 N 
ATOM     39  H5  UNL     1     -17.910  -3.646   4.610  1.00  0.00     0.190 HD
HETATM   40  C15 UNL     1     -18.257  -4.216   1.360  1.00  0.00     0.693 A 
ATOM     41  H6  UNL     1     -19.576  -3.775   2.944  1.00  0.00     0.205 HD
HETATM   42  N8  UNL     1     -16.987  -4.385   1.151  1.00  0.00    -0.151 N 
HETATM   43  C16 UNL     1     -15.993  -4.334   2.003  1.00  0.00     0.312 A 
ATOM     44  H8  UNL     1     -16.725  -4.586   0.185  1.00  0.00     0.188 HD
HETATM   45  O6  UNL     1     -14.803  -4.480   1.854  1.00  0.00    -0.263 OA
BRANCH  40  46
HETATM   46  N7  UNL     1     -19.138  -4.289   0.487  1.00  0.00    -0.233 N 
ATOM     47  H72 UNL     1     -20.115  -4.524   0.661  1.00  0.00     0.174 HD
ATOM     48  H71 UNL     1     -18.910  -4.110  -0.490  1.00  0.00     0.174 HD
ENDBRANCH  40  46
ENDBRANCH  35  36
ENDBRANCH  32  35
ENDBRANCH   7  31
BRANCH   6  49
HETATM   49  O7  UNL     1     -11.836  -0.962   5.390  1.00  0.00    -0.357 OA
ATOM     50  H7  UNL     1     -10.945  -0.659   5.525  1.00  0.00     0.218 HD
ENDBRANCH   6  49
ENDBRANCH   1   6
BRANCH   4  51
HETATM   51  O8  UNL     1     -12.260  -3.572   3.537  1.00  0.00    -0.289 OA
ATOM     52  H8  UNL     1     -12.662  -4.223   2.974  1.00  0.00     0.244 HD
ENDBRANCH   4  51
TORSDOF 16
ENDMDL
