MODEL 1
REMARK VINA RESULT: -10.171366812      0.000      0.000
REMARK  11 active torsions:
REMARK  status: ('A' for Active; 'I' for Inactive)
REMARK    1  A    between atoms: N1_1  and  N2_4 
REMARK    2  A    between atoms: N2_4  and  C1_6 
REMARK    3  A    between atoms: C3_8  and  N3_9 
REMARK    4  A    between atoms: C5_13  and  N4_14 
REMARK    5  A    between atoms: C6_17  and  N5_18 
REMARK       I    between atoms: N5_18  and  C7_20 
REMARK    6  A    between atoms: C7_20  and  O6_22 
REMARK    7  A    between atoms: O6_22  and  N6_23 
REMARK       I    between atoms: N6_23  and  C8_25 
REMARK    8  A    between atoms: N8_27  and  N9_29 
REMARK       I    between atoms: N9_29  and  C9_31 
REMARK    9  A    between atoms: C9_31  and  C10_33 
REMARK   10  A    between atoms: C10_33  and  N10_34 
REMARK   11  A    between atoms: C11_41  and  C12_42 
ROOT
HETATM    1  N6  UNL     1     -11.646  -1.685   9.637  1.00  0.00    -0.227 N 
ATOM      2  H6  UNL     1     -11.960  -1.810  10.600  1.00  0.00     0.198 HD
HETATM    3  C8  UNL     1     -11.413  -0.384   9.139  1.00  0.00     0.227 C 
HETATM    4  N7  UNL     1     -10.271  -0.108   8.293  1.00  0.00    -0.060 NA
HETATM    5  N8  UNL     1     -12.234   0.556   9.450  1.00  0.00    -0.269 N 
ATOM      6  H8  UNL     1     -12.091   1.505   9.105  1.00  0.00     0.190 HD
ENDROOT
BRANCH   1   7
HETATM    7  O6  UNL     1     -11.457  -2.763   8.848  1.00  0.00    -0.178 OA
BRANCH   7   8
HETATM    8  C7  UNL     1     -12.287  -3.150   7.818  1.00  0.00     0.387 C 
HETATM    9  N5  UNL     1     -12.452  -2.277   6.711  1.00  0.00    -0.297 N 
ATOM     10  H5  UNL     1     -11.973  -1.378   6.662  1.00  0.00     0.171 HD
HETATM   11  O5  UNL     1     -12.858  -4.265   7.915  1.00  0.00    -0.236 OA
BRANCH   9  12
HETATM   12  C6  UNL     1     -13.314  -2.718   5.677  1.00  0.00     0.098 A 
HETATM   13  C1  UNL     1     -12.813  -3.325   4.552  1.00  0.00     0.079 A 
HETATM   14  C2  UNL     1     -13.701  -3.738   3.569  1.00  0.00     0.069 A 
HETATM   15  C3  UNL     1     -15.060  -3.553   3.697  1.00  0.00     0.107 A 
HETATM   16  C4  UNL     1     -15.546  -2.941   4.835  1.00  0.00     0.074 A 
HETATM   17  C5  UNL     1     -14.666  -2.525   5.823  1.00  0.00     0.134 A 
BRANCH  13  18
HETATM   18  N2  UNL     1     -11.401  -3.514   4.425  1.00  0.00    -0.305 N 
ATOM     19  H2  UNL     1     -10.838  -2.770   4.012  1.00  0.00     0.186 HD
BRANCH  18  20
HETATM   20  N1  UNL     1     -10.766  -4.687   4.850  1.00  0.00    -0.345 N 
ATOM     21  H12 UNL     1     -11.353  -5.468   5.143  1.00  0.00     0.176 HD
ATOM     22  H11 UNL     1      -9.750  -4.777   4.872  1.00  0.00     0.176 HD
ENDBRANCH  18  20
ENDBRANCH  13  18
BRANCH  15  23
HETATM   23  N3  UNL     1     -15.941  -3.989   2.669  1.00  0.00    -0.116 N 
HETATM   24  O1  UNL     1     -16.684  -3.182   2.112  1.00  0.00    -0.532 OA
HETATM   25  O2  UNL     1     -15.946  -5.318   2.317  1.00  0.00    -0.532 OA
ENDBRANCH  15  23
BRANCH  17  26
HETATM   26  N4  UNL     1     -15.137  -1.895   7.000  1.00  0.00    -0.113 N 
HETATM   27  O3  UNL     1     -15.983  -2.501   7.683  1.00  0.00    -0.532 OA
HETATM   28  O4  UNL     1     -14.727  -0.661   7.440  1.00  0.00    -0.532 OA
ENDBRANCH  17  26
ENDBRANCH   9  12
ENDBRANCH   7   8
ENDBRANCH   1   7
BRANCH   5  29
HETATM   29  N9  UNL     1     -13.320   0.255  10.266  1.00  0.00    -0.266 N 
HETATM   30  C9  UNL     1     -14.419   1.168  10.330  1.00  0.00     0.256 C 
HETATM   31  O7  UNL     1     -14.398   2.225   9.657  1.00  0.00    -0.270 OA
ATOM     32  H9  UNL     1     -13.333  -0.606  10.812  1.00  0.00     0.190 HD
BRANCH  30  33
HETATM   33  C10 UNL     1     -15.567   0.827  11.206  1.00  0.00     0.257 C 
BRANCH  33  34
HETATM   34  N10 UNL     1     -16.646   0.168  10.541  1.00  0.00    -0.250 N 
HETATM   35  N11 UNL     1     -16.776   0.124   9.190  1.00  0.00    -0.224 N 
HETATM   36  N12 UNL     1     -17.832  -0.521   8.837  1.00  0.00    -0.226 N 
ATOM     37  H11 UNL     1     -16.118   0.549   8.537  1.00  0.00     0.210 HD
HETATM   38  N13 UNL     1     -18.409  -0.909   9.936  1.00  0.00    -0.268 N 
ATOM     39  H12 UNL     1     -18.152  -0.693   7.884  1.00  0.00     0.210 HD
HETATM   40  C11 UNL     1     -17.677  -0.486  11.038  1.00  0.00     0.150 A 
ATOM     41  H13 UNL     1     -19.275  -1.447   9.982  1.00  0.00     0.190 HD
BRANCH  40  42
HETATM   42  C12 UNL     1     -18.107  -0.759  12.401  1.00  0.00     0.011 A 
HETATM   43  C13 UNL     1     -18.608  -2.040  12.668  1.00  0.00     0.015 A 
HETATM   44  C14 UNL     1     -19.034  -2.427  13.927  1.00  0.00     0.001 A 
HETATM   45  C15 UNL     1     -18.979  -1.554  14.979  1.00  0.00     0.000 A 
HETATM   46  C16 UNL     1     -18.494  -0.297  14.752  1.00  0.00     0.001 A 
HETATM   47  C17 UNL     1     -18.064   0.080  13.460  1.00  0.00     0.015 A 
ENDBRANCH  40  42
ENDBRANCH  33  34
ENDBRANCH  30  33
ENDBRANCH   5  29
TORSDOF 11
ENDMDL
MODEL 2
REMARK VINA RESULT: -10.144149517      1.529      2.879
REMARK  11 active torsions:
REMARK  status: ('A' for Active; 'I' for Inactive)
REMARK    1  A    between atoms: N1_1  and  N2_4 
REMARK    2  A    between atoms: N2_4  and  C1_6 
REMARK    3  A    between atoms: C3_8  and  N3_9 
REMARK    4  A    between atoms: C5_13  and  N4_14 
REMARK    5  A    between atoms: C6_17  and  N5_18 
REMARK       I    between atoms: N5_18  and  C7_20 
REMARK    6  A    between atoms: C7_20  and  O6_22 
REMARK    7  A    between atoms: O6_22  and  N6_23 
REMARK       I    between atoms: N6_23  and  C8_25 
REMARK    8  A    between atoms: N8_27  and  N9_29 
REMARK       I    between atoms: N9_29  and  C9_31 
REMARK    9  A    between atoms: C9_31  and  C10_33 
REMARK   10  A    between atoms: C10_33  and  N10_34 
REMARK   11  A    between atoms: C11_41  and  C12_42 
ROOT
HETATM    1  N6  UNL     1     -11.255  -1.786   9.604  1.00  0.00    -0.227 N 
ATOM      2  H6  UNL     1     -11.325  -1.950  10.608  1.00  0.00     0.198 HD
HETATM    3  C8  UNL     1     -11.118  -0.466   9.117  1.00  0.00     0.227 C 
HETATM    4  N7  UNL     1     -10.212  -0.168   8.027  1.00  0.00    -0.060 NA
HETATM    5  N8  UNL     1     -11.814   0.469   9.658  1.00  0.00    -0.269 N 
ATOM      6  H8  UNL     1     -11.737   1.431   9.327  1.00  0.00     0.190 HD
ENDROOT
BRANCH   1   7
HETATM    7  O6  UNL     1     -11.291  -2.829   8.749  1.00  0.00    -0.178 OA
BRANCH   7   8
HETATM    8  C7  UNL     1     -12.317  -3.100   7.868  1.00  0.00     0.387 C 
HETATM    9  N5  UNL     1     -12.605  -2.156   6.848  1.00  0.00    -0.297 N 
ATOM     10  H5  UNL     1     -12.075  -1.290   6.754  1.00  0.00     0.171 HD
HETATM   11  O5  UNL     1     -12.946  -4.177   8.017  1.00  0.00    -0.236 OA
BRANCH   9  12
HETATM   12  C6  UNL     1     -13.667  -2.478   5.967  1.00  0.00     0.098 A 
HETATM   13  C1  UNL     1     -14.956  -2.094   6.247  1.00  0.00     0.079 A 
HETATM   14  C2  UNL     1     -15.959  -2.434   5.351  1.00  0.00     0.069 A 
HETATM   15  C3  UNL     1     -15.691  -3.143   4.200  1.00  0.00     0.107 A 
HETATM   16  C4  UNL     1     -14.391  -3.521   3.936  1.00  0.00     0.074 A 
HETATM   17  C5  UNL     1     -13.381  -3.184   4.825  1.00  0.00     0.134 A 
BRANCH  13  18
HETATM   18  N2  UNL     1     -15.227  -1.358   7.443  1.00  0.00    -0.305 N 
ATOM     19  H2  UNL     1     -14.502  -0.750   7.823  1.00  0.00     0.186 HD
BRANCH  18  20
HETATM   20  N1  UNL     1     -16.455  -1.445   8.109  1.00  0.00    -0.345 N 
ATOM     21  H12 UNL     1     -16.774  -2.368   8.405  1.00  0.00     0.176 HD
ATOM     22  H11 UNL     1     -17.027  -0.623   8.301  1.00  0.00     0.176 HD
ENDBRANCH  18  20
ENDBRANCH  13  18
BRANCH  15  23
HETATM   23  N3  UNL     1     -16.745  -3.476   3.303  1.00  0.00    -0.116 N 
HETATM   24  O1  UNL     1     -17.085  -4.650   3.162  1.00  0.00    -0.532 OA
HETATM   25  O2  UNL     1     -17.368  -2.468   2.606  1.00  0.00    -0.532 OA
ENDBRANCH  15  23
BRANCH  17  26
HETATM   26  N4  UNL     1     -12.039  -3.559   4.579  1.00  0.00    -0.113 N 
HETATM   27  O3  UNL     1     -11.339  -2.792   3.892  1.00  0.00    -0.532 OA
HETATM   28  O4  UNL     1     -11.454  -4.710   5.044  1.00  0.00    -0.532 OA
ENDBRANCH  17  26
ENDBRANCH   9  12
ENDBRANCH   7   8
ENDBRANCH   1   7
BRANCH   5  29
HETATM   29  N9  UNL     1     -12.674   0.147  10.703  1.00  0.00    -0.266 N 
HETATM   30  C9  UNL     1     -14.085   0.270  10.509  1.00  0.00     0.256 C 
HETATM   31  O7  UNL     1     -14.537   0.664   9.409  1.00  0.00    -0.270 OA
ATOM     32  H9  UNL     1     -12.303  -0.173  11.598  1.00  0.00     0.190 HD
BRANCH  30  33
HETATM   33  C10 UNL     1     -14.984  -0.079  11.637  1.00  0.00     0.257 C 
BRANCH  33  34
HETATM   34  N10 UNL     1     -15.840   0.983  12.064  1.00  0.00    -0.250 N 
HETATM   35  N11 UNL     1     -15.566   2.295  11.851  1.00  0.00    -0.224 N 
HETATM   36  N12 UNL     1     -16.484   3.055  12.335  1.00  0.00    -0.226 N 
ATOM     37  H11 UNL     1     -14.735   2.635  11.366  1.00  0.00     0.210 HD
HETATM   38  N13 UNL     1     -17.368   2.266  12.870  1.00  0.00    -0.268 N 
ATOM     39  H12 UNL     1     -16.511   4.075  12.306  1.00  0.00     0.210 HD
HETATM   40  C11 UNL     1     -16.987   0.939  12.713  1.00  0.00     0.150 A 
ATOM     41  H13 UNL     1     -18.220   2.577  13.337  1.00  0.00     0.190 HD
BRANCH  40  42
HETATM   42  C12 UNL     1     -17.780  -0.159  13.240  1.00  0.00     0.011 A 
HETATM   43  C13 UNL     1     -18.130  -0.102  14.596  1.00  0.00     0.015 A 
HETATM   44  C14 UNL     1     -18.896  -1.077  15.211  1.00  0.00     0.001 A 
HETATM   45  C15 UNL     1     -19.349  -2.155  14.502  1.00  0.00     0.000 A 
HETATM   46  C16 UNL     1     -19.027  -2.242  13.178  1.00  0.00     0.001 A 
HETATM   47  C17 UNL     1     -18.244  -1.236  12.567  1.00  0.00     0.015 A 
ENDBRANCH  40  42
ENDBRANCH  33  34
ENDBRANCH  30  33
ENDBRANCH   5  29
TORSDOF 11
ENDMDL
MODEL 3
REMARK VINA RESULT: -10.069681383      3.355      8.827
REMARK  11 active torsions:
REMARK  status: ('A' for Active; 'I' for Inactive)
REMARK    1  A    between atoms: N1_1  and  N2_4 
REMARK    2  A    between atoms: N2_4  and  C1_6 
REMARK    3  A    between atoms: C3_8  and  N3_9 
REMARK    4  A    between atoms: C5_13  and  N4_14 
REMARK    5  A    between atoms: C6_17  and  N5_18 
REMARK       I    between atoms: N5_18  and  C7_20 
REMARK    6  A    between atoms: C7_20  and  O6_22 
REMARK    7  A    between atoms: O6_22  and  N6_23 
REMARK       I    between atoms: N6_23  and  C8_25 
REMARK    8  A    between atoms: N8_27  and  N9_29 
REMARK       I    between atoms: N9_29  and  C9_31 
REMARK    9  A    between atoms: C9_31  and  C10_33 
REMARK   10  A    between atoms: C10_33  and  N10_34 
REMARK   11  A    between atoms: C11_41  and  C12_42 
ROOT
HETATM    1  N6  UNL     1     -13.718  -0.722   6.514  1.00  0.00    -0.227 N 
ATOM      2  H6  UNL     1     -14.410  -0.357   5.859  1.00  0.00     0.198 HD
HETATM    3  C8  UNL     1     -13.031  -1.920   6.214  1.00  0.00     0.227 C 
HETATM    4  N7  UNL     1     -11.615  -2.050   6.488  1.00  0.00    -0.060 NA
HETATM    5  N8  UNL     1     -13.684  -2.895   5.690  1.00  0.00    -0.269 N 
ATOM      6  H8  UNL     1     -13.215  -3.772   5.463  1.00  0.00     0.190 HD
ENDROOT
BRANCH   1   7
HETATM    7  O6  UNL     1     -13.465  -0.058   7.661  1.00  0.00    -0.178 OA
BRANCH   7   8
HETATM    8  C7  UNL     1     -14.155  -0.222   8.843  1.00  0.00     0.387 C 
HETATM    9  N5  UNL     1     -15.371   0.487   9.027  1.00  0.00    -0.297 N 
ATOM     10  H5  UNL     1     -15.741   1.110   8.309  1.00  0.00     0.171 HD
HETATM   11  O5  UNL     1     -13.665  -0.997   9.703  1.00  0.00    -0.236 OA
BRANCH   9  12
HETATM   12  C6  UNL     1     -16.043   0.287  10.257  1.00  0.00     0.098 A 
HETATM   13  C1  UNL     1     -15.550   0.817  11.425  1.00  0.00     0.079 A 
HETATM   14  C2  UNL     1     -16.248   0.591  12.603  1.00  0.00     0.069 A 
HETATM   15  C3  UNL     1     -17.411  -0.147  12.625  1.00  0.00     0.107 A 
HETATM   16  C4  UNL     1     -17.890  -0.673  11.443  1.00  0.00     0.074 A 
HETATM   17  C5  UNL     1     -17.201  -0.451  10.260  1.00  0.00     0.134 A 
BRANCH  13  18
HETATM   18  N2  UNL     1     -14.342   1.583  11.394  1.00  0.00    -0.305 N 
ATOM     19  H2  UNL     1     -13.488   1.143  11.053  1.00  0.00     0.186 HD
BRANCH  18  20
HETATM   20  N1  UNL     1     -14.296   2.916  11.818  1.00  0.00    -0.345 N 
ATOM     21  H12 UNL     1     -14.442   3.645  11.120  1.00  0.00     0.176 HD
ATOM     22  H11 UNL     1     -14.123   3.170  12.791  1.00  0.00     0.176 HD
ENDBRANCH  18  20
ENDBRANCH  13  18
BRANCH  15  23
HETATM   23  N3  UNL     1     -18.100  -0.359  13.852  1.00  0.00    -0.116 N 
HETATM   24  O1  UNL     1     -18.310   0.587  14.610  1.00  0.00    -0.532 OA
HETATM   25  O2  UNL     1     -18.519  -1.629  14.168  1.00  0.00    -0.532 OA
ENDBRANCH  15  23
BRANCH  17  26
HETATM   26  N4  UNL     1     -17.671  -0.979   9.034  1.00  0.00    -0.113 N 
HETATM   27  O3  UNL     1     -18.652  -0.427   8.503  1.00  0.00    -0.532 OA
HETATM   28  O4  UNL     1     -17.120  -2.057   8.388  1.00  0.00    -0.532 OA
ENDBRANCH  17  26
ENDBRANCH   9  12
ENDBRANCH   7   8
ENDBRANCH   1   7
BRANCH   5  29
HETATM   29  N9  UNL     1     -15.043  -2.735   5.439  1.00  0.00    -0.266 N 
HETATM   30  C9  UNL     1     -15.619  -3.359   4.289  1.00  0.00     0.256 C 
HETATM   31  O7  UNL     1     -14.904  -4.040   3.519  1.00  0.00    -0.270 OA
ATOM     32  H9  UNL     1     -15.622  -2.178   6.068  1.00  0.00     0.190 HD
BRANCH  30  33
HETATM   33  C10 UNL     1     -17.070  -3.174   4.041  1.00  0.00     0.257 C 
BRANCH  33  34
HETATM   34  N10 UNL     1     -17.612  -4.022   3.026  1.00  0.00    -0.250 N 
HETATM   35  N11 UNL     1     -17.435  -5.368   3.004  1.00  0.00    -0.224 N 
HETATM   36  N12 UNL     1     -18.012  -5.905   1.988  1.00  0.00    -0.226 N 
ATOM     37  H11 UNL     1     -16.909  -5.888   3.707  1.00  0.00     0.210 HD
HETATM   38  N13 UNL     1     -18.574  -4.934   1.331  1.00  0.00    -0.268 N 
ATOM     39  H12 UNL     1     -18.027  -6.896   1.746  1.00  0.00     0.210 HD
HETATM   40  C11 UNL     1     -18.337  -3.722   1.967  1.00  0.00     0.150 A 
ATOM     41  H13 UNL     1     -19.111  -5.046   0.471  1.00  0.00     0.190 HD
BRANCH  40  42
HETATM   42  C12 UNL     1     -18.828  -2.461   1.434  1.00  0.00     0.011 A 
HETATM   43  C13 UNL     1     -20.216  -2.318   1.307  1.00  0.00     0.015 A 
HETATM   44  C14 UNL     1     -20.807  -1.162   0.829  1.00  0.00     0.001 A 
HETATM   45  C15 UNL     1     -20.040  -0.093   0.454  1.00  0.00     0.000 A 
HETATM   46  C16 UNL     1     -18.683  -0.198   0.566  1.00  0.00     0.001 A 
HETATM   47  C17 UNL     1     -18.098  -1.387   1.057  1.00  0.00     0.015 A 
ENDBRANCH  40  42
ENDBRANCH  33  34
ENDBRANCH  30  33
ENDBRANCH   5  29
TORSDOF 11
ENDMDL
MODEL 4
REMARK VINA RESULT: -9.724501262      3.382      9.117
REMARK  11 active torsions:
REMARK  status: ('A' for Active; 'I' for Inactive)
REMARK    1  A    between atoms: N1_1  and  N2_4 
REMARK    2  A    between atoms: N2_4  and  C1_6 
REMARK    3  A    between atoms: C3_8  and  N3_9 
REMARK    4  A    between atoms: C5_13  and  N4_14 
REMARK    5  A    between atoms: C6_17  and  N5_18 
REMARK       I    between atoms: N5_18  and  C7_20 
REMARK    6  A    between atoms: C7_20  and  O6_22 
REMARK    7  A    between atoms: O6_22  and  N6_23 
REMARK       I    between atoms: N6_23  and  C8_25 
REMARK    8  A    between atoms: N8_27  and  N9_29 
REMARK       I    between atoms: N9_29  and  C9_31 
REMARK    9  A    between atoms: C9_31  and  C10_33 
REMARK   10  A    between atoms: C10_33  and  N10_34 
REMARK   11  A    between atoms: C11_41  and  C12_42 
ROOT
HETATM    1  N6  UNL     1     -15.138  -0.051   6.467  1.00  0.00    -0.227 N 
ATOM      2  H6  UNL     1     -15.562  -0.027   5.540  1.00  0.00     0.198 HD
HETATM    3  C8  UNL     1     -14.243  -1.091   6.804  1.00  0.00     0.227 C 
HETATM    4  N7  UNL     1     -13.041  -0.818   7.563  1.00  0.00    -0.060 NA
HETATM    5  N8  UNL     1     -14.514  -2.289   6.424  1.00  0.00    -0.269 N 
ATOM      6  H8  UNL     1     -13.887  -3.060   6.652  1.00  0.00     0.190 HD
ENDROOT
BRANCH   1   7
HETATM    7  O6  UNL     1     -15.436   0.912   7.365  1.00  0.00    -0.178 OA
BRANCH   7   8
HETATM    8  C7  UNL     1     -16.137   0.718   8.536  1.00  0.00     0.387 C 
HETATM    9  N5  UNL     1     -15.735  -0.330   9.406  1.00  0.00    -0.297 N 
ATOM     10  H5  UNL     1     -14.945  -0.936   9.184  1.00  0.00     0.171 HD
HETATM   11  O5  UNL     1     -17.103   1.486   8.773  1.00  0.00    -0.236 OA
BRANCH   9  12
HETATM   12  C6  UNL     1     -16.485  -0.490  10.596  1.00  0.00     0.098 A 
HETATM   13  C1  UNL     1     -17.710  -1.111  10.580  1.00  0.00     0.079 A 
HETATM   14  C2  UNL     1     -18.404  -1.242  11.774  1.00  0.00     0.069 A 
HETATM   15  C3  UNL     1     -17.896  -0.767  12.963  1.00  0.00     0.107 A 
HETATM   16  C4  UNL     1     -16.664  -0.145  12.960  1.00  0.00     0.074 A 
HETATM   17  C5  UNL     1     -15.962  -0.010  11.772  1.00  0.00     0.134 A 
BRANCH  13  18
HETATM   18  N2  UNL     1     -18.232  -1.603   9.342  1.00  0.00    -0.305 N 
ATOM     19  H2  UNL     1     -17.918  -2.510   9.000  1.00  0.00     0.186 HD
BRANCH  18  20
HETATM   20  N1  UNL     1     -19.161  -0.878   8.585  1.00  0.00    -0.345 N 
ATOM     21  H12 UNL     1     -18.837  -0.036   8.110  1.00  0.00     0.176 HD
ATOM     22  H11 UNL     1     -20.135  -1.169   8.500  1.00  0.00     0.176 HD
ENDBRANCH  18  20
ENDBRANCH  13  18
BRANCH  15  23
HETATM   23  N3  UNL     1     -18.635  -0.918  14.169  1.00  0.00    -0.116 N 
HETATM   24  O1  UNL     1     -18.378  -0.210  15.141  1.00  0.00    -0.532 OA
HETATM   25  O2  UNL     1     -19.631  -1.864  14.223  1.00  0.00    -0.532 OA
ENDBRANCH  15  23
BRANCH  17  26
HETATM   26  N4  UNL     1     -14.696   0.623  11.741  1.00  0.00    -0.113 N 
HETATM   27  O3  UNL     1     -13.691  -0.080  11.952  1.00  0.00    -0.532 OA
HETATM   28  O4  UNL     1     -14.500   1.959  11.495  1.00  0.00    -0.532 OA
ENDBRANCH  17  26
ENDBRANCH   9  12
ENDBRANCH   7   8
ENDBRANCH   1   7
BRANCH   5  29
HETATM   29  N9  UNL     1     -15.678  -2.516   5.696  1.00  0.00    -0.266 N 
HETATM   30  C9  UNL     1     -15.597  -3.206   4.447  1.00  0.00     0.256 C 
HETATM   31  O7  UNL     1     -14.488  -3.600   4.017  1.00  0.00    -0.270 OA
ATOM     32  H9  UNL     1     -16.579  -2.192   6.049  1.00  0.00     0.190 HD
BRANCH  30  33
HETATM   33  C10 UNL     1     -16.850  -3.437   3.687  1.00  0.00     0.257 C 
BRANCH  33  34
HETATM   34  N10 UNL     1     -16.659  -3.754   2.307  1.00  0.00    -0.250 N 
HETATM   35  N11 UNL     1     -15.748  -4.660   1.868  1.00  0.00    -0.224 N 
HETATM   36  N12 UNL     1     -15.762  -4.763   0.586  1.00  0.00    -0.226 N 
ATOM     37  H11 UNL     1     -15.130  -5.193   2.480  1.00  0.00     0.210 HD
HETATM   38  N13 UNL     1     -16.672  -3.936   0.163  1.00  0.00    -0.268 N 
ATOM     39  H12 UNL     1     -15.176  -5.371   0.015  1.00  0.00     0.210 HD
HETATM   40  C11 UNL     1     -17.262  -3.279   1.236  1.00  0.00     0.150 A 
ATOM     41  H13 UNL     1     -16.918  -3.790  -0.817  1.00  0.00     0.190 HD
BRANCH  40  42
HETATM   42  C12 UNL     1     -18.297  -2.275   1.051  1.00  0.00     0.011 A 
HETATM   43  C13 UNL     1     -19.623  -2.725   1.004  1.00  0.00     0.015 A 
HETATM   44  C14 UNL     1     -20.698  -1.867   0.849  1.00  0.00     0.001 A 
HETATM   45  C15 UNL     1     -20.500  -0.519   0.734  1.00  0.00     0.000 A 
HETATM   46  C16 UNL     1     -19.220  -0.046   0.777  1.00  0.00     0.001 A 
HETATM   47  C17 UNL     1     -18.135  -0.937   0.936  1.00  0.00     0.015 A 
ENDBRANCH  40  42
ENDBRANCH  33  34
ENDBRANCH  30  33
ENDBRANCH   5  29
TORSDOF 11
ENDMDL
MODEL 5
REMARK VINA RESULT: -9.718820463      3.367      9.159
REMARK  11 active torsions:
REMARK  status: ('A' for Active; 'I' for Inactive)
REMARK    1  A    between atoms: N1_1  and  N2_4 
REMARK    2  A    between atoms: N2_4  and  C1_6 
REMARK    3  A    between atoms: C3_8  and  N3_9 
REMARK    4  A    between atoms: C5_13  and  N4_14 
REMARK    5  A    between atoms: C6_17  and  N5_18 
REMARK       I    between atoms: N5_18  and  C7_20 
REMARK    6  A    between atoms: C7_20  and  O6_22 
REMARK    7  A    between atoms: O6_22  and  N6_23 
REMARK       I    between atoms: N6_23  and  C8_25 
REMARK    8  A    between atoms: N8_27  and  N9_29 
REMARK       I    between atoms: N9_29  and  C9_31 
REMARK    9  A    between atoms: C9_31  and  C10_33 
REMARK   10  A    between atoms: C10_33  and  N10_34 
REMARK   11  A    between atoms: C11_41  and  C12_42 
ROOT
HETATM    1  N6  UNL     1     -14.927  -0.255   6.537  1.00  0.00    -0.227 N 
ATOM      2  H6  UNL     1     -15.464  -0.140   5.677  1.00  0.00     0.198 HD
HETATM    3  C8  UNL     1     -13.888  -1.210   6.595  1.00  0.00     0.227 C 
HETATM    4  N7  UNL     1     -12.638  -0.907   7.258  1.00  0.00    -0.060 NA
HETATM    5  N8  UNL     1     -14.071  -2.359   6.047  1.00  0.00    -0.269 N 
ATOM      6  H8  UNL     1     -13.340  -3.069   6.073  1.00  0.00     0.190 HD
ENDROOT
BRANCH   1   7
HETATM    7  O6  UNL     1     -15.214   0.509   7.612  1.00  0.00    -0.178 OA
BRANCH   7   8
HETATM    8  C7  UNL     1     -15.694   0.039   8.816  1.00  0.00     0.387 C 
HETATM    9  N5  UNL     1     -16.799   0.701   9.414  1.00  0.00    -0.297 N 
ATOM     10  H5  UNL     1     -17.240   1.510   8.976  1.00  0.00     0.171 HD
HETATM   11  O5  UNL     1     -15.124  -0.959   9.323  1.00  0.00    -0.236 OA
BRANCH   9  12
HETATM   12  C6  UNL     1     -17.257   0.182  10.650  1.00  0.00     0.098 A 
HETATM   13  C1  UNL     1     -18.074  -0.921  10.692  1.00  0.00     0.079 A 
HETATM   14  C2  UNL     1     -18.494  -1.390  11.928  1.00  0.00     0.069 A 
HETATM   15  C3  UNL     1     -18.114  -0.776  13.102  1.00  0.00     0.107 A 
HETATM   16  C4  UNL     1     -17.294   0.332  13.041  1.00  0.00     0.074 A 
HETATM   17  C5  UNL     1     -16.867   0.807  11.809  1.00  0.00     0.134 A 
BRANCH  13  18
HETATM   18  N2  UNL     1     -18.464  -1.554   9.469  1.00  0.00    -0.305 N 
ATOM     19  H2  UNL     1     -19.337  -1.272   9.025  1.00  0.00     0.186 HD
BRANCH  18  20
HETATM   20  N1  UNL     1     -17.685  -2.547   8.864  1.00  0.00    -0.345 N 
ATOM     21  H12 UNL     1     -16.869  -2.890   9.371  1.00  0.00     0.176 HD
ATOM     22  H11 UNL     1     -17.912  -2.929   7.945  1.00  0.00     0.176 HD
ENDBRANCH  18  20
ENDBRANCH  13  18
BRANCH  15  23
HETATM   23  N3  UNL     1     -18.565  -1.283  14.353  1.00  0.00    -0.116 N 
HETATM   24  O1  UNL     1     -18.402  -0.624  15.378  1.00  0.00    -0.532 OA
HETATM   25  O2  UNL     1     -19.178  -2.513  14.390  1.00  0.00    -0.532 OA
ENDBRANCH  15  23
BRANCH  17  26
HETATM   26  N4  UNL     1     -16.025   1.941  11.718  1.00  0.00    -0.113 N 
HETATM   27  O3  UNL     1     -16.565   3.056  11.604  1.00  0.00    -0.532 OA
HETATM   28  O4  UNL     1     -14.653   1.896  11.745  1.00  0.00    -0.532 OA
ENDBRANCH  17  26
ENDBRANCH   9  12
ENDBRANCH   7   8
ENDBRANCH   1   7
BRANCH   5  29
HETATM   29  N9  UNL     1     -15.286  -2.616   5.417  1.00  0.00    -0.266 N 
HETATM   30  C9  UNL     1     -15.288  -3.272   4.147  1.00  0.00     0.256 C 
HETATM   31  O7  UNL     1     -14.207  -3.608   3.611  1.00  0.00    -0.270 OA
ATOM     32  H9  UNL     1     -16.164  -2.340   5.857  1.00  0.00     0.190 HD
BRANCH  30  33
HETATM   33  C10 UNL     1     -16.594  -3.537   3.494  1.00  0.00     0.257 C 
BRANCH  33  34
HETATM   34  N10 UNL     1     -16.511  -3.823   2.096  1.00  0.00    -0.250 N 
HETATM   35  N11 UNL     1     -15.611  -4.688   1.563  1.00  0.00    -0.224 N 
HETATM   36  N12 UNL     1     -15.733  -4.770   0.285  1.00  0.00    -0.226 N 
ATOM     37  H11 UNL     1     -14.923  -5.208   2.109  1.00  0.00     0.210 HD
HETATM   38  N13 UNL     1     -16.705  -3.970  -0.042  1.00  0.00    -0.268 N 
ATOM     39  H12 UNL     1     -15.177  -5.347  -0.346  1.00  0.00     0.210 HD
HETATM   40  C11 UNL     1     -17.222  -3.353   1.091  1.00  0.00     0.150 A 
ATOM     41  H13 UNL     1     -17.040  -3.817  -0.993  1.00  0.00     0.190 HD
BRANCH  40  42
HETATM   42  C12 UNL     1     -18.304  -2.385   1.016  1.00  0.00     0.011 A 
HETATM   43  C13 UNL     1     -19.612  -2.888   1.004  1.00  0.00     0.015 A 
HETATM   44  C14 UNL     1     -20.726  -2.069   0.952  1.00  0.00     0.001 A 
HETATM   45  C15 UNL     1     -20.588  -0.709   0.909  1.00  0.00     0.000 A 
HETATM   46  C16 UNL     1     -19.327  -0.185   0.920  1.00  0.00     0.001 A 
HETATM   47  C17 UNL     1     -18.201  -1.037   0.974  1.00  0.00     0.015 A 
ENDBRANCH  40  42
ENDBRANCH  33  34
ENDBRANCH  30  33
ENDBRANCH   5  29
TORSDOF 11
ENDMDL
