MODEL 1
REMARK VINA RESULT: -7.929490382      0.000      0.000
REMARK  6 active torsions:
REMARK  status: ('A' for Active; 'I' for Inactive)
REMARK    1  A    between atoms: C2_3  and  C3_4 
REMARK    2  A    between atoms: C3_4  and  C4_5 
REMARK    3  A    between atoms: C5_6  and  O2_7 
REMARK    4  A    between atoms: C13_20  and  O3_21 
REMARK    5  A    between atoms: N3_23  and  C14_24 
REMARK    6  A    between atoms: C14_24  and  C15_25 
ROOT
HETATM    1  O1  UNL     1      -5.169   2.660  11.226  1.00  0.00    -0.265 OA
HETATM    2  C1  UNL     1      -4.904   2.392  12.422  1.00  0.00     0.276 A 
HETATM    3  C2  UNL     1      -5.006   3.348  13.430  1.00  0.00     0.103 A 
HETATM    4  N2  UNL     1      -4.657   2.698  14.538  1.00  0.00    -0.336 N 
ATOM      5  H2  UNL     1      -4.624   3.111  15.470  1.00  0.00     0.168 HD
HETATM    6  C12 UNL     1      -4.354   1.413  14.250  1.00  0.00     0.133 A 
HETATM    7  C13 UNL     1      -3.999   0.483  15.126  1.00  0.00     0.179 C 
HETATM    8  N3  UNL     1      -4.506   1.208  12.905  1.00  0.00    -0.291 N 
ENDROOT
BRANCH   3   9
HETATM    9  C3  UNL     1      -5.384   4.631  13.294  1.00  0.00     0.052 C 
BRANCH   9  10
HETATM   10  C4  UNL     1      -4.477   5.603  12.730  1.00  0.00     0.030 A 
HETATM   11  C5  UNL     1      -4.256   5.855  11.406  1.00  0.00     0.151 A 
HETATM   12  N1  UNL     1      -3.317   6.847  11.290  1.00  0.00    -0.336 N 
HETATM   13  C6  UNL     1      -2.930   7.235  12.526  1.00  0.00     0.045 A 
ATOM     14  H1  UNL     1      -2.966   7.230  10.411  1.00  0.00     0.168 HD
HETATM   15  C7  UNL     1      -2.033   8.171  12.996  1.00  0.00     0.030 A 
HETATM   16  C11 UNL     1      -3.653   6.460  13.415  1.00  0.00     0.005 A 
HETATM   17  C8  UNL     1      -1.859   8.332  14.361  1.00  0.00     0.002 A 
HETATM   18  C9  UNL     1      -2.570   7.569  15.271  1.00  0.00     0.001 A 
HETATM   19  C10 UNL     1      -3.445   6.657  14.762  1.00  0.00     0.014 A 
BRANCH  11  20
HETATM   20  O2  UNL     1      -4.882   5.214  10.348  1.00  0.00    -0.345 OA
ATOM     21  H2  UNL     1      -5.751   5.411  10.018  1.00  0.00     0.219 HD
ENDBRANCH  11  20
ENDBRANCH   9  10
ENDBRANCH   3   9
BRANCH   8  22
HETATM   22  C14 UNL     1      -4.267  -0.062  12.256  1.00  0.00     0.192 C 
BRANCH  22  23
HETATM   23  C15 UNL     1      -3.127  -0.168  11.362  1.00  0.00     0.045 A 
HETATM   24  N4  UNL     1      -2.517   0.945  10.844  1.00  0.00    -0.367 N 
HETATM   25  C16 UNL     1      -1.514   0.600  10.027  1.00  0.00     0.089 A 
ATOM     26  H4  UNL     1      -2.790   1.905  11.053  1.00  0.00     0.165 HD
HETATM   27  C17 UNL     1      -1.460  -0.760  10.008  1.00  0.00     0.038 A 
HETATM   28  C18 UNL     1      -2.467  -1.240  10.842  1.00  0.00     0.036 A 
HETATM   29 BR1  UNL     1      -2.747  -3.123  11.197  1.00  0.00    -0.049 Br
ENDBRANCH  22  23
ENDBRANCH   8  22
BRANCH   7  30
HETATM   30  O3  UNL     1      -3.927   0.866  16.483  1.00  0.00    -0.369 OA
ATOM     31  H3  UNL     1      -3.854   0.173  17.127  1.00  0.00     0.216 HD
ENDBRANCH   7  30
TORSDOF 6
ENDMDL
MODEL 2
REMARK VINA RESULT: -7.857233281      2.491      5.905
REMARK  6 active torsions:
REMARK  status: ('A' for Active; 'I' for Inactive)
REMARK    1  A    between atoms: C2_3  and  C3_4 
REMARK    2  A    between atoms: C3_4  and  C4_5 
REMARK    3  A    between atoms: C5_6  and  O2_7 
REMARK    4  A    between atoms: C13_20  and  O3_21 
REMARK    5  A    between atoms: N3_23  and  C14_24 
REMARK    6  A    between atoms: C14_24  and  C15_25 
ROOT
HETATM    1  O1  UNL     1      -5.401   2.488  11.263  1.00  0.00    -0.265 OA
HETATM    2  C1  UNL     1      -4.963   2.118  12.379  1.00  0.00     0.276 A 
HETATM    3  C2  UNL     1      -4.330   0.889  12.550  1.00  0.00     0.103 A 
HETATM    4  N2  UNL     1      -4.008   0.861  13.841  1.00  0.00    -0.336 N 
ATOM      5  H2  UNL     1      -3.526   0.091  14.305  1.00  0.00     0.168 HD
HETATM    6  C12 UNL     1      -4.411   1.999  14.448  1.00  0.00     0.133 A 
HETATM    7  C13 UNL     1      -4.220   2.310  15.723  1.00  0.00     0.179 C 
HETATM    8  N3  UNL     1      -5.022   2.806  13.526  1.00  0.00    -0.291 N 
ENDROOT
BRANCH   3   9
HETATM    9  C3  UNL     1      -4.098  -0.041  11.607  1.00  0.00     0.052 C 
BRANCH   9  10
HETATM   10  C4  UNL     1      -2.878  -0.009  10.835  1.00  0.00     0.030 A 
HETATM   11  C5  UNL     1      -2.199  -1.076  10.319  1.00  0.00     0.151 A 
HETATM   12  N1  UNL     1      -1.088  -0.622   9.656  1.00  0.00    -0.336 N 
HETATM   13  C6  UNL     1      -1.046   0.728   9.741  1.00  0.00     0.045 A 
ATOM     14  H1  UNL     1      -0.404  -1.207   9.177  1.00  0.00     0.168 HD
HETATM   15  C7  UNL     1      -0.173   1.687   9.271  1.00  0.00     0.030 A 
HETATM   16  C11 UNL     1      -2.158   1.102  10.472  1.00  0.00     0.005 A 
HETATM   17  C8  UNL     1      -0.415   3.024   9.535  1.00  0.00     0.002 A 
HETATM   18  C9  UNL     1      -1.521   3.425  10.264  1.00  0.00     0.001 A 
HETATM   19  C10 UNL     1      -2.356   2.444  10.708  1.00  0.00     0.014 A 
BRANCH  11  20
HETATM   20  O2  UNL     1      -2.572  -2.406  10.443  1.00  0.00    -0.345 OA
ATOM     21  H2  UNL     1      -1.992  -3.153  10.352  1.00  0.00     0.219 HD
ENDBRANCH  11  20
ENDBRANCH   9  10
ENDBRANCH   3   9
BRANCH   8  22
HETATM   22  C14 UNL     1      -5.570   4.107  13.838  1.00  0.00     0.192 C 
BRANCH  22  23
HETATM   23  C15 UNL     1      -4.936   5.274  13.249  1.00  0.00     0.045 A 
HETATM   24  N4  UNL     1      -5.632   6.132  12.436  1.00  0.00    -0.367 N 
HETATM   25  C16 UNL     1      -4.836   7.112  11.990  1.00  0.00     0.089 A 
ATOM     26  H4  UNL     1      -6.620   6.036  12.203  1.00  0.00     0.165 HD
HETATM   27  C17 UNL     1      -3.600   6.900  12.519  1.00  0.00     0.038 A 
HETATM   28  C18 UNL     1      -3.663   5.752  13.306  1.00  0.00     0.036 A 
HETATM   29 BR1  UNL     1      -2.162   5.080  14.327  1.00  0.00    -0.049 Br
ENDBRANCH  22  23
ENDBRANCH   8  22
BRANCH   7  30
HETATM   30  O3  UNL     1      -3.537   1.368  16.523  1.00  0.00    -0.369 OA
ATOM     31  H3  UNL     1      -2.832   1.692  17.070  1.00  0.00     0.216 HD
ENDBRANCH   7  30
TORSDOF 6
ENDMDL
MODEL 3
REMARK VINA RESULT: -7.829839754      1.925      2.730
REMARK  6 active torsions:
REMARK  status: ('A' for Active; 'I' for Inactive)
REMARK    1  A    between atoms: C2_3  and  C3_4 
REMARK    2  A    between atoms: C3_4  and  C4_5 
REMARK    3  A    between atoms: C5_6  and  O2_7 
REMARK    4  A    between atoms: C13_20  and  O3_21 
REMARK    5  A    between atoms: N3_23  and  C14_24 
REMARK    6  A    between atoms: C14_24  and  C15_25 
ROOT
HETATM    1  O1  UNL     1      -4.174   3.061  11.090  1.00  0.00    -0.265 OA
HETATM    2  C1  UNL     1      -4.149   2.617  12.263  1.00  0.00     0.276 A 
HETATM    3  C2  UNL     1      -4.107   3.463  13.369  1.00  0.00     0.103 A 
HETATM    4  N2  UNL     1      -4.098   2.639  14.415  1.00  0.00    -0.336 N 
ATOM      5  H2  UNL     1      -4.069   2.935  15.390  1.00  0.00     0.168 HD
HETATM    6  C12 UNL     1      -4.133   1.354  13.997  1.00  0.00     0.133 A 
HETATM    7  C13 UNL     1      -4.168   0.284  14.779  1.00  0.00     0.179 C 
HETATM    8  N3  UNL     1      -4.164   1.329  12.628  1.00  0.00    -0.291 N 
ENDROOT
BRANCH   3   9
HETATM    9  C3  UNL     1      -4.088   4.808  13.361  1.00  0.00     0.052 C 
BRANCH   9  10
HETATM   10  C4  UNL     1      -5.314   5.554  13.204  1.00  0.00     0.030 A 
HETATM   11  C5  UNL     1      -6.472   5.397  13.911  1.00  0.00     0.151 A 
HETATM   12  N1  UNL     1      -7.401   6.295  13.453  1.00  0.00    -0.336 N 
HETATM   13  C6  UNL     1      -6.852   7.028  12.457  1.00  0.00     0.045 A 
ATOM     14  H1  UNL     1      -8.353   6.395  13.807  1.00  0.00     0.168 HD
HETATM   15  C7  UNL     1      -7.317   8.049  11.655  1.00  0.00     0.030 A 
HETATM   16  C11 UNL     1      -5.558   6.564  12.308  1.00  0.00     0.005 A 
HETATM   17  C8  UNL     1      -6.485   8.606  10.699  1.00  0.00     0.002 A 
HETATM   18  C9  UNL     1      -5.186   8.159  10.529  1.00  0.00     0.001 A 
HETATM   19  C10 UNL     1      -4.768   7.150  11.344  1.00  0.00     0.014 A 
BRANCH  11  20
HETATM   20  O2  UNL     1      -6.677   4.479  14.930  1.00  0.00    -0.345 OA
ATOM     21  H2  UNL     1      -7.459   3.954  15.051  1.00  0.00     0.219 HD
ENDBRANCH  11  20
ENDBRANCH   9  10
ENDBRANCH   3   9
BRANCH   8  22
HETATM   22  C14 UNL     1      -4.211   0.112  11.850  1.00  0.00     0.192 C 
BRANCH  22  23
HETATM   23  C15 UNL     1      -3.036  -0.250  11.075  1.00  0.00     0.045 A 
HETATM   24  N4  UNL     1      -2.255   0.703  10.475  1.00  0.00    -0.367 N 
HETATM   25  C16 UNL     1      -1.251   0.134   9.795  1.00  0.00     0.089 A 
ATOM     26  H4  UNL     1      -2.415   1.709  10.539  1.00  0.00     0.165 HD
HETATM   27  C17 UNL     1      -1.372  -1.212   9.950  1.00  0.00     0.038 A 
HETATM   28  C18 UNL     1      -2.487  -1.452  10.751  1.00  0.00     0.036 A 
HETATM   29 BR1  UNL     1      -3.031  -3.223  11.314  1.00  0.00    -0.049 Br
ENDBRANCH  22  23
ENDBRANCH   8  22
BRANCH   7  30
HETATM   30  O3  UNL     1      -4.165   0.501  16.174  1.00  0.00    -0.369 OA
ATOM     31  H3  UNL     1      -4.973   0.808  16.568  1.00  0.00     0.216 HD
ENDBRANCH   7  30
TORSDOF 6
ENDMDL
MODEL 4
REMARK VINA RESULT: -7.780507596      1.355      1.937
REMARK  6 active torsions:
REMARK  status: ('A' for Active; 'I' for Inactive)
REMARK    1  A    between atoms: C2_3  and  C3_4 
REMARK    2  A    between atoms: C3_4  and  C4_5 
REMARK    3  A    between atoms: C5_6  and  O2_7 
REMARK    4  A    between atoms: C13_20  and  O3_21 
REMARK    5  A    between atoms: N3_23  and  C14_24 
REMARK    6  A    between atoms: C14_24  and  C15_25 
ROOT
HETATM    1  O1  UNL     1      -4.736   3.098  11.415  1.00  0.00    -0.265 OA
HETATM    2  C1  UNL     1      -4.582   2.602  12.557  1.00  0.00     0.276 A 
HETATM    3  C2  UNL     1      -4.576   3.390  13.705  1.00  0.00     0.103 A 
HETATM    4  N2  UNL     1      -4.399   2.523  14.699  1.00  0.00    -0.336 N 
ATOM      5  H2  UNL     1      -4.345   2.771  15.687  1.00  0.00     0.168 HD
HETATM    6  C12 UNL     1      -4.299   1.267  14.211  1.00  0.00     0.133 A 
HETATM    7  C13 UNL     1      -4.151   0.163  14.931  1.00  0.00     0.179 C 
HETATM    8  N3  UNL     1      -4.413   1.306  12.847  1.00  0.00    -0.291 N 
ENDROOT
BRANCH   3   9
HETATM    9  C3  UNL     1      -4.726   4.725  13.774  1.00  0.00     0.052 C 
BRANCH   9  10
HETATM   10  C4  UNL     1      -3.592   5.598  13.577  1.00  0.00     0.030 A 
HETATM   11  C5  UNL     1      -2.361   5.496  14.160  1.00  0.00     0.151 A 
HETATM   12  N1  UNL     1      -1.569   6.522  13.714  1.00  0.00    -0.336 N 
HETATM   13  C6  UNL     1      -2.280   7.285  12.852  1.00  0.00     0.045 A 
ATOM     14  H1  UNL     1      -0.600   6.685  13.989  1.00  0.00     0.168 HD
HETATM   15  C7  UNL     1      -1.993   8.418  12.120  1.00  0.00     0.030 A 
HETATM   16  C11 UNL     1      -3.533   6.707  12.771  1.00  0.00     0.005 A 
HETATM   17  C8  UNL     1      -2.965   8.975  11.306  1.00  0.00     0.002 A 
HETATM   18  C9  UNL     1      -4.227   8.416  11.207  1.00  0.00     0.001 A 
HETATM   19  C10 UNL     1      -4.465   7.296  11.947  1.00  0.00     0.014 A 
BRANCH  11  20
HETATM   20  O2  UNL     1      -1.972   4.512  15.055  1.00  0.00    -0.345 OA
ATOM     21  H2  UNL     1      -1.298   4.604  15.719  1.00  0.00     0.219 HD
ENDBRANCH  11  20
ENDBRANCH   9  10
ENDBRANCH   3   9
BRANCH   8  22
HETATM   22  C14 UNL     1      -4.356   0.133  12.004  1.00  0.00     0.192 C 
BRANCH  22  23
HETATM   23  C15 UNL     1      -3.158  -0.080  11.210  1.00  0.00     0.045 A 
HETATM   24  N4  UNL     1      -2.452   0.971  10.685  1.00  0.00    -0.367 N 
HETATM   25  C16 UNL     1      -1.409   0.531   9.969  1.00  0.00     0.089 A 
ATOM     26  H4  UNL     1      -2.687   1.954  10.821  1.00  0.00     0.165 HD
HETATM   27  C17 UNL     1      -1.426  -0.829  10.025  1.00  0.00     0.038 A 
HETATM   28  C18 UNL     1      -2.519  -1.210  10.802  1.00  0.00     0.036 A 
HETATM   29 BR1  UNL     1      -2.926  -3.054  11.231  1.00  0.00    -0.049 Br
ENDBRANCH  22  23
ENDBRANCH   8  22
BRANCH   7  30
HETATM   30  O3  UNL     1      -4.087   0.309  16.333  1.00  0.00    -0.369 OA
ATOM     31  H3  UNL     1      -4.031  -0.486  16.851  1.00  0.00     0.216 HD
ENDBRANCH   7  30
TORSDOF 6
ENDMDL
MODEL 5
REMARK VINA RESULT: -7.664393709      2.769      6.510
REMARK  6 active torsions:
REMARK  status: ('A' for Active; 'I' for Inactive)
REMARK    1  A    between atoms: C2_3  and  C3_4 
REMARK    2  A    between atoms: C3_4  and  C4_5 
REMARK    3  A    between atoms: C5_6  and  O2_7 
REMARK    4  A    between atoms: C13_20  and  O3_21 
REMARK    5  A    between atoms: N3_23  and  C14_24 
REMARK    6  A    between atoms: C14_24  and  C15_25 
ROOT
HETATM    1  O1  UNL     1      -6.022   2.564  12.323  1.00  0.00    -0.265 OA
HETATM    2  C1  UNL     1      -4.932   2.963  12.799  1.00  0.00     0.276 A 
HETATM    3  C2  UNL     1      -3.748   2.911  12.068  1.00  0.00     0.103 A 
HETATM    4  N2  UNL     1      -2.831   3.419  12.889  1.00  0.00    -0.336 N 
ATOM      5  H2  UNL     1      -1.842   3.526  12.663  1.00  0.00     0.168 HD
HETATM    6  C12 UNL     1      -3.399   3.770  14.064  1.00  0.00     0.133 A 
HETATM    7  C13 UNL     1      -2.777   4.335  15.090  1.00  0.00     0.179 C 
HETATM    8  N3  UNL     1      -4.737   3.483  14.018  1.00  0.00    -0.291 N 
ENDROOT
BRANCH   3   9
HETATM    9  C3  UNL     1      -3.589   2.455  10.813  1.00  0.00     0.052 C 
BRANCH   9  10
HETATM   10  C4  UNL     1      -2.696   1.352  10.545  1.00  0.00     0.030 A 
HETATM   11  C5  UNL     1      -1.485   1.404   9.916  1.00  0.00     0.151 A 
HETATM   12  N1  UNL     1      -0.957   0.140   9.856  1.00  0.00    -0.336 N 
HETATM   13  C6  UNL     1      -1.818  -0.725  10.439  1.00  0.00     0.045 A 
ATOM     14  H1  UNL     1      -0.060  -0.108   9.439  1.00  0.00     0.168 HD
HETATM   15  C7  UNL     1      -1.803  -2.087  10.655  1.00  0.00     0.030 A 
HETATM   16  C11 UNL     1      -2.894   0.032  10.864  1.00  0.00     0.005 A 
HETATM   17  C8  UNL     1      -2.869  -2.693  11.299  1.00  0.00     0.002 A 
HETATM   18  C9  UNL     1      -3.958  -1.958  11.734  1.00  0.00     0.001 A 
HETATM   19  C10 UNL     1      -3.930  -0.616  11.500  1.00  0.00     0.014 A 
BRANCH  11  20
HETATM   20  O2  UNL     1      -0.882   2.550   9.420  1.00  0.00    -0.345 OA
ATOM     21  H2  UNL     1      -1.073   3.439   9.698  1.00  0.00     0.219 HD
ENDBRANCH  11  20
ENDBRANCH   9  10
ENDBRANCH   3   9
BRANCH   8  22
HETATM   22  C14 UNL     1      -5.649   3.737  15.110  1.00  0.00     0.192 C 
BRANCH  22  23
HETATM   23  C15 UNL     1      -5.914   2.656  16.044  1.00  0.00     0.045 A 
HETATM   24  N4  UNL     1      -6.781   2.816  17.095  1.00  0.00    -0.367 N 
HETATM   25  C16 UNL     1      -6.842   1.700  17.833  1.00  0.00     0.089 A 
ATOM     26  H4  UNL     1      -7.307   3.668  17.288  1.00  0.00     0.165 HD
HETATM   27  C17 UNL     1      -6.007   0.792  17.260  1.00  0.00     0.038 A 
HETATM   28  C18 UNL     1      -5.428   1.389  16.142  1.00  0.00     0.036 A 
HETATM   29 BR1  UNL     1      -4.213   0.463  14.952  1.00  0.00    -0.049 Br
ENDBRANCH  22  23
ENDBRANCH   8  22
BRANCH   7  30
HETATM   30  O3  UNL     1      -1.396   4.591  14.947  1.00  0.00    -0.369 OA
ATOM     31  H3  UNL     1      -0.950   4.993  15.683  1.00  0.00     0.216 HD
ENDBRANCH   7  30
TORSDOF 6
ENDMDL
