MODEL 1
REMARK VINA RESULT: -7.353195638      0.000      0.000
REMARK  7 active torsions:
REMARK  status: ('A' for Active; 'I' for Inactive)
REMARK    1  A    between atoms: C2_2  and  C3_3 
REMARK    2  A    between atoms: C3_3  and  N1_4 
REMARK    3  A    between atoms: C7_8  and  C8_9 
REMARK    4  A    between atoms: C9_10  and  C10_11 
REMARK    5  A    between atoms: C13_16  and  N3_17 
REMARK    6  A    between atoms: C16_25  and  N5_26 
REMARK    7  A    between atoms: C17_31  and  C18_32 
ROOT
HETATM    1  C10 UNL     1      -5.250   4.162  13.520  1.00  0.00     0.090 A 
HETATM    2  C11 UNL     1      -5.689   4.130  14.819  1.00  0.00     0.070 A 
HETATM    3  C12 UNL     1      -5.581   3.001  15.622  1.00  0.00     0.071 A 
HETATM    4  N2  UNL     1      -6.030   3.012  16.908  1.00  0.00    -0.191 N 
ATOM      5  H2  UNL     1      -6.452   3.855  17.295  1.00  0.00     0.184 HD
HETATM    6  C13 UNL     1      -5.915   1.896  17.671  1.00  0.00     0.679 A 
HETATM    7  N4  UNL     1      -5.355   0.812  17.122  1.00  0.00    -0.155 N 
ATOM      8  H4  UNL     1      -5.269  -0.026  17.698  1.00  0.00     0.187 HD
HETATM    9  C14 UNL     1      -4.898   0.760  15.856  1.00  0.00     0.275 A 
HETATM   10  O1  UNL     1      -4.379  -0.269  15.370  1.00  0.00    -0.267 OA
HETATM   11  C15 UNL     1      -5.005   1.883  15.059  1.00  0.00     0.103 A 
HETATM   12  C16 UNL     1      -4.564   1.915  13.755  1.00  0.00     0.118 A 
HETATM   13  N6  UNL     1      -4.695   3.037  13.029  1.00  0.00    -0.335 N 
ATOM     14  H6  UNL     1      -4.361   3.039  12.066  1.00  0.00     0.168 HD
ENDROOT
BRANCH   1  15
HETATM   15  C9  UNL     1      -5.395   5.364  12.744  1.00  0.00    -0.048 C 
HETATM   16  C8  UNL     1      -5.528   6.370  12.072  1.00  0.00    -0.092 C 
BRANCH  16  17
HETATM   17  C7  UNL     1      -5.706   7.549  11.263  1.00  0.00     0.099 C 
HETATM   18  C6  UNL     1      -4.493   8.449  11.245  1.00  0.00     0.021 C 
HETATM   19  C5  UNL     1      -4.836   9.644  10.435  1.00  0.00     0.031 C 
HETATM   20  C4  UNL     1      -6.119   9.648   9.713  1.00  0.00     0.273 C 
HETATM   21  N1  UNL     1      -6.676   8.416   9.293  1.00  0.00     0.095 N 
HETATM   22  C17 UNL     1      -6.045   7.240   9.841  1.00  0.00     0.248 C 
BRANCH  21  23
HETATM   23  C3  UNL     1      -8.096   8.282   9.520  1.00  0.00     0.272 C 
BRANCH  23  24
HETATM   24  C2  UNL     1      -8.903   8.223   8.245  1.00  0.00     0.026 C 
HETATM   25  C1  UNL     1      -9.278   9.616   7.788  1.00  0.00     0.007 C 
ENDBRANCH  23  24
ENDBRANCH  21  23
BRANCH  22  26
HETATM   26  C18 UNL     1      -4.892   6.840   8.974  1.00  0.00     0.122 C 
HETATM   27 BR1  UNL     1      -5.373   6.760   7.116  1.00  0.00    -0.094 Br
ENDBRANCH  22  26
ENDBRANCH  16  17
ENDBRANCH   1  15
BRANCH  12  28
HETATM   28  N5  UNL     1      -4.028   0.861  13.247  1.00  0.00    -0.385 N 
ATOM     29  H52 UNL     1      -4.106  -0.042  13.714  1.00  0.00     0.157 HD
ATOM     30  H51 UNL     1      -3.520   0.935  12.365  1.00  0.00     0.157 HD
ENDBRANCH  12  28
BRANCH   6  31
HETATM   31  N3  UNL     1      -6.348   1.929  18.887  1.00  0.00    -0.234 N 
ATOM     32  H32 UNL     1      -7.266   1.580  19.162  1.00  0.00     0.174 HD
ATOM     33  H31 UNL     1      -5.746   2.320  19.611  1.00  0.00     0.174 HD
ENDBRANCH   6  31
TORSDOF 7
ENDMDL
MODEL 2
REMARK VINA RESULT: -7.056969119      7.170      9.196
REMARK  7 active torsions:
REMARK  status: ('A' for Active; 'I' for Inactive)
REMARK    1  A    between atoms: C2_2  and  C3_3 
REMARK    2  A    between atoms: C3_3  and  N1_4 
REMARK    3  A    between atoms: C7_8  and  C8_9 
REMARK    4  A    between atoms: C9_10  and  C10_11 
REMARK    5  A    between atoms: C13_16  and  N3_17 
REMARK    6  A    between atoms: C16_25  and  N5_26 
REMARK    7  A    between atoms: C17_31  and  C18_32 
ROOT
HETATM    1  C10 UNL     1      -0.953   1.613   9.648  1.00  0.00     0.090 A 
HETATM    2  C11 UNL     1      -0.980   0.243   9.705  1.00  0.00     0.070 A 
HETATM    3  C12 UNL     1      -1.920  -0.460  10.447  1.00  0.00     0.071 A 
HETATM    4  N2  UNL     1      -1.910  -1.823  10.476  1.00  0.00    -0.191 N 
ATOM      5  H2  UNL     1      -1.207  -2.341   9.950  1.00  0.00     0.184 HD
HETATM    6  C13 UNL     1      -2.839  -2.487  11.209  1.00  0.00     0.679 A 
HETATM    7  N4  UNL     1      -3.743  -1.767  11.884  1.00  0.00    -0.155 N 
ATOM      8  H4  UNL     1      -4.440  -2.268  12.434  1.00  0.00     0.187 HD
HETATM    9  C14 UNL     1      -3.787  -0.421  11.881  1.00  0.00     0.275 A 
HETATM   10  O1  UNL     1      -4.644   0.226  12.522  1.00  0.00    -0.267 OA
HETATM   11  C15 UNL     1      -2.852   0.279  11.142  1.00  0.00     0.103 A 
HETATM   12  C16 UNL     1      -2.826   1.654  11.085  1.00  0.00     0.118 A 
HETATM   13  N6  UNL     1      -1.891   2.277  10.349  1.00  0.00    -0.335 N 
ATOM     14  H6  UNL     1      -1.891   3.297  10.320  1.00  0.00     0.168 HD
ENDROOT
BRANCH   1  15
HETATM   15  C9  UNL     1       0.051   2.279   8.862  1.00  0.00    -0.048 C 
HETATM   16  C8  UNL     1       0.914   2.826   8.200  1.00  0.00    -0.092 C 
BRANCH  16  17
HETATM   17  C7  UNL     1       1.947   3.450   7.414  1.00  0.00     0.099 C 
HETATM   18  C6  UNL     1       1.608   4.861   6.993  1.00  0.00     0.021 C 
HETATM   19  C5  UNL     1       2.722   5.352   6.144  1.00  0.00     0.031 C 
HETATM   20  C4  UNL     1       3.927   4.516   6.028  1.00  0.00     0.273 C 
HETATM   21  N1  UNL     1       4.278   3.661   7.100  1.00  0.00     0.095 N 
HETATM   22  C17 UNL     1       3.265   3.506   8.116  1.00  0.00     0.248 C 
BRANCH  21  23
HETATM   23  C3  UNL     1       4.695   2.335   6.709  1.00  0.00     0.272 C 
BRANCH  23  24
HETATM   24  C2  UNL     1       4.899   1.402   7.878  1.00  0.00     0.026 C 
HETATM   25  C1  UNL     1       3.940   0.233   7.799  1.00  0.00     0.007 C 
ENDBRANCH  23  24
ENDBRANCH  21  23
BRANCH  22  26
HETATM   26  C18 UNL     1       3.409   4.592   9.136  1.00  0.00     0.122 C 
HETATM   27 BR1  UNL     1       5.243   4.899   9.619  1.00  0.00    -0.094 Br
ENDBRANCH  22  26
ENDBRANCH  16  17
ENDBRANCH   1  15
BRANCH  12  28
HETATM   28  N5  UNL     1      -3.704   2.327  11.742  1.00  0.00    -0.385 N 
ATOM     29  H52 UNL     1      -4.689   2.296  11.480  1.00  0.00     0.157 HD
ATOM     30  H51 UNL     1      -3.406   2.898  12.533  1.00  0.00     0.157 HD
ENDBRANCH  12  28
BRANCH   6  31
HETATM   31  N3  UNL     1      -2.811  -3.777  11.223  1.00  0.00    -0.234 N 
ATOM     32  H32 UNL     1      -2.288  -4.332  10.545  1.00  0.00     0.174 HD
ATOM     33  H31 UNL     1      -3.335  -4.271  11.946  1.00  0.00     0.174 HD
ENDBRANCH   6  31
TORSDOF 7
ENDMDL
MODEL 3
REMARK VINA RESULT: -7.001646927      1.467      1.551
REMARK  7 active torsions:
REMARK  status: ('A' for Active; 'I' for Inactive)
REMARK    1  A    between atoms: C2_2  and  C3_3 
REMARK    2  A    between atoms: C3_3  and  N1_4 
REMARK    3  A    between atoms: C7_8  and  C8_9 
REMARK    4  A    between atoms: C9_10  and  C10_11 
REMARK    5  A    between atoms: C13_16  and  N3_17 
REMARK    6  A    between atoms: C16_25  and  N5_26 
REMARK    7  A    between atoms: C17_31  and  C18_32 
ROOT
HETATM    1  C10 UNL     1      -5.290   5.273  13.567  1.00  0.00     0.090 A 
HETATM    2  C11 UNL     1      -6.254   4.537  14.207  1.00  0.00     0.070 A 
HETATM    3  C12 UNL     1      -5.951   3.522  15.105  1.00  0.00     0.071 A 
HETATM    4  N2  UNL     1      -6.941   2.814  15.720  1.00  0.00    -0.191 N 
ATOM      5  H2  UNL     1      -7.919   3.026  15.524  1.00  0.00     0.184 HD
HETATM    6  C13 UNL     1      -6.619   1.826  16.592  1.00  0.00     0.679 A 
HETATM    7  N4  UNL     1      -5.324   1.582  16.819  1.00  0.00    -0.155 N 
ATOM      8  H4  UNL     1      -5.084   0.839  17.475  1.00  0.00     0.187 HD
HETATM    9  C14 UNL     1      -4.317   2.257  16.233  1.00  0.00     0.275 A 
HETATM   10  O1  UNL     1      -3.113   2.007  16.465  1.00  0.00    -0.267 OA
HETATM   11  C15 UNL     1      -4.618   3.268  15.341  1.00  0.00     0.103 A 
HETATM   12  C16 UNL     1      -3.649   4.007  14.698  1.00  0.00     0.118 A 
HETATM   13  N6  UNL     1      -4.006   4.977  13.841  1.00  0.00    -0.335 N 
ATOM     14  H6  UNL     1      -3.272   5.513  13.376  1.00  0.00     0.168 HD
ENDROOT
BRANCH   1  15
HETATM   15  C9  UNL     1      -5.673   6.310  12.646  1.00  0.00    -0.048 C 
HETATM   16  C8  UNL     1      -5.977   7.189  11.860  1.00  0.00    -0.092 C 
BRANCH  16  17
HETATM   17  C7  UNL     1      -6.313   8.225  10.918  1.00  0.00     0.099 C 
HETATM   18  C6  UNL     1      -5.320   9.364  10.904  1.00  0.00     0.021 C 
HETATM   19  C5  UNL     1      -5.821  10.380   9.945  1.00  0.00     0.031 C 
HETATM   20  C4  UNL     1      -6.994  10.040   9.124  1.00  0.00     0.273 C 
HETATM   21  N1  UNL     1      -7.234   8.685   8.793  1.00  0.00     0.095 N 
HETATM   22  C17 UNL     1      -6.430   7.728   9.514  1.00  0.00     0.248 C 
BRANCH  21  23
HETATM   23  C3  UNL     1      -8.610   8.264   8.916  1.00  0.00     0.272 C 
BRANCH  23  24
HETATM   24  C2  UNL     1      -9.547   9.001   7.989  1.00  0.00     0.026 C 
HETATM   25  C1  UNL     1      -8.802   9.506   6.772  1.00  0.00     0.007 C 
ENDBRANCH  23  24
ENDBRANCH  21  23
BRANCH  22  26
HETATM   26  C18 UNL     1      -5.136   7.516   8.792  1.00  0.00     0.122 C 
HETATM   27 BR1  UNL     1      -5.391   7.230   6.910  1.00  0.00    -0.094 Br
ENDBRANCH  22  26
ENDBRANCH  16  17
ENDBRANCH   1  15
BRANCH  12  28
HETATM   28  N5  UNL     1      -2.409   3.756  14.931  1.00  0.00    -0.385 N 
ATOM     29  H52 UNL     1      -1.703   3.894  14.208  1.00  0.00     0.157 HD
ATOM     30  H51 UNL     1      -2.134   3.414  15.852  1.00  0.00     0.157 HD
ENDBRANCH  12  28
BRANCH   6  31
HETATM   31  N3  UNL     1      -7.573   1.168  17.163  1.00  0.00    -0.234 N 
ATOM     32  H32 UNL     1      -7.469   0.708  18.067  1.00  0.00     0.174 HD
ATOM     33  H31 UNL     1      -8.474   1.103  16.690  1.00  0.00     0.174 HD
ENDBRANCH   6  31
TORSDOF 7
ENDMDL
MODEL 4
REMARK VINA RESULT: -6.903418062      6.858      8.587
REMARK  7 active torsions:
REMARK  status: ('A' for Active; 'I' for Inactive)
REMARK    1  A    between atoms: C2_2  and  C3_3 
REMARK    2  A    between atoms: C3_3  and  N1_4 
REMARK    3  A    between atoms: C7_8  and  C8_9 
REMARK    4  A    between atoms: C9_10  and  C10_11 
REMARK    5  A    between atoms: C13_16  and  N3_17 
REMARK    6  A    between atoms: C16_25  and  N5_26 
REMARK    7  A    between atoms: C17_31  and  C18_32 
ROOT
HETATM    1  C10 UNL     1      -0.994   1.670   9.783  1.00  0.00     0.090 A 
HETATM    2  C11 UNL     1      -1.004   0.299   9.813  1.00  0.00     0.070 A 
HETATM    3  C12 UNL     1      -1.959  -0.431  10.510  1.00  0.00     0.071 A 
HETATM    4  N2  UNL     1      -1.932  -1.793  10.514  1.00  0.00    -0.191 N 
ATOM      5  H2  UNL     1      -1.206  -2.292  10.000  1.00  0.00     0.184 HD
HETATM    6  C13 UNL     1      -2.874  -2.483  11.204  1.00  0.00     0.679 A 
HETATM    7  N4  UNL     1      -3.808  -1.788  11.864  1.00  0.00    -0.155 N 
ATOM      8  H4  UNL     1      -4.515  -2.309  12.382  1.00  0.00     0.187 HD
HETATM    9  C14 UNL     1      -3.869  -0.443  11.886  1.00  0.00     0.275 A 
HETATM   10  O1  UNL     1      -4.755   0.180  12.512  1.00  0.00    -0.267 OA
HETATM   11  C15 UNL     1      -2.921   0.283  11.191  1.00  0.00     0.103 A 
HETATM   12  C16 UNL     1      -2.911   1.659  11.161  1.00  0.00     0.118 A 
HETATM   13  N6  UNL     1      -1.962   2.309  10.468  1.00  0.00    -0.335 N 
ATOM     14  H6  UNL     1      -1.975   3.329  10.459  1.00  0.00     0.168 HD
ENDROOT
BRANCH   1  15
HETATM   15  C9  UNL     1       0.025   2.365   9.043  1.00  0.00    -0.048 C 
HETATM   16  C8  UNL     1       0.900   2.953   8.434  1.00  0.00    -0.092 C 
BRANCH  16  17
HETATM   17  C7  UNL     1       1.952   3.643   7.733  1.00  0.00     0.099 C 
HETATM   18  C6  UNL     1       2.986   4.248   8.653  1.00  0.00     0.021 C 
HETATM   19  C5  UNL     1       3.964   4.977   7.807  1.00  0.00     0.031 C 
HETATM   20  C4  UNL     1       3.857   4.837   6.346  1.00  0.00     0.273 C 
HETATM   21  N1  UNL     1       3.316   3.646   5.806  1.00  0.00     0.095 N 
HETATM   22  C17 UNL     1       2.682   2.772   6.763  1.00  0.00     0.248 C 
BRANCH  21  23
HETATM   23  C3  UNL     1       2.382   3.839   4.722  1.00  0.00     0.272 C 
BRANCH  23  24
HETATM   24  C2  UNL     1       1.981   5.282   4.528  1.00  0.00     0.026 C 
HETATM   25  C1  UNL     1       0.505   5.465   4.808  1.00  0.00     0.007 C 
ENDBRANCH  23  24
ENDBRANCH  21  23
BRANCH  22  26
HETATM   26  C18 UNL     1       3.705   1.856   7.360  1.00  0.00     0.122 C 
HETATM   27 BR1  UNL     1       3.022   0.081   7.632  1.00  0.00    -0.094 Br
ENDBRANCH  22  26
ENDBRANCH  16  17
ENDBRANCH   1  15
BRANCH  12  28
HETATM   28  N5  UNL     1      -3.819   2.308  11.803  1.00  0.00    -0.385 N 
ATOM     29  H52 UNL     1      -4.648   1.833  12.159  1.00  0.00     0.157 HD
ATOM     30  H51 UNL     1      -3.702   3.310  11.955  1.00  0.00     0.157 HD
ENDBRANCH  12  28
BRANCH   6  31
HETATM   31  N3  UNL     1      -2.829  -3.773  11.193  1.00  0.00    -0.234 N 
ATOM     32  H32 UNL     1      -2.249  -4.317  11.833  1.00  0.00     0.174 HD
ATOM     33  H31 UNL     1      -3.400  -4.278  10.516  1.00  0.00     0.174 HD
ENDBRANCH   6  31
TORSDOF 7
ENDMDL
MODEL 5
REMARK VINA RESULT: -6.884255420      7.011      9.077
REMARK  7 active torsions:
REMARK  status: ('A' for Active; 'I' for Inactive)
REMARK    1  A    between atoms: C2_2  and  C3_3 
REMARK    2  A    between atoms: C3_3  and  N1_4 
REMARK    3  A    between atoms: C7_8  and  C8_9 
REMARK    4  A    between atoms: C9_10  and  C10_11 
REMARK    5  A    between atoms: C13_16  and  N3_17 
REMARK    6  A    between atoms: C16_25  and  N5_26 
REMARK    7  A    between atoms: C17_31  and  C18_32 
ROOT
HETATM    1  C10 UNL     1      -0.875   1.503   9.605  1.00  0.00     0.090 A 
HETATM    2  C11 UNL     1      -0.925   0.135   9.691  1.00  0.00     0.070 A 
HETATM    3  C12 UNL     1      -1.892  -0.538  10.426  1.00  0.00     0.071 A 
HETATM    4  N2  UNL     1      -1.905  -1.899  10.484  1.00  0.00    -0.191 N 
ATOM      5  H2  UNL     1      -1.199  -2.440   9.984  1.00  0.00     0.184 HD
HETATM    6  C13 UNL     1      -2.859  -2.533  11.211  1.00  0.00     0.679 A 
HETATM    7  N4  UNL     1      -3.765  -1.785  11.851  1.00  0.00    -0.155 N 
ATOM      8  H4  UNL     1      -4.482  -2.264  12.397  1.00  0.00     0.187 HD
HETATM    9  C14 UNL     1      -3.788  -0.439  11.819  1.00  0.00     0.275 A 
HETATM   10  O1  UNL     1      -4.648   0.235  12.428  1.00  0.00    -0.267 OA
HETATM   11  C15 UNL     1      -2.826   0.230  11.086  1.00  0.00     0.103 A 
HETATM   12  C16 UNL     1      -2.777   1.604  11.001  1.00  0.00     0.118 A 
HETATM   13  N6  UNL     1      -1.817   2.196  10.273  1.00  0.00    -0.335 N 
ATOM     14  H6  UNL     1      -1.799   3.215  10.223  1.00  0.00     0.168 HD
ENDROOT
BRANCH   1  15
HETATM   15  C9  UNL     1       0.156   2.136   8.828  1.00  0.00    -0.048 C 
HETATM   16  C8  UNL     1       1.044   2.663   8.182  1.00  0.00    -0.092 C 
BRANCH  16  17
HETATM   17  C7  UNL     1       2.111   3.268   7.427  1.00  0.00     0.099 C 
HETATM   18  C6  UNL     1       1.675   3.765   6.069  1.00  0.00     0.021 C 
HETATM   19  C5  UNL     1       2.877   4.300   5.383  1.00  0.00     0.031 C 
HETATM   20  C4  UNL     1       4.127   4.404   6.154  1.00  0.00     0.273 C 
HETATM   21  N1  UNL     1       4.058   4.598   7.554  1.00  0.00     0.095 N 
HETATM   22  C17 UNL     1       2.748   4.421   8.133  1.00  0.00     0.248 C 
BRANCH  21  23
HETATM   23  C3  UNL     1       4.976   3.792   8.325  1.00  0.00     0.272 C 
BRANCH  23  24
HETATM   24  C2  UNL     1       5.681   2.738   7.505  1.00  0.00     0.026 C 
HETATM   25  C1  UNL     1       5.288   1.352   7.969  1.00  0.00     0.007 C 
ENDBRANCH  23  24
ENDBRANCH  21  23
BRANCH  22  26
HETATM   26  C18 UNL     1       1.995   5.713   8.072  1.00  0.00     0.122 C 
HETATM   27 BR1  UNL     1       1.198   6.171   9.759  1.00  0.00    -0.094 Br
ENDBRANCH  22  26
ENDBRANCH  16  17
ENDBRANCH   1  15
BRANCH  12  28
HETATM   28  N5  UNL     1      -3.658   2.304  11.625  1.00  0.00    -0.385 N 
ATOM     29  H52 UNL     1      -3.595   2.446  12.633  1.00  0.00     0.157 HD
ATOM     30  H51 UNL     1      -4.427   2.720  11.100  1.00  0.00     0.157 HD
ENDBRANCH  12  28
BRANCH   6  31
HETATM   31  N3  UNL     1      -2.852  -3.824  11.252  1.00  0.00    -0.234 N 
ATOM     32  H32 UNL     1      -3.149  -4.409  10.471  1.00  0.00     0.174 HD
ATOM     33  H31 UNL     1      -2.536  -4.285  12.105  1.00  0.00     0.174 HD
ENDBRANCH   6  31
TORSDOF 7
ENDMDL
