MODEL 1
REMARK VINA RESULT: -10.101802053      0.000      0.000
REMARK  6 active torsions:
REMARK  status: ('A' for Active; 'I' for Inactive)
REMARK    1  A    between atoms: N1_1  and  C1_4 
REMARK    2  A    between atoms: C4_9  and  N3_10 
REMARK    3  A    between atoms: C5_17  and  C6_18 
REMARK    4  A    between atoms: C6_18  and  O1_19 
REMARK    5  A    between atoms: N6_29  and  C14_30 
REMARK    6  A    between atoms: C14_30  and  C15_31 
ROOT
HETATM    1  C1  UNL     1      -5.907   2.101  17.375  1.00  0.00     0.678 A 
HETATM    2  N2  UNL     1      -6.195   3.023  16.439  1.00  0.00    -0.187 N 
ATOM      3  H2  UNL     1      -6.792   3.817  16.670  1.00  0.00     0.184 HD
HETATM    4  C2  UNL     1      -5.692   2.894  15.200  1.00  0.00     0.118 A 
HETATM    5  C3  UNL     1      -4.891   1.798  14.957  1.00  0.00     0.108 A 
HETATM    6  C4  UNL     1      -4.599   0.856  15.919  1.00  0.00     0.144 A 
HETATM    7  N4  UNL     1      -5.125   1.029  17.138  1.00  0.00    -0.175 N 
ATOM      8  H4  UNL     1      -4.935   0.356  17.881  1.00  0.00     0.186 HD
HETATM    9  N5  UNL     1      -4.374   1.688  13.640  1.00  0.00    -0.350 N 
ATOM     10  H5  UNL     1      -3.780   0.884  13.436  1.00  0.00     0.166 HD
HETATM   11  C5  UNL     1      -4.592   2.509  12.694  1.00  0.00     0.074 A 
HETATM   12  C21 UNL     1      -5.432   3.669  12.934  1.00  0.00     0.075 A 
HETATM   13  C22 UNL     1      -5.954   3.846  14.133  1.00  0.00     0.148 A 
HETATM   14  F1  UNL     1      -6.744   4.915  14.397  1.00  0.00    -0.204 F 
ENDROOT
BRANCH  11  15
HETATM   15  C6  UNL     1      -3.983   2.254  11.386  1.00  0.00     0.211 A 
HETATM   16  C7  UNL     1      -3.437   0.928  11.193  1.00  0.00     0.019 A 
HETATM   17  C8  UNL     1      -3.960  -0.366  11.412  1.00  0.00     0.013 A 
HETATM   18  C12 UNL     1      -2.171   1.040  10.700  1.00  0.00     0.043 A 
HETATM   19  C9  UNL     1      -3.228  -1.477  11.140  1.00  0.00     0.001 A 
HETATM   20  C10 UNL     1      -1.943  -1.350  10.639  1.00  0.00     0.001 A 
HETATM   21  C11 UNL     1      -1.397  -0.104  10.412  1.00  0.00     0.018 A 
HETATM   22  C13 UNL     1      -1.858   2.458  10.567  1.00  0.00     0.257 A 
HETATM   23  O2  UNL     1      -0.749   2.921  10.131  1.00  0.00    -0.267 OA
HETATM   24  N6  UNL     1      -2.988   3.181  11.001  1.00  0.00    -0.302 N 
BRANCH  15  25
HETATM   25  O1  UNL     1      -5.017   2.392  10.413  1.00  0.00    -0.361 OA
ATOM     26  H1  UNL     1      -5.204   1.520  10.084  1.00  0.00     0.213 HD
ENDBRANCH  15  25
BRANCH  24  27
HETATM   27  C14 UNL     1      -3.015   4.649  11.009  1.00  0.00     0.168 C 
BRANCH  27  28
HETATM   28  C15 UNL     1      -2.696   5.152  12.364  1.00  0.00    -0.040 A 
HETATM   29  C16 UNL     1      -1.798   4.538  13.216  1.00  0.00     0.009 A 
HETATM   30  C17 UNL     1      -1.532   5.042  14.474  1.00  0.00     0.001 A 
HETATM   31  C18 UNL     1      -2.172   6.182  14.900  1.00  0.00     0.000 A 
HETATM   32  C19 UNL     1      -3.064   6.807  14.074  1.00  0.00     0.001 A 
HETATM   33  C20 UNL     1      -3.324   6.300  12.825  1.00  0.00     0.009 A 
ENDBRANCH  27  28
ENDBRANCH  24  27
ENDBRANCH  11  15
BRANCH   6  34
HETATM   34  N3  UNL     1      -3.855  -0.161  15.689  1.00  0.00    -0.383 N 
ATOM     35  H32 UNL     1      -2.847  -0.038  15.602  1.00  0.00     0.157 HD
ATOM     36  H31 UNL     1      -4.228  -1.105  15.586  1.00  0.00     0.157 HD
ENDBRANCH   6  34
BRANCH   1  37
HETATM   37  N1  UNL     1      -6.406   2.243  18.575  1.00  0.00    -0.234 N 
ATOM     38  H12 UNL     1      -7.076   2.997  18.729  1.00  0.00     0.174 HD
ATOM     39  H11 UNL     1      -6.110   1.601  19.310  1.00  0.00     0.174 HD
ENDBRANCH   1  37
TORSDOF 6
ENDMDL
MODEL 2
REMARK VINA RESULT: -10.085246278      1.319      2.351
REMARK  6 active torsions:
REMARK  status: ('A' for Active; 'I' for Inactive)
REMARK    1  A    between atoms: N1_1  and  C1_4 
REMARK    2  A    between atoms: C4_9  and  N3_10 
REMARK    3  A    between atoms: C5_17  and  C6_18 
REMARK    4  A    between atoms: C6_18  and  O1_19 
REMARK    5  A    between atoms: N6_29  and  C14_30 
REMARK    6  A    between atoms: C14_30  and  C15_31 
ROOT
HETATM    1  C1  UNL     1      -5.919   2.069  17.400  1.00  0.00     0.678 A 
HETATM    2  N2  UNL     1      -6.120   3.051  16.504  1.00  0.00    -0.187 N 
ATOM      3  H2  UNL     1      -6.661   3.876  16.761  1.00  0.00     0.184 HD
HETATM    4  C2  UNL     1      -5.602   2.941  15.268  1.00  0.00     0.118 A 
HETATM    5  C3  UNL     1      -4.880   1.801  14.988  1.00  0.00     0.108 A 
HETATM    6  C4  UNL     1      -4.677   0.798  15.910  1.00  0.00     0.144 A 
HETATM    7  N4  UNL     1      -5.213   0.954  17.127  1.00  0.00    -0.175 N 
ATOM      8  H4  UNL     1      -5.088   0.236  17.840  1.00  0.00     0.186 HD
HETATM    9  N5  UNL     1      -4.345   1.713  13.676  1.00  0.00    -0.350 N 
ATOM     10  H5  UNL     1      -3.807   0.877  13.445  1.00  0.00     0.166 HD
HETATM   11  C5  UNL     1      -4.483   2.589  12.766  1.00  0.00     0.074 A 
HETATM   12  C21 UNL     1      -5.241   3.797  13.045  1.00  0.00     0.075 A 
HETATM   13  C22 UNL     1      -5.772   3.958  14.242  1.00  0.00     0.148 A 
HETATM   14  F1  UNL     1      -6.487   5.069  14.543  1.00  0.00    -0.204 F 
ENDROOT
BRANCH  11  15
HETATM   15  C6  UNL     1      -3.868   2.350  11.458  1.00  0.00     0.211 A 
HETATM   16  C7  UNL     1      -3.427   0.995  11.209  1.00  0.00     0.019 A 
HETATM   17  C8  UNL     1      -4.058  -0.262  11.352  1.00  0.00     0.013 A 
HETATM   18  C12 UNL     1      -2.146   1.027  10.745  1.00  0.00     0.043 A 
HETATM   19  C9  UNL     1      -3.411  -1.414  11.038  1.00  0.00     0.001 A 
HETATM   20  C10 UNL     1      -2.110  -1.368  10.567  1.00  0.00     0.001 A 
HETATM   21  C11 UNL     1      -1.460  -0.162  10.413  1.00  0.00     0.018 A 
HETATM   22  C13 UNL     1      -1.716   2.419  10.688  1.00  0.00     0.257 A 
HETATM   23  O2  UNL     1      -0.564   2.810  10.297  1.00  0.00    -0.267 OA
HETATM   24  N6  UNL     1      -2.793   3.210  11.138  1.00  0.00    -0.302 N 
BRANCH  15  25
HETATM   25  O1  UNL     1      -4.866   2.619  10.475  1.00  0.00    -0.361 OA
ATOM     26  H1  UNL     1      -5.574   2.003  10.625  1.00  0.00     0.213 HD
ENDBRANCH  15  25
BRANCH  24  27
HETATM   27  C14 UNL     1      -2.702   4.673  11.219  1.00  0.00     0.168 C 
BRANCH  27  28
HETATM   28  C15 UNL     1      -3.341   5.285  10.031  1.00  0.00    -0.040 A 
HETATM   29  C16 UNL     1      -2.892   5.094   8.738  1.00  0.00     0.009 A 
HETATM   30  C17 UNL     1      -3.519   5.687   7.659  1.00  0.00     0.001 A 
HETATM   31  C18 UNL     1      -4.617   6.487   7.865  1.00  0.00     0.000 A 
HETATM   32  C19 UNL     1      -5.079   6.690   9.136  1.00  0.00     0.001 A 
HETATM   33  C20 UNL     1      -4.451   6.098  10.204  1.00  0.00     0.009 A 
ENDBRANCH  27  28
ENDBRANCH  24  27
ENDBRANCH  11  15
BRANCH   6  34
HETATM   34  N3  UNL     1      -4.005  -0.260  15.645  1.00  0.00    -0.383 N 
ATOM     35  H32 UNL     1      -3.458  -0.308  14.786  1.00  0.00     0.157 HD
ATOM     36  H31 UNL     1      -3.989  -1.072  16.262  1.00  0.00     0.157 HD
ENDBRANCH   6  34
BRANCH   1  37
HETATM   37  N1  UNL     1      -6.431   2.193  18.597  1.00  0.00    -0.234 N 
ATOM     38  H12 UNL     1      -7.378   1.847  18.751  1.00  0.00     0.174 HD
ATOM     39  H11 UNL     1      -5.869   2.629  19.329  1.00  0.00     0.174 HD
ENDBRANCH   1  37
TORSDOF 6
ENDMDL
MODEL 3
REMARK VINA RESULT: -9.705064655      1.325      1.959
REMARK  6 active torsions:
REMARK  status: ('A' for Active; 'I' for Inactive)
REMARK    1  A    between atoms: N1_1  and  C1_4 
REMARK    2  A    between atoms: C4_9  and  N3_10 
REMARK    3  A    between atoms: C5_17  and  C6_18 
REMARK    4  A    between atoms: C6_18  and  O1_19 
REMARK    5  A    between atoms: N6_29  and  C14_30 
REMARK    6  A    between atoms: C14_30  and  C15_31 
ROOT
HETATM    1  C1  UNL     1      -6.158   2.073  17.443  1.00  0.00     0.678 A 
HETATM    2  N2  UNL     1      -6.342   3.133  16.637  1.00  0.00    -0.187 N 
ATOM      3  H2  UNL     1      -6.949   3.899  16.929  1.00  0.00     0.184 HD
HETATM    4  C2  UNL     1      -5.723   3.180  15.445  1.00  0.00     0.118 A 
HETATM    5  C3  UNL     1      -4.917   2.112  15.114  1.00  0.00     0.108 A 
HETATM    6  C4  UNL     1      -4.731   1.028  15.943  1.00  0.00     0.144 A 
HETATM    7  N4  UNL     1      -5.370   1.029  17.120  1.00  0.00    -0.175 N 
ATOM      8  H4  UNL     1      -5.261   0.246  17.765  1.00  0.00     0.186 HD
HETATM    9  N5  UNL     1      -4.276   2.189  13.850  1.00  0.00    -0.350 N 
ATOM     10  H5  UNL     1      -3.674   1.409  13.582  1.00  0.00     0.166 HD
HETATM   11  C5  UNL     1      -4.391   3.149  13.024  1.00  0.00     0.074 A 
HETATM   12  C21 UNL     1      -5.236   4.281  13.359  1.00  0.00     0.075 A 
HETATM   13  C22 UNL     1      -5.869   4.289  14.517  1.00  0.00     0.148 A 
HETATM   14  F1  UNL     1      -6.668   5.327  14.866  1.00  0.00    -0.204 F 
ENDROOT
BRANCH  11  15
HETATM   15  C6  UNL     1      -3.661   3.078  11.756  1.00  0.00     0.211 A 
HETATM   16  C7  UNL     1      -3.457   1.750  11.220  1.00  0.00     0.019 A 
HETATM   17  C8  UNL     1      -4.328   0.661  10.996  1.00  0.00     0.013 A 
HETATM   18  C12 UNL     1      -2.142   1.605  10.891  1.00  0.00     0.043 A 
HETATM   19  C9  UNL     1      -3.877  -0.504  10.465  1.00  0.00     0.001 A 
HETATM   20  C10 UNL     1      -2.539  -0.639  10.134  1.00  0.00     0.001 A 
HETATM   21  C11 UNL     1      -1.656   0.401  10.338  1.00  0.00     0.018 A 
HETATM   22  C13 UNL     1      -1.452   2.849  11.216  1.00  0.00     0.257 A 
HETATM   23  O2  UNL     1      -0.204   3.057  11.033  1.00  0.00    -0.267 OA
HETATM   24  N6  UNL     1      -2.409   3.734  11.751  1.00  0.00    -0.302 N 
BRANCH  15  25
HETATM   25  O1  UNL     1      -4.447   3.770  10.786  1.00  0.00    -0.361 OA
ATOM     26  H1  UNL     1      -3.885   4.425  10.391  1.00  0.00     0.213 HD
ENDBRANCH  15  25
BRANCH  24  27
HETATM   27  C14 UNL     1      -2.053   5.087  12.196  1.00  0.00     0.168 C 
BRANCH  27  28
HETATM   28  C15 UNL     1      -2.518   6.083  11.204  1.00  0.00    -0.040 A 
HETATM   29  C16 UNL     1      -2.060   6.136   9.902  1.00  0.00     0.009 A 
HETATM   30  C17 UNL     1      -2.521   7.086   9.010  1.00  0.00     0.001 A 
HETATM   31  C18 UNL     1      -3.459   8.004   9.419  1.00  0.00     0.000 A 
HETATM   32  C19 UNL     1      -3.926   7.971  10.703  1.00  0.00     0.001 A 
HETATM   33  C20 UNL     1      -3.463   7.024  11.584  1.00  0.00     0.009 A 
ENDBRANCH  27  28
ENDBRANCH  24  27
ENDBRANCH  11  15
BRANCH   6  34
HETATM   34  N3  UNL     1      -3.980   0.038  15.631  1.00  0.00    -0.383 N 
ATOM     35  H32 UNL     1      -4.392  -0.790  15.201  1.00  0.00     0.157 HD
ATOM     36  H31 UNL     1      -2.973   0.036  15.793  1.00  0.00     0.157 HD
ENDBRANCH   6  34
BRANCH   1  37
HETATM   37  N1  UNL     1      -6.769   2.046  18.599  1.00  0.00    -0.234 N 
ATOM     38  H12 UNL     1      -6.444   2.682  19.327  1.00  0.00     0.174 HD
ATOM     39  H11 UNL     1      -7.543   1.395  18.731  1.00  0.00     0.174 HD
ENDBRANCH   1  37
TORSDOF 6
ENDMDL
MODEL 4
REMARK VINA RESULT: -9.659324145      2.924      5.973
REMARK  6 active torsions:
REMARK  status: ('A' for Active; 'I' for Inactive)
REMARK    1  A    between atoms: N1_1  and  C1_4 
REMARK    2  A    between atoms: C4_9  and  N3_10 
REMARK    3  A    between atoms: C5_17  and  C6_18 
REMARK    4  A    between atoms: C6_18  and  O1_19 
REMARK    5  A    between atoms: N6_29  and  C14_30 
REMARK    6  A    between atoms: C14_30  and  C15_31 
ROOT
HETATM    1  C1  UNL     1      -0.459   1.516   9.374  1.00  0.00     0.678 A 
HETATM    2  N2  UNL     1      -1.628   1.047   9.845  1.00  0.00    -0.187 N 
ATOM      3  H2  UNL     1      -2.076   0.247   9.397  1.00  0.00     0.184 HD
HETATM    4  C2  UNL     1      -2.202   1.634  10.908  1.00  0.00     0.118 A 
HETATM    5  C3  UNL     1      -1.542   2.708  11.466  1.00  0.00     0.108 A 
HETATM    6  C4  UNL     1      -0.345   3.186  10.980  1.00  0.00     0.144 A 
HETATM    7  N4  UNL     1       0.187   2.567   9.918  1.00  0.00    -0.175 N 
ATOM      8  H4  UNL     1       1.071   2.887   9.525  1.00  0.00     0.186 HD
HETATM    9  N5  UNL     1      -2.172   3.308  12.587  1.00  0.00    -0.350 N 
ATOM     10  H5  UNL     1      -1.703   4.106  13.017  1.00  0.00     0.166 HD
HETATM   11  C5  UNL     1      -3.273   2.933  13.100  1.00  0.00     0.074 A 
HETATM   12  C21 UNL     1      -3.981   1.802  12.525  1.00  0.00     0.075 A 
HETATM   13  C22 UNL     1      -3.463   1.187  11.478  1.00  0.00     0.148 A 
HETATM   14  F1  UNL     1      -4.092   0.128  10.912  1.00  0.00    -0.204 F 
ENDROOT
BRANCH  11  15
HETATM   15  C6  UNL     1      -3.793   3.659  14.261  1.00  0.00     0.211 A 
HETATM   16  C7  UNL     1      -4.590   2.881  15.185  1.00  0.00     0.019 A 
HETATM   17  C8  UNL     1      -4.380   1.636  15.821  1.00  0.00     0.013 A 
HETATM   18  C12 UNL     1      -5.748   3.551  15.441  1.00  0.00     0.043 A 
HETATM   19  C9  UNL     1      -5.304   1.114  16.668  1.00  0.00     0.001 A 
HETATM   20  C10 UNL     1      -6.477   1.804  16.920  1.00  0.00     0.001 A 
HETATM   21  C11 UNL     1      -6.719   3.022  16.319  1.00  0.00     0.018 A 
HETATM   22  C13 UNL     1      -5.735   4.792  14.675  1.00  0.00     0.257 A 
HETATM   23  O2  UNL     1      -6.673   5.661  14.682  1.00  0.00    -0.267 OA
HETATM   24  N6  UNL     1      -4.524   4.829  13.955  1.00  0.00    -0.302 N 
BRANCH  15  25
HETATM   25  O1  UNL     1      -2.664   4.110  15.009  1.00  0.00    -0.361 OA
ATOM     26  H1  UNL     1      -3.000   4.489  15.813  1.00  0.00     0.213 HD
ENDBRANCH  15  25
BRANCH  24  27
HETATM   27  C14 UNL     1      -4.184   5.945  13.064  1.00  0.00     0.168 C 
BRANCH  27  28
HETATM   28  C15 UNL     1      -3.155   6.801  13.699  1.00  0.00    -0.040 A 
HETATM   29  C16 UNL     1      -3.294   7.360  14.955  1.00  0.00     0.009 A 
HETATM   30  C17 UNL     1      -2.308   8.154  15.508  1.00  0.00     0.001 A 
HETATM   31  C18 UNL     1      -1.156   8.401  14.800  1.00  0.00     0.000 A 
HETATM   32  C19 UNL     1      -0.997   7.859  13.555  1.00  0.00     0.001 A 
HETATM   33  C20 UNL     1      -1.981   7.070  13.012  1.00  0.00     0.009 A 
ENDBRANCH  27  28
ENDBRANCH  24  27
ENDBRANCH  11  15
BRANCH   6  34
HETATM   34  N3  UNL     1       0.265   4.185  11.501  1.00  0.00    -0.383 N 
ATOM     35  H32 UNL     1      -0.078   4.584  12.375  1.00  0.00     0.157 HD
ATOM     36  H31 UNL     1       1.091   4.608  11.079  1.00  0.00     0.157 HD
ENDBRANCH   6  34
BRANCH   1  37
HETATM   37  N1  UNL     1       0.084   0.932   8.338  1.00  0.00    -0.234 N 
ATOM     38  H12 UNL     1      -0.285   1.156   7.414  1.00  0.00     0.174 HD
ATOM     39  H11 UNL     1       0.852   0.278   8.489  1.00  0.00     0.174 HD
ENDBRANCH   1  37
TORSDOF 6
ENDMDL
MODEL 5
REMARK VINA RESULT: -9.313123265      1.320      4.417
REMARK  6 active torsions:
REMARK  status: ('A' for Active; 'I' for Inactive)
REMARK    1  A    between atoms: N1_1  and  C1_4 
REMARK    2  A    between atoms: C4_9  and  N3_10 
REMARK    3  A    between atoms: C5_17  and  C6_18 
REMARK    4  A    between atoms: C6_18  and  O1_19 
REMARK    5  A    between atoms: N6_29  and  C14_30 
REMARK    6  A    between atoms: C14_30  and  C15_31 
ROOT
HETATM    1  C1  UNL     1      -6.451   1.922  17.105  1.00  0.00     0.678 A 
HETATM    2  N2  UNL     1      -6.455   3.063  16.395  1.00  0.00    -0.187 N 
ATOM      3  H2  UNL     1      -7.096   3.817  16.641  1.00  0.00     0.184 HD
HETATM    4  C2  UNL     1      -5.611   3.206  15.359  1.00  0.00     0.118 A 
HETATM    5  C3  UNL     1      -4.771   2.149  15.082  1.00  0.00     0.108 A 
HETATM    6  C4  UNL     1      -4.770   0.982  15.813  1.00  0.00     0.144 A 
HETATM    7  N4  UNL     1      -5.630   0.887  16.835  1.00  0.00    -0.175 N 
ATOM      8  H4  UNL     1      -5.663   0.041  17.403  1.00  0.00     0.186 HD
HETATM    9  N5  UNL     1      -3.891   2.329  13.983  1.00  0.00    -0.350 N 
ATOM     10  H5  UNL     1      -3.260   1.559  13.757  1.00  0.00     0.166 HD
HETATM   11  C5  UNL     1      -3.825   3.370  13.256  1.00  0.00     0.074 A 
HETATM   12  C21 UNL     1      -4.703   4.493  13.536  1.00  0.00     0.075 A 
HETATM   13  C22 UNL     1      -5.553   4.408  14.541  1.00  0.00     0.148 A 
HETATM   14  F1  UNL     1      -6.390   5.433  14.835  1.00  0.00    -0.204 F 
ENDROOT
BRANCH  11  15
HETATM   15  C6  UNL     1      -2.859   3.401  12.155  1.00  0.00     0.211 A 
HETATM   16  C7  UNL     1      -2.068   4.607  12.046  1.00  0.00     0.019 A 
HETATM   17  C8  UNL     1      -1.310   5.346  12.982  1.00  0.00     0.013 A 
HETATM   18  C12 UNL     1      -2.115   5.050  10.757  1.00  0.00     0.043 A 
HETATM   19  C9  UNL     1      -0.640   6.469  12.615  1.00  0.00     0.001 A 
HETATM   20  C10 UNL     1      -0.695   6.908  11.303  1.00  0.00     0.001 A 
HETATM   21  C11 UNL     1      -1.425   6.215  10.360  1.00  0.00     0.018 A 
HETATM   22  C13 UNL     1      -2.954   4.134   9.992  1.00  0.00     0.257 A 
HETATM   23  O2  UNL     1      -3.212   4.253   8.745  1.00  0.00    -0.267 OA
HETATM   24  N6  UNL     1      -3.402   3.134  10.878  1.00  0.00    -0.302 N 
BRANCH  15  25
HETATM   25  O1  UNL     1      -1.927   2.347  12.392  1.00  0.00    -0.361 OA
ATOM     26  H1  UNL     1      -1.379   2.285  11.618  1.00  0.00     0.213 HD
ENDBRANCH  15  25
BRANCH  24  27
HETATM   27  C14 UNL     1      -4.283   2.044  10.439  1.00  0.00     0.168 C 
BRANCH  27  28
HETATM   28  C15 UNL     1      -3.601   0.742  10.616  1.00  0.00    -0.040 A 
HETATM   29  C16 UNL     1      -2.378   0.436  10.048  1.00  0.00     0.009 A 
HETATM   30  C17 UNL     1      -1.779  -0.794  10.239  1.00  0.00     0.001 A 
HETATM   31  C18 UNL     1      -2.405  -1.745  11.010  1.00  0.00     0.000 A 
HETATM   32  C19 UNL     1      -3.615  -1.464  11.581  1.00  0.00     0.001 A 
HETATM   33  C20 UNL     1      -4.205  -0.239  11.388  1.00  0.00     0.009 A 
ENDBRANCH  27  28
ENDBRANCH  24  27
ENDBRANCH  11  15
BRANCH   6  34
HETATM   34  N3  UNL     1      -3.988   0.002  15.551  1.00  0.00    -0.383 N 
ATOM     35  H32 UNL     1      -4.130  -0.543  14.701  1.00  0.00     0.157 HD
ATOM     36  H31 UNL     1      -3.216  -0.266  16.162  1.00  0.00     0.157 HD
ENDBRANCH   6  34
BRANCH   1  37
HETATM   37  N1  UNL     1      -7.279   1.801  18.109  1.00  0.00    -0.234 N 
ATOM     38  H12 UNL     1      -6.941   2.041  19.041  1.00  0.00     0.174 HD
ATOM     39  H11 UNL     1      -8.228   1.473  17.928  1.00  0.00     0.174 HD
ENDBRANCH   1  37
TORSDOF 6
ENDMDL
