MODEL 1
REMARK VINA RESULT: -8.498091212      0.000      0.000
REMARK  5 active torsions:
REMARK  status: ('A' for Active; 'I' for Inactive)
REMARK    1  A    between atoms: N1_2  and  C2_4 
REMARK    2  A    between atoms: C3_7  and  N3_8 
REMARK    3  A    between atoms: N3_8  and  C4_10 
REMARK    4  A    between atoms: C10_19  and  N5_20 
REMARK    5  A    between atoms: N5_20  and  C11_22 
ROOT
HETATM    1  C2  UNL     1      -0.114   5.144  11.856  1.00  0.00     0.706 A 
HETATM    2  N2  UNL     1      -0.638   5.189  13.095  1.00  0.00    -0.021 N 
ATOM      3  H2  UNL     1      -0.227   5.823  13.780  1.00  0.00     0.203 HD
HETATM    4  C3  UNL     1      -1.684   4.430  13.462  1.00  0.00     0.711 A 
HETATM    5  N4  UNL     1      -2.210   3.602  12.543  1.00  0.00    -0.021 N 
ATOM      6  H4  UNL     1      -3.005   3.017  12.800  1.00  0.00     0.203 HD
HETATM    7  C10 UNL     1      -1.717   3.523  11.291  1.00  0.00     0.711 A 
HETATM    8  N8  UNL     1      -0.661   4.307  10.959  1.00  0.00    -0.021 N 
ATOM      9  H8  UNL     1      -0.278   4.259  10.015  1.00  0.00     0.203 HD
ENDROOT
BRANCH   7  10
HETATM   10  N5  UNL     1      -2.258   2.721  10.465  1.00  0.00    -0.191 N 
ATOM     11  H5  UNL     1      -2.452   3.074   9.528  1.00  0.00     0.184 HD
BRANCH  10  12
HETATM   12  C11 UNL     1      -2.611   1.389  10.734  1.00  0.00     0.051 A 
HETATM   13  C12 UNL     1      -3.865   1.109  11.217  1.00  0.00     0.031 A 
HETATM   14  C13 UNL     1      -4.261  -0.194  11.501  1.00  0.00     0.017 A 
HETATM   15  C14 UNL     1      -3.369  -1.216  11.288  1.00  0.00     0.009 A 
HETATM   16  C15 UNL     1      -3.472  -2.581  11.472  1.00  0.00     0.120 A 
HETATM   17  C16 UNL     1      -2.118  -0.912  10.804  1.00  0.00     0.061 A 
HETATM   18  N6  UNL     1      -2.278  -3.077  11.094  1.00  0.00    -0.311 N 
HETATM   19  N7  UNL     1      -1.480  -2.103  10.702  1.00  0.00    -0.300 N 
ATOM     20  H6  UNL     1      -2.027  -4.065  11.110  1.00  0.00     0.186 HD
ATOM     21  H7  UNL     1      -0.523  -2.229  10.370  1.00  0.00     0.187 HD
HETATM   22  C17 UNL     1      -1.703   0.385  10.515  1.00  0.00     0.061 A 
ENDBRANCH  10  12
ENDBRANCH   7  10
BRANCH   4  23
HETATM   23  N3  UNL     1      -2.192   4.476  14.670  1.00  0.00    -0.191 N 
ATOM     24  H3  UNL     1      -1.593   4.666  15.473  1.00  0.00     0.184 HD
BRANCH  23  25
HETATM   25  C4  UNL     1      -3.581   4.260  14.849  1.00  0.00     0.050 A 
HETATM   26  C5  UNL     1      -4.540   5.136  14.410  1.00  0.00     0.030 A 
HETATM   27  C6  UNL     1      -5.871   4.851  14.624  1.00  0.00     0.004 A 
HETATM   28  C7  UNL     1      -6.268   3.688  15.279  1.00  0.00     0.019 A 
HETATM   29  C8  UNL     1      -5.306   2.803  15.723  1.00  0.00     0.013 A 
HETATM   30 BR1  UNL     1      -5.755   1.188  16.627  1.00  0.00    -0.051 Br
HETATM   31  C9  UNL     1      -3.976   3.094  15.506  1.00  0.00     0.049 A 
ENDBRANCH  23  25
ENDBRANCH   4  23
BRANCH   1  32
HETATM   32  N1  UNL     1       0.890   5.872  11.498  1.00  0.00    -0.229 N 
HETATM   33  C1  UNL     1       2.135   5.192  11.193  1.00  0.00     0.165 C 
ATOM     34  H1  UNL     1       0.811   6.886  11.433  1.00  0.00     0.177 HD
ENDBRANCH   1  32
TORSDOF 5
ENDMDL
MODEL 2
REMARK VINA RESULT: -8.320536013      3.195      5.016
REMARK  5 active torsions:
REMARK  status: ('A' for Active; 'I' for Inactive)
REMARK    1  A    between atoms: N1_2  and  C2_4 
REMARK    2  A    between atoms: C3_7  and  N3_8 
REMARK    3  A    between atoms: N3_8  and  C4_10 
REMARK    4  A    between atoms: C10_19  and  N5_20 
REMARK    5  A    between atoms: N5_20  and  C11_22 
ROOT
HETATM    1  C2  UNL     1      -4.537   1.356  15.696  1.00  0.00     0.706 A 
HETATM    2  N2  UNL     1      -4.446   2.699  15.718  1.00  0.00    -0.021 N 
ATOM      3  H2  UNL     1      -4.569   3.186  16.605  1.00  0.00     0.203 HD
HETATM    4  C3  UNL     1      -4.199   3.421  14.612  1.00  0.00     0.711 A 
HETATM    5  N4  UNL     1      -4.039   2.758  13.453  1.00  0.00    -0.021 N 
ATOM      6  H4  UNL     1      -3.850   3.287  12.602  1.00  0.00     0.203 HD
HETATM    7  C10 UNL     1      -4.122   1.415  13.386  1.00  0.00     0.711 A 
HETATM    8  N8  UNL     1      -4.372   0.721  14.524  1.00  0.00    -0.021 N 
ATOM      9  H8  UNL     1      -4.436  -0.297  14.488  1.00  0.00     0.203 HD
ENDROOT
BRANCH   7  10
HETATM   10  N5  UNL     1      -3.961   0.843  12.259  1.00  0.00    -0.191 N 
ATOM     11  H5  UNL     1      -4.657   0.150  11.983  1.00  0.00     0.184 HD
BRANCH  10  12
HETATM   12  C11 UNL     1      -2.907   1.087  11.365  1.00  0.00     0.051 A 
HETATM   13  C12 UNL     1      -2.424   2.364  11.224  1.00  0.00     0.031 A 
HETATM   14  C13 UNL     1      -1.381   2.655  10.350  1.00  0.00     0.017 A 
HETATM   15  C14 UNL     1      -0.830   1.633   9.618  1.00  0.00     0.009 A 
HETATM   16  C15 UNL     1       0.193   1.614   8.690  1.00  0.00     0.120 A 
HETATM   17  C16 UNL     1      -1.330   0.362   9.774  1.00  0.00     0.061 A 
HETATM   18  N6  UNL     1       0.292   0.328   8.303  1.00  0.00    -0.311 N 
HETATM   19  N7  UNL     1      -0.598  -0.412   8.936  1.00  0.00    -0.300 N 
ATOM     20  H6  UNL     1       0.961  -0.024   7.619  1.00  0.00     0.186 HD
ATOM     21  H7  UNL     1      -0.718  -1.418   8.812  1.00  0.00     0.187 HD
HETATM   22  C17 UNL     1      -2.372   0.051  10.643  1.00  0.00     0.061 A 
ENDBRANCH  10  12
ENDBRANCH   7  10
BRANCH   4  23
HETATM   23  N3  UNL     1      -4.112   4.729  14.636  1.00  0.00    -0.191 N 
ATOM     24  H3  UNL     1      -3.423   5.187  15.232  1.00  0.00     0.184 HD
BRANCH  23  25
HETATM   25  C4  UNL     1      -4.984   5.499  13.826  1.00  0.00     0.050 A 
HETATM   26  C5  UNL     1      -6.341   5.543  14.015  1.00  0.00     0.030 A 
HETATM   27  C6  UNL     1      -7.119   6.318  13.182  1.00  0.00     0.004 A 
HETATM   28  C7  UNL     1      -6.557   7.062  12.149  1.00  0.00     0.019 A 
HETATM   29  C8  UNL     1      -5.190   7.021  11.955  1.00  0.00     0.013 A 
HETATM   30 BR1  UNL     1      -4.334   8.005  10.567  1.00  0.00    -0.051 Br
HETATM   31  C9  UNL     1      -4.417   6.243  12.791  1.00  0.00     0.049 A 
ENDBRANCH  23  25
ENDBRANCH   4  23
BRANCH   1  32
HETATM   32  N1  UNL     1      -4.773   0.657  16.756  1.00  0.00    -0.229 N 
HETATM   33  C1  UNL     1      -6.114   0.709  17.306  1.00  0.00     0.165 C 
ATOM     34  H1  UNL     1      -4.044   0.091  17.189  1.00  0.00     0.177 HD
ENDBRANCH   1  32
TORSDOF 5
ENDMDL
MODEL 3
REMARK VINA RESULT: -8.276693943      3.237      5.063
REMARK  5 active torsions:
REMARK  status: ('A' for Active; 'I' for Inactive)
REMARK    1  A    between atoms: N1_2  and  C2_4 
REMARK    2  A    between atoms: C3_7  and  N3_8 
REMARK    3  A    between atoms: N3_8  and  C4_10 
REMARK    4  A    between atoms: C10_19  and  N5_20 
REMARK    5  A    between atoms: N5_20  and  C11_22 
ROOT
HETATM    1  C2  UNL     1      -4.768   1.797  15.633  1.00  0.00     0.706 A 
HETATM    2  N2  UNL     1      -5.228   3.029  15.343  1.00  0.00    -0.021 N 
ATOM      3  H2  UNL     1      -5.549   3.626  16.106  1.00  0.00     0.203 HD
HETATM    4  C3  UNL     1      -5.281   3.500  14.086  1.00  0.00     0.711 A 
HETATM    5  N4  UNL     1      -4.853   2.696  13.097  1.00  0.00    -0.021 N 
ATOM      6  H4  UNL     1      -4.883   3.034  12.136  1.00  0.00     0.203 HD
HETATM    7  C10 UNL     1      -4.385   1.456  13.342  1.00  0.00     0.711 A 
HETATM    8  N8  UNL     1      -4.347   1.017  14.624  1.00  0.00    -0.021 N 
ATOM      9  H8  UNL     1      -3.993   0.081  14.825  1.00  0.00     0.203 HD
ENDROOT
BRANCH   7  10
HETATM   10  N5  UNL     1      -3.993   0.742  12.363  1.00  0.00    -0.191 N 
ATOM     11  H5  UNL     1      -4.472  -0.146  12.211  1.00  0.00     0.184 HD
BRANCH  10  12
HETATM   12  C11 UNL     1      -2.956   1.072  11.476  1.00  0.00     0.051 A 
HETATM   13  C12 UNL     1      -2.523   2.372  11.401  1.00  0.00     0.031 A 
HETATM   14  C13 UNL     1      -1.500   2.749  10.537  1.00  0.00     0.017 A 
HETATM   15  C14 UNL     1      -0.918   1.789   9.746  1.00  0.00     0.009 A 
HETATM   16  C15 UNL     1       0.097   1.859   8.812  1.00  0.00     0.120 A 
HETATM   17  C16 UNL     1      -1.368   0.494   9.837  1.00  0.00     0.061 A 
HETATM   18  N6  UNL     1       0.240   0.600   8.355  1.00  0.00    -0.311 N 
HETATM   19  N7  UNL     1      -0.616  -0.206   8.953  1.00  0.00    -0.300 N 
ATOM     20  H6  UNL     1       0.915   0.311   7.648  1.00  0.00     0.186 HD
ATOM     21  H7  UNL     1      -0.700  -1.207   8.775  1.00  0.00     0.187 HD
HETATM   22  C17 UNL     1      -2.390   0.097  10.695  1.00  0.00     0.061 A 
ENDBRANCH  10  12
ENDBRANCH   7  10
BRANCH   4  23
HETATM   23  N3  UNL     1      -5.730   4.699  13.808  1.00  0.00    -0.191 N 
ATOM     24  H3  UNL     1      -6.711   4.930  13.960  1.00  0.00     0.184 HD
BRANCH  23  25
HETATM   25  C4  UNL     1      -4.838   5.674  13.293  1.00  0.00     0.050 A 
HETATM   26  C5  UNL     1      -4.833   6.067  11.979  1.00  0.00     0.030 A 
HETATM   27  C6  UNL     1      -3.933   7.022  11.559  1.00  0.00     0.004 A 
HETATM   28  C7  UNL     1      -3.023   7.600  12.440  1.00  0.00     0.019 A 
HETATM   29  C8  UNL     1      -3.024   7.206  13.764  1.00  0.00     0.013 A 
HETATM   30 BR1  UNL     1      -1.817   7.941  15.040  1.00  0.00    -0.051 Br
HETATM   31  C9  UNL     1      -3.927   6.251  14.179  1.00  0.00     0.049 A 
ENDBRANCH  23  25
ENDBRANCH   4  23
BRANCH   1  32
HETATM   32  N1  UNL     1      -4.715   1.340  16.839  1.00  0.00    -0.229 N 
HETATM   33  C1  UNL     1      -5.914   0.725  17.375  1.00  0.00     0.165 C 
ATOM     34  H1  UNL     1      -3.862   1.410  17.394  1.00  0.00     0.177 HD
ENDBRANCH   1  32
TORSDOF 5
ENDMDL
MODEL 4
REMARK VINA RESULT: -8.208730319      3.352      5.184
REMARK  5 active torsions:
REMARK  status: ('A' for Active; 'I' for Inactive)
REMARK    1  A    between atoms: N1_2  and  C2_4 
REMARK    2  A    between atoms: C3_7  and  N3_8 
REMARK    3  A    between atoms: N3_8  and  C4_10 
REMARK    4  A    between atoms: C10_19  and  N5_20 
REMARK    5  A    between atoms: N5_20  and  C11_22 
ROOT
HETATM    1  C2  UNL     1      -4.665   1.412  15.626  1.00  0.00     0.706 A 
HETATM    2  N2  UNL     1      -5.053   2.693  15.475  1.00  0.00    -0.021 N 
ATOM      3  H2  UNL     1      -5.330   3.224  16.300  1.00  0.00     0.203 HD
HETATM    4  C3  UNL     1      -5.089   3.297  14.275  1.00  0.00     0.711 A 
HETATM    5  N4  UNL     1      -4.719   2.579  13.200  1.00  0.00    -0.021 N 
ATOM      6  H4  UNL     1      -4.738   3.018  12.280  1.00  0.00     0.203 HD
HETATM    7  C10 UNL     1      -4.324   1.295  13.305  1.00  0.00     0.711 A 
HETATM    8  N8  UNL     1      -4.301   0.720  14.533  1.00  0.00    -0.021 N 
ATOM      9  H8  UNL     1      -4.003  -0.251  14.628  1.00  0.00     0.203 HD
ENDROOT
BRANCH   7  10
HETATM   10  N5  UNL     1      -3.985   0.666  12.251  1.00  0.00    -0.191 N 
ATOM     11  H5  UNL     1      -4.520  -0.169  12.012  1.00  0.00     0.184 HD
BRANCH  10  12
HETATM   12  C11 UNL     1      -2.936   1.025  11.390  1.00  0.00     0.051 A 
HETATM   13  C12 UNL     1      -2.518   2.332  11.346  1.00  0.00     0.031 A 
HETATM   14  C13 UNL     1      -1.484   2.737  10.508  1.00  0.00     0.017 A 
HETATM   15  C14 UNL     1      -0.875   1.798   9.712  1.00  0.00     0.009 A 
HETATM   16  C15 UNL     1       0.156   1.897   8.798  1.00  0.00     0.120 A 
HETATM   17  C16 UNL     1      -1.310   0.496   9.772  1.00  0.00     0.061 A 
HETATM   18  N6  UNL     1       0.325   0.648   8.322  1.00  0.00    -0.311 N 
HETATM   19  N7  UNL     1      -0.533  -0.178   8.890  1.00  0.00    -0.300 N 
ATOM     20  H6  UNL     1       1.016   0.380   7.623  1.00  0.00     0.186 HD
ATOM     21  H7  UNL     1      -0.600  -1.177   8.693  1.00  0.00     0.187 HD
HETATM   22  C17 UNL     1      -2.343   0.072  10.602  1.00  0.00     0.061 A 
ENDBRANCH  10  12
ENDBRANCH   7  10
BRANCH   4  23
HETATM   23  N3  UNL     1      -5.468   4.544  14.132  1.00  0.00    -0.191 N 
ATOM     24  H3  UNL     1      -6.449   4.798  14.235  1.00  0.00     0.184 HD
BRANCH  23  25
HETATM   25  C4  UNL     1      -4.499   5.535  13.831  1.00  0.00     0.050 A 
HETATM   26  C5  UNL     1      -3.390   5.760  14.606  1.00  0.00     0.030 A 
HETATM   27  C6  UNL     1      -2.497   6.744  14.243  1.00  0.00     0.004 A 
HETATM   28  C7  UNL     1      -2.693   7.519  13.104  1.00  0.00     0.019 A 
HETATM   29  C8  UNL     1      -3.809   7.296  12.321  1.00  0.00     0.013 A 
HETATM   30 BR1  UNL     1      -4.159   8.308  10.746  1.00  0.00    -0.051 Br
HETATM   31  C9  UNL     1      -4.700   6.311  12.689  1.00  0.00     0.049 A 
ENDBRANCH  23  25
ENDBRANCH   4  23
BRANCH   1  32
HETATM   32  N1  UNL     1      -4.628   0.828  16.776  1.00  0.00    -0.229 N 
HETATM   33  C1  UNL     1      -5.877   0.698  17.501  1.00  0.00     0.165 C 
ATOM     34  H1  UNL     1      -3.753   0.471  17.160  1.00  0.00     0.177 HD
ENDBRANCH   1  32
TORSDOF 5
ENDMDL
MODEL 5
REMARK VINA RESULT: -8.189239339      1.047      1.063
REMARK  5 active torsions:
REMARK  status: ('A' for Active; 'I' for Inactive)
REMARK    1  A    between atoms: N1_2  and  C2_4 
REMARK    2  A    between atoms: C3_7  and  N3_8 
REMARK    3  A    between atoms: N3_8  and  C4_10 
REMARK    4  A    between atoms: C10_19  and  N5_20 
REMARK    5  A    between atoms: N5_20  and  C11_22 
ROOT
HETATM    1  C2  UNL     1      -1.535   5.871  11.692  1.00  0.00     0.706 A 
HETATM    2  N2  UNL     1      -1.841   5.596  12.974  1.00  0.00    -0.021 N 
ATOM      3  H2  UNL     1      -1.771   6.341  13.667  1.00  0.00     0.203 HD
HETATM    4  C3  UNL     1      -2.235   4.376  13.373  1.00  0.00     0.711 A 
HETATM    5  N4  UNL     1      -2.321   3.409  12.443  1.00  0.00    -0.021 N 
ATOM      6  H4  UNL     1      -2.619   2.475  12.725  1.00  0.00     0.203 HD
HETATM    7  C10 UNL     1      -2.024   3.640  11.149  1.00  0.00     0.711 A 
HETATM    8  N8  UNL     1      -1.630   4.885  10.785  1.00  0.00    -0.021 N 
ATOM      9  H8  UNL     1      -1.404   5.075   9.808  1.00  0.00     0.203 HD
ENDROOT
BRANCH   7  10
HETATM   10  N5  UNL     1      -2.124   2.684  10.314  1.00  0.00    -0.191 N 
ATOM     11  H5  UNL     1      -1.882   2.883   9.344  1.00  0.00     0.184 HD
BRANCH  10  12
HETATM   12  C11 UNL     1      -2.541   1.377  10.617  1.00  0.00     0.051 A 
HETATM   13  C12 UNL     1      -3.831   1.160  11.029  1.00  0.00     0.031 A 
HETATM   14  C13 UNL     1      -4.290  -0.116  11.341  1.00  0.00     0.017 A 
HETATM   15  C14 UNL     1      -3.422  -1.174  11.231  1.00  0.00     0.009 A 
HETATM   16  C15 UNL     1      -3.585  -2.525  11.466  1.00  0.00     0.120 A 
HETATM   17  C16 UNL     1      -2.134  -0.933  10.817  1.00  0.00     0.061 A 
HETATM   18  N6  UNL     1      -2.388  -3.076  11.188  1.00  0.00    -0.311 N 
HETATM   19  N7  UNL     1      -1.532  -2.147  10.807  1.00  0.00    -0.300 N 
ATOM     20  H6  UNL     1      -2.173  -4.070  11.262  1.00  0.00     0.186 HD
ATOM     21  H7  UNL     1      -0.561  -2.318  10.544  1.00  0.00     0.187 HD
HETATM   22  C17 UNL     1      -1.656   0.336  10.501  1.00  0.00     0.061 A 
ENDBRANCH  10  12
ENDBRANCH   7  10
BRANCH   4  23
HETATM   23  N3  UNL     1      -2.532   4.111  14.623  1.00  0.00    -0.191 N 
ATOM     24  H3  UNL     1      -1.797   4.063  15.327  1.00  0.00     0.184 HD
BRANCH  23  25
HETATM   25  C4  UNL     1      -3.885   3.894  14.985  1.00  0.00     0.050 A 
HETATM   26  C5  UNL     1      -4.899   4.757  14.656  1.00  0.00     0.030 A 
HETATM   27  C6  UNL     1      -6.189   4.471  15.047  1.00  0.00     0.004 A 
HETATM   28  C7  UNL     1      -6.490   3.321  15.772  1.00  0.00     0.019 A 
HETATM   29  C8  UNL     1      -5.472   2.450  16.106  1.00  0.00     0.013 A 
HETATM   30 BR1  UNL     1      -5.790   0.854  17.096  1.00  0.00    -0.051 Br
HETATM   31  C9  UNL     1      -4.184   2.741  15.713  1.00  0.00     0.049 A 
ENDBRANCH  23  25
ENDBRANCH   4  23
BRANCH   1  32
HETATM   32  N1  UNL     1      -1.157   7.042  11.303  1.00  0.00    -0.229 N 
HETATM   33  C1  UNL     1      -0.456   7.872  12.263  1.00  0.00     0.165 C 
ATOM     34  H1  UNL     1      -1.344   7.371  10.356  1.00  0.00     0.177 HD
ENDBRANCH   1  32
TORSDOF 5
ENDMDL
