MODEL 1
REMARK VINA RESULT: -9.033746013      0.000      0.000
REMARK  6 active torsions:
REMARK  status: ('A' for Active; 'I' for Inactive)
REMARK    1  A    between atoms: C3_3  and  C4_4 
REMARK    2  A    between atoms: C4_4  and  C5_5 
REMARK    3  A    between atoms: C7_12  and  O2_13 
REMARK    4  A    between atoms: C8_15  and  C9_16 
REMARK    5  A    between atoms: C12_19  and  N3_20 
REMARK    6  A    between atoms: N5_27  and  C15_28 
ROOT
HETATM    1  C1  UNL     1      -4.840   5.938  14.406  1.00  0.00     0.044 C 
HETATM    2  C2  UNL     1      -4.614   5.111  13.408  1.00  0.00     0.041 A 
HETATM    3  C3  UNL     1      -4.228   3.788  13.482  1.00  0.00     0.005 A 
HETATM    4  C8  UNL     1      -4.122   3.365  12.141  1.00  0.00     0.004 A 
HETATM    5  C14 UNL     1      -4.443   4.428  11.325  1.00  0.00     0.111 A 
HETATM    6  N5  UNL     1      -4.739   5.478  12.082  1.00  0.00    -0.321 N 
ENDROOT
BRANCH   3   7
HETATM    7  C4  UNL     1      -3.998   3.012  14.514  1.00  0.00     0.048 C 
BRANCH   7   8
HETATM    8  C5  UNL     1      -4.912   2.379  15.428  1.00  0.00     0.088 A 
HETATM    9  N1  UNL     1      -6.173   2.778  15.765  1.00  0.00    -0.305 N 
HETATM   10  C6  UNL     1      -6.676   1.888  16.610  1.00  0.00     0.326 A 
ATOM     11  H1  UNL     1      -6.646   3.615  15.426  1.00  0.00     0.171 HD
HETATM   12  O1  UNL     1      -7.822   1.940  17.127  1.00  0.00    -0.247 OA
HETATM   13  N2  UNL     1      -5.793   0.910  16.848  1.00  0.00    -0.287 N 
HETATM   14  C7  UNL     1      -4.701   1.195  16.129  1.00  0.00     0.171 A 
ATOM     15  H2  UNL     1      -5.926   0.103  17.458  1.00  0.00     0.172 HD
BRANCH  14  16
HETATM   16  O2  UNL     1      -3.534   0.420  16.093  1.00  0.00    -0.344 OA
ATOM     17  H2  UNL     1      -3.195  -0.104  16.809  1.00  0.00     0.219 HD
ENDBRANCH  14  16
ENDBRANCH   7   8
ENDBRANCH   3   7
BRANCH   4  18
HETATM   18  C9  UNL     1      -3.714   2.036  11.710  1.00  0.00    -0.008 A 
HETATM   19  C10 UNL     1      -2.392   1.934  11.256  1.00  0.00     0.017 A 
HETATM   20  C11 UNL     1      -1.901   0.695  10.847  1.00  0.00     0.049 A 
HETATM   21  C12 UNL     1      -2.722  -0.409  10.896  1.00  0.00     0.098 A 
HETATM   22  N4  UNL     1      -3.994  -0.291  11.338  1.00  0.00    -0.352 N 
HETATM   23  C13 UNL     1      -4.452   0.903  11.727  1.00  0.00     0.102 A 
ATOM     24  H4  UNL     1      -4.601  -1.109  11.375  1.00  0.00     0.166 HD
BRANCH  21  25
HETATM   25  N3  UNL     1      -2.289  -1.552  10.526  1.00  0.00    -0.385 N 
ATOM     26  H32 UNL     1      -1.315  -1.651  10.239  1.00  0.00     0.157 HD
ATOM     27  H31 UNL     1      -2.910  -2.361  10.518  1.00  0.00     0.157 HD
ENDBRANCH  21  25
ENDBRANCH   4  18
BRANCH   6  28
HETATM   28  C15 UNL     1      -5.127   6.792  11.643  1.00  0.00     0.039 A 
HETATM   29  C16 UNL     1      -6.443   7.182  11.669  1.00  0.00     0.031 A 
HETATM   30  C17 UNL     1      -6.762   8.465  11.232  1.00  0.00     0.021 A 
HETATM   31  C18 UNL     1      -5.788   9.341  10.778  1.00  0.00     0.011 A 
HETATM   32 BR1  UNL     1      -6.240  11.100  10.180  1.00  0.00    -0.051 Br
HETATM   33  C19 UNL     1      -4.490   8.909  10.769  1.00  0.00     0.021 A 
HETATM   34  C20 UNL     1      -4.134   7.634  11.198  1.00  0.00     0.031 A 
ENDBRANCH   6  28
TORSDOF 6
ENDMDL
MODEL 2
REMARK VINA RESULT: -8.803235141      0.874      1.273
REMARK  6 active torsions:
REMARK  status: ('A' for Active; 'I' for Inactive)
REMARK    1  A    between atoms: C3_3  and  C4_4 
REMARK    2  A    between atoms: C4_4  and  C5_5 
REMARK    3  A    between atoms: C7_12  and  O2_13 
REMARK    4  A    between atoms: C8_15  and  C9_16 
REMARK    5  A    between atoms: C12_19  and  N3_20 
REMARK    6  A    between atoms: N5_27  and  C15_28 
ROOT
HETATM    1  C1  UNL     1      -4.665   6.027  14.455  1.00  0.00     0.044 C 
HETATM    2  C2  UNL     1      -4.491   5.168  13.475  1.00  0.00     0.041 A 
HETATM    3  C3  UNL     1      -4.119   3.842  13.574  1.00  0.00     0.005 A 
HETATM    4  C8  UNL     1      -4.072   3.378  12.243  1.00  0.00     0.004 A 
HETATM    5  C14 UNL     1      -4.412   4.421  11.409  1.00  0.00     0.111 A 
HETATM    6  N5  UNL     1      -4.663   5.497  12.145  1.00  0.00    -0.321 N 
ENDROOT
BRANCH   3   7
HETATM    7  C4  UNL     1      -3.858   3.093  14.618  1.00  0.00     0.048 C 
BRANCH   7   8
HETATM    8  C5  UNL     1      -4.736   2.313  15.451  1.00  0.00     0.088 A 
HETATM    9  N1  UNL     1      -4.555   1.035  15.895  1.00  0.00    -0.305 N 
HETATM   10  C6  UNL     1      -5.586   0.715  16.665  1.00  0.00     0.326 A 
ATOM     11  H1  UNL     1      -3.764   0.431  15.673  1.00  0.00     0.171 HD
HETATM   12  O1  UNL     1      -5.748  -0.390  17.244  1.00  0.00    -0.247 OA
HETATM   13  N2  UNL     1      -6.448   1.737  16.749  1.00  0.00    -0.287 N 
HETATM   14  C7  UNL     1      -5.942   2.728  16.008  1.00  0.00     0.171 A 
ATOM     15  H2  UNL     1      -7.322   1.755  17.276  1.00  0.00     0.172 HD
BRANCH  14  16
HETATM   16  O2  UNL     1      -6.537   3.984  15.826  1.00  0.00    -0.344 OA
ATOM     17  H2  UNL     1      -6.358   4.583  15.110  1.00  0.00     0.219 HD
ENDBRANCH  14  16
ENDBRANCH   7   8
ENDBRANCH   3   7
BRANCH   4  18
HETATM   18  C9  UNL     1      -3.699   2.031  11.836  1.00  0.00    -0.008 A 
HETATM   19  C10 UNL     1      -2.476   1.928  11.158  1.00  0.00     0.017 A 
HETATM   20  C11 UNL     1      -2.022   0.675  10.752  1.00  0.00     0.049 A 
HETATM   21  C12 UNL     1      -2.779  -0.442  11.024  1.00  0.00     0.098 A 
HETATM   22  N4  UNL     1      -3.955  -0.322  11.679  1.00  0.00    -0.352 N 
HETATM   23  C13 UNL     1      -4.380   0.885  12.062  1.00  0.00     0.102 A 
ATOM     24  H4  UNL     1      -4.516  -1.150  11.880  1.00  0.00     0.166 HD
BRANCH  21  25
HETATM   25  N3  UNL     1      -2.377  -1.599  10.660  1.00  0.00    -0.385 N 
ATOM     26  H32 UNL     1      -2.668  -2.421  11.187  1.00  0.00     0.157 HD
ATOM     27  H31 UNL     1      -1.769  -1.701   9.847  1.00  0.00     0.157 HD
ENDBRANCH  21  25
ENDBRANCH   4  18
BRANCH   6  28
HETATM   28  C15 UNL     1      -5.052   6.803  11.682  1.00  0.00     0.039 A 
HETATM   29  C16 UNL     1      -6.374   7.168  11.637  1.00  0.00     0.031 A 
HETATM   30  C17 UNL     1      -6.693   8.445  11.179  1.00  0.00     0.021 A 
HETATM   31  C18 UNL     1      -5.713   9.337  10.776  1.00  0.00     0.011 A 
HETATM   32 BR1  UNL     1      -6.164  11.087  10.151  1.00  0.00    -0.051 Br
HETATM   33  C19 UNL     1      -4.408   8.930  10.838  1.00  0.00     0.021 A 
HETATM   34  C20 UNL     1      -4.052   7.662  11.289  1.00  0.00     0.031 A 
ENDBRANCH   6  28
TORSDOF 6
ENDMDL
MODEL 3
REMARK VINA RESULT: -8.511976214      1.886      4.783
REMARK  6 active torsions:
REMARK  status: ('A' for Active; 'I' for Inactive)
REMARK    1  A    between atoms: C3_3  and  C4_4 
REMARK    2  A    between atoms: C4_4  and  C5_5 
REMARK    3  A    between atoms: C7_12  and  O2_13 
REMARK    4  A    between atoms: C8_15  and  C9_16 
REMARK    5  A    between atoms: C12_19  and  N3_20 
REMARK    6  A    between atoms: N5_27  and  C15_28 
ROOT
HETATM    1  C1  UNL     1      -3.467   5.233  10.540  1.00  0.00     0.044 C 
HETATM    2  C2  UNL     1      -4.047   5.064  11.708  1.00  0.00     0.041 A 
HETATM    3  C3  UNL     1      -3.920   3.988  12.563  1.00  0.00     0.005 A 
HETATM    4  C8  UNL     1      -4.744   4.300  13.664  1.00  0.00     0.004 A 
HETATM    5  C14 UNL     1      -5.323   5.529  13.436  1.00  0.00     0.111 A 
HETATM    6  N5  UNL     1      -4.908   5.990  12.263  1.00  0.00    -0.321 N 
ENDROOT
BRANCH   3   7
HETATM    7  C4  UNL     1      -3.213   2.888  12.468  1.00  0.00     0.048 C 
BRANCH   7   8
HETATM    8  C5  UNL     1      -3.385   1.737  11.620  1.00  0.00     0.088 A 
HETATM    9  N1  UNL     1      -2.442   0.828  11.237  1.00  0.00    -0.305 N 
HETATM   10  C6  UNL     1      -3.035  -0.092  10.487  1.00  0.00     0.326 A 
ATOM     11  H1  UNL     1      -1.453   0.851  11.485  1.00  0.00     0.171 HD
HETATM   12  O1  UNL     1      -2.465  -1.083   9.962  1.00  0.00    -0.247 OA
HETATM   13  N2  UNL     1      -4.341   0.174  10.357  1.00  0.00    -0.287 N 
HETATM   14  C7  UNL     1      -4.575   1.296  11.048  1.00  0.00     0.171 A 
ATOM     15  H2  UNL     1      -5.026  -0.372   9.834  1.00  0.00     0.172 HD
BRANCH  14  16
HETATM   16  O2  UNL     1      -5.822   1.922  11.170  1.00  0.00    -0.344 OA
ATOM     17  H2  UNL     1      -6.570   1.785  10.600  1.00  0.00     0.219 HD
ENDBRANCH  14  16
ENDBRANCH   7   8
ENDBRANCH   3   7
BRANCH   4  18
HETATM   18  C9  UNL     1      -4.955   3.445  14.823  1.00  0.00    -0.008 A 
HETATM   19  C10 UNL     1      -6.246   3.485  15.368  1.00  0.00     0.017 A 
HETATM   20  C11 UNL     1      -6.552   2.680  16.464  1.00  0.00     0.049 A 
HETATM   21  C12 UNL     1      -5.583   1.858  16.993  1.00  0.00     0.098 A 
HETATM   22  N4  UNL     1      -4.344   1.833  16.453  1.00  0.00    -0.352 N 
HETATM   23  C13 UNL     1      -4.063   2.610  15.403  1.00  0.00     0.102 A 
ATOM     24  H4  UNL     1      -3.627   1.224  16.846  1.00  0.00     0.166 HD
BRANCH  21  25
HETATM   25  N3  UNL     1      -5.846   1.113  17.997  1.00  0.00    -0.385 N 
ATOM     26  H32 UNL     1      -5.122   0.930  18.691  1.00  0.00     0.157 HD
ATOM     27  H31 UNL     1      -6.774   0.703  18.105  1.00  0.00     0.157 HD
ENDBRANCH  21  25
ENDBRANCH   4  18
BRANCH   6  28
HETATM   28  C15 UNL     1      -5.266   7.235  11.635  1.00  0.00     0.039 A 
HETATM   29  C16 UNL     1      -4.301   8.141  11.272  1.00  0.00     0.031 A 
HETATM   30  C17 UNL     1      -4.705   9.331  10.668  1.00  0.00     0.021 A 
HETATM   31  C18 UNL     1      -6.042   9.607  10.432  1.00  0.00     0.011 A 
HETATM   32 BR1  UNL     1      -6.582  11.244   9.602  1.00  0.00    -0.051 Br
HETATM   33  C19 UNL     1      -6.968   8.675  10.811  1.00  0.00     0.021 A 
HETATM   34  C20 UNL     1      -6.602   7.476  11.417  1.00  0.00     0.031 A 
ENDBRANCH   6  28
TORSDOF 6
ENDMDL
MODEL 4
REMARK VINA RESULT: -8.023377591      3.270      4.325
REMARK  6 active torsions:
REMARK  status: ('A' for Active; 'I' for Inactive)
REMARK    1  A    between atoms: C3_3  and  C4_4 
REMARK    2  A    between atoms: C4_4  and  C5_5 
REMARK    3  A    between atoms: C7_12  and  O2_13 
REMARK    4  A    between atoms: C8_15  and  C9_16 
REMARK    5  A    between atoms: C12_19  and  N3_20 
REMARK    6  A    between atoms: N5_27  and  C15_28 
ROOT
HETATM    1  C1  UNL     1      -3.178   4.853  11.443  1.00  0.00     0.044 C 
HETATM    2  C2  UNL     1      -2.755   3.648  11.127  1.00  0.00     0.041 A 
HETATM    3  C3  UNL     1      -3.328   2.439  11.467  1.00  0.00     0.005 A 
HETATM    4  C8  UNL     1      -2.489   1.465  10.888  1.00  0.00     0.004 A 
HETATM    5  C14 UNL     1      -1.463   2.111  10.233  1.00  0.00     0.111 A 
HETATM    6  N5  UNL     1      -1.619   3.421  10.375  1.00  0.00    -0.321 N 
ENDROOT
BRANCH   3   7
HETATM    7  C4  UNL     1      -4.407   2.158  12.156  1.00  0.00     0.048 C 
BRANCH   7   8
HETATM    8  C5  UNL     1      -4.655   2.227  13.573  1.00  0.00     0.088 A 
HETATM    9  N1  UNL     1      -4.181   1.400  14.549  1.00  0.00    -0.305 N 
HETATM   10  C6  UNL     1      -4.622   1.844  15.718  1.00  0.00     0.326 A 
ATOM     11  H1  UNL     1      -3.589   0.582  14.404  1.00  0.00     0.171 HD
HETATM   12  O1  UNL     1      -4.378   1.321  16.836  1.00  0.00    -0.247 OA
HETATM   13  N2  UNL     1      -5.375   2.939  15.553  1.00  0.00    -0.287 N 
HETATM   14  C7  UNL     1      -5.407   3.190  14.240  1.00  0.00     0.171 A 
ATOM     15  H2  UNL     1      -5.836   3.478  16.287  1.00  0.00     0.172 HD
BRANCH  14  16
HETATM   16  O2  UNL     1      -6.090   4.255  13.638  1.00  0.00    -0.344 OA
ATOM     17  H2  UNL     1      -5.728   5.114  13.458  1.00  0.00     0.219 HD
ENDBRANCH  14  16
ENDBRANCH   7   8
ENDBRANCH   3   7
BRANCH   4  18
HETATM   18  C9  UNL     1      -2.674   0.025  10.998  1.00  0.00    -0.008 A 
HETATM   19  C10 UNL     1      -1.612  -0.753  10.519  1.00  0.00     0.017 A 
HETATM   20  C11 UNL     1      -1.687  -2.142  10.606  1.00  0.00     0.049 A 
HETATM   21  C12 UNL     1      -2.802  -2.728  11.161  1.00  0.00     0.098 A 
HETATM   22  N4  UNL     1      -3.816  -1.960  11.617  1.00  0.00    -0.352 N 
HETATM   23  C13 UNL     1      -3.732  -0.630  11.528  1.00  0.00     0.102 A 
ATOM     24  H4  UNL     1      -4.642  -2.395  12.028  1.00  0.00     0.166 HD
BRANCH  21  25
HETATM   25  N3  UNL     1      -2.886  -4.000  11.249  1.00  0.00    -0.385 N 
ATOM     26  H32 UNL     1      -3.574  -4.498  10.684  1.00  0.00     0.157 HD
ATOM     27  H31 UNL     1      -2.272  -4.514  11.879  1.00  0.00     0.157 HD
ENDBRANCH  21  25
ENDBRANCH   4  18
BRANCH   6  28
HETATM   28  C15 UNL     1      -0.776   4.465   9.853  1.00  0.00     0.039 A 
HETATM   29  C16 UNL     1      -1.041   5.038   8.634  1.00  0.00     0.031 A 
HETATM   30  C17 UNL     1      -0.191   6.044   8.178  1.00  0.00     0.021 A 
HETATM   31  C18 UNL     1       0.898   6.468   8.923  1.00  0.00     0.011 A 
HETATM   32 BR1  UNL     1       2.055   7.850   8.284  1.00  0.00    -0.051 Br
HETATM   33  C19 UNL     1       1.123   5.867  10.132  1.00  0.00     0.021 A 
HETATM   34  C20 UNL     1       0.295   4.860  10.619  1.00  0.00     0.031 A 
ENDBRANCH   6  28
TORSDOF 6
ENDMDL
MODEL 5
REMARK VINA RESULT: -7.900804113      2.095      2.474
REMARK  6 active torsions:
REMARK  status: ('A' for Active; 'I' for Inactive)
REMARK    1  A    between atoms: C3_3  and  C4_4 
REMARK    2  A    between atoms: C4_4  and  C5_5 
REMARK    3  A    between atoms: C7_12  and  O2_13 
REMARK    4  A    between atoms: C8_15  and  C9_16 
REMARK    5  A    between atoms: C12_19  and  N3_20 
REMARK    6  A    between atoms: N5_27  and  C15_28 
ROOT
HETATM    1  C1  UNL     1      -4.811   5.628  14.993  1.00  0.00     0.044 C 
HETATM    2  C2  UNL     1      -4.162   4.929  14.088  1.00  0.00     0.041 A 
HETATM    3  C3  UNL     1      -4.355   3.605  13.748  1.00  0.00     0.005 A 
HETATM    4  C8  UNL     1      -3.408   3.348  12.735  1.00  0.00     0.004 A 
HETATM    5  C14 UNL     1      -2.694   4.504  12.507  1.00  0.00     0.111 A 
HETATM    6  N5  UNL     1      -3.143   5.455  13.317  1.00  0.00    -0.321 N 
ENDROOT
BRANCH   3   7
HETATM    7  C4  UNL     1      -5.205   2.713  14.197  1.00  0.00     0.048 C 
BRANCH   7   8
HETATM    8  C5  UNL     1      -5.379   2.173  15.520  1.00  0.00     0.088 A 
HETATM    9  N1  UNL     1      -5.934   2.781  16.609  1.00  0.00    -0.305 N 
HETATM   10  C6  UNL     1      -5.931   1.915  17.613  1.00  0.00     0.326 A 
ATOM     11  H1  UNL     1      -6.289   3.736  16.644  1.00  0.00     0.171 HD
HETATM   12  O1  UNL     1      -6.368   2.139  18.771  1.00  0.00    -0.247 OA
HETATM   13  N2  UNL     1      -5.393   0.749  17.230  1.00  0.00    -0.287 N 
HETATM   14  C7  UNL     1      -5.047   0.890  15.945  1.00  0.00     0.171 A 
ATOM     15  H2  UNL     1      -5.270  -0.084  17.806  1.00  0.00     0.172 HD
BRANCH  14  16
HETATM   16  O2  UNL     1      -4.447  -0.102  15.158  1.00  0.00    -0.344 OA
ATOM     17  H2  UNL     1      -3.792  -0.724  15.455  1.00  0.00     0.219 HD
ENDBRANCH  14  16
ENDBRANCH   7   8
ENDBRANCH   3   7
BRANCH   4  18
HETATM   18  C9  UNL     1      -3.213   2.066  12.075  1.00  0.00    -0.008 A 
HETATM   19  C10 UNL     1      -2.002   1.927  11.384  1.00  0.00     0.017 A 
HETATM   20  C11 UNL     1      -1.713   0.724  10.742  1.00  0.00     0.049 A 
HETATM   21  C12 UNL     1      -2.621  -0.309  10.796  1.00  0.00     0.098 A 
HETATM   22  N4  UNL     1      -3.784  -0.156  11.468  1.00  0.00    -0.352 N 
HETATM   23  C13 UNL     1      -4.049   1.002  12.079  1.00  0.00     0.102 A 
ATOM     24  H4  UNL     1      -4.456  -0.921  11.508  1.00  0.00     0.166 HD
BRANCH  21  25
HETATM   25  N3  UNL     1      -2.372  -1.418  10.214  1.00  0.00    -0.385 N 
ATOM     26  H32 UNL     1      -3.036  -2.188  10.295  1.00  0.00     0.157 HD
ATOM     27  H31 UNL     1      -1.516  -1.535   9.672  1.00  0.00     0.157 HD
ENDBRANCH  21  25
ENDBRANCH   4  18
BRANCH   6  28
HETATM   28  C15 UNL     1      -2.681   6.814  13.413  1.00  0.00     0.039 A 
HETATM   29  C16 UNL     1      -2.871   7.696  12.378  1.00  0.00     0.031 A 
HETATM   30  C17 UNL     1      -2.402   9.000  12.524  1.00  0.00     0.021 A 
HETATM   31  C18 UNL     1      -1.758   9.414  13.679  1.00  0.00     0.011 A 
HETATM   32 BR1  UNL     1      -1.119  11.207  13.867  1.00  0.00    -0.051 Br
HETATM   33  C19 UNL     1      -1.590   8.501  14.685  1.00  0.00     0.021 A 
HETATM   34  C20 UNL     1      -2.045   7.190  14.573  1.00  0.00     0.031 A 
ENDBRANCH   6  28
TORSDOF 6
ENDMDL
