MODEL 1
REMARK VINA RESULT: -9.121592838      0.000      0.000
REMARK  14 active torsions:
REMARK  status: ('A' for Active; 'I' for Inactive)
REMARK    1  A    between atoms: C2_2  and  C3_3 
REMARK    2  A    between atoms: C2_2  and  C4_7 
REMARK    3  A    between atoms: C3_3  and  S1_4 
REMARK       I    between atoms: C4_7  and  N1_9 
REMARK    4  A    between atoms: N1_9  and  C5_11 
REMARK    5  A    between atoms: C5_11  and  O4_12 
REMARK    6  A    between atoms: C5_11  and  N2_14 
REMARK    7  A    between atoms: N2_14  and  C6_16 
REMARK    8  A    between atoms: C6_16  and  C7_17 
REMARK    9  A    between atoms: C6_16  and  C10_24 
REMARK   10  A    between atoms: C8_18  and  C9_19 
REMARK   11  A    between atoms: C9_19  and  O5_20 
REMARK   12  A    between atoms: C9_19  and  O6_22 
REMARK   13  A    between atoms: C10_24  and  C11_25 
REMARK   14  A    between atoms: C11_25  and  C12_26 
ROOT
HETATM    1  C6  UNL     1      26.668 -14.544  10.687  1.00  0.00     0.103 C 
ENDROOT
BRANCH   1   2
HETATM    2  N2  UNL     1      26.355 -14.763   9.364  1.00  0.00    -0.373 N 
ATOM      3  H2  UNL     1      25.772 -15.577   9.170  1.00  0.00     0.158 HD
BRANCH   2   4
HETATM    4  C5  UNL     1      26.736 -14.008   8.261  1.00  0.00     0.325 C 
BRANCH   4   5
HETATM    5  N1  UNL     1      27.877 -13.114   8.600  1.00  0.00    -0.318 N 
HETATM    6  C4  UNL     1      29.076 -13.075   7.870  1.00  0.00     0.225 C 
HETATM    7  O3  UNL     1      29.216 -13.852   6.863  1.00  0.00    -0.273 OA
ATOM      8  H1  UNL     1      27.783 -12.497   9.406  1.00  0.00     0.166 HD
BRANCH   6   9
HETATM    9  C2  UNL     1      30.213 -12.179   8.187  1.00  0.00     0.088 C 
HETATM   10  C1  UNL     1      30.973 -12.743   9.416  1.00  0.00     0.021 C 
BRANCH   9  11
HETATM   11  C3  UNL     1      31.236 -12.219   7.088  1.00  0.00     0.170 C 
BRANCH  11  12
HETATM   12  S1  UNL     1      31.071 -10.975   5.882  1.00  0.00     0.251 S 
HETATM   13  O1  UNL     1      32.437 -10.706   5.270  1.00  0.00    -0.212 OA
HETATM   14  O2  UNL     1      30.631  -9.698   6.554  1.00  0.00    -0.212 OA
ENDBRANCH  11  12
ENDBRANCH   9  11
ENDBRANCH   6   9
ENDBRANCH   4   5
BRANCH   4  15
HETATM   15  O4  UNL     1      25.744 -13.049   7.852  1.00  0.00    -0.360 OA
ATOM     16  H4  UNL     1      25.205 -12.999   8.632  1.00  0.00     0.214 HD
ENDBRANCH   4  15
ENDBRANCH   2   4
ENDBRANCH   1   2
BRANCH   1  17
HETATM   17  C7  UNL     1      25.417 -14.372  11.556  1.00  0.00    -0.002 C 
HETATM   18  C8  UNL     1      24.334 -13.829  11.067  1.00  0.00     0.030 C 
BRANCH  18  19
HETATM   19  C9  UNL     1      23.059 -13.587  11.744  1.00  0.00     0.278 C 
BRANCH  19  20
HETATM   20  O5  UNL     1      22.926 -12.280  12.205  1.00  0.00    -0.368 OA
ATOM     21  H5  UNL     1      22.049 -11.934  12.093  1.00  0.00     0.213 HD
ENDBRANCH  19  20
BRANCH  19  22
HETATM   22  O6  UNL     1      22.801 -14.464  12.793  1.00  0.00    -0.368 OA
ATOM     23  H6  UNL     1      21.890 -14.490  13.058  1.00  0.00     0.213 HD
ENDBRANCH  19  22
ENDBRANCH  18  19
ENDBRANCH   1  17
BRANCH   1  24
HETATM   24  C10 UNL     1      27.553 -15.440  11.468  1.00  0.00     0.029 C 
BRANCH  24  25
HETATM   25  C11 UNL     1      28.794 -15.932  10.854  1.00  0.00     0.007 C 
BRANCH  25  26
HETATM   26  C12 UNL     1      29.623 -16.799  11.826  1.00  0.00    -0.014 C 
HETATM   27  C13 UNL     1      29.636 -16.130  13.126  1.00  0.00     0.004 C 
HETATM   28  C14 UNL     1      29.256 -16.914  14.332  1.00  0.00     0.000 C 
HETATM   29  C15 UNL     1      29.407 -18.391  14.187  1.00  0.00     0.000 C 
HETATM   30  C16 UNL     1      28.597 -18.803  12.995  1.00  0.00     0.000 C 
HETATM   31  C17 UNL     1      29.064 -18.176  11.735  1.00  0.00     0.004 C 
ENDBRANCH  25  26
ENDBRANCH  24  25
ENDBRANCH   1  24
TORSDOF 14
ENDMDL
MODEL 2
REMARK VINA RESULT: -9.001128705      1.831      2.261
REMARK  14 active torsions:
REMARK  status: ('A' for Active; 'I' for Inactive)
REMARK    1  A    between atoms: C2_2  and  C3_3 
REMARK    2  A    between atoms: C2_2  and  C4_7 
REMARK    3  A    between atoms: C3_3  and  S1_4 
REMARK       I    between atoms: C4_7  and  N1_9 
REMARK    4  A    between atoms: N1_9  and  C5_11 
REMARK    5  A    between atoms: C5_11  and  O4_12 
REMARK    6  A    between atoms: C5_11  and  N2_14 
REMARK    7  A    between atoms: N2_14  and  C6_16 
REMARK    8  A    between atoms: C6_16  and  C7_17 
REMARK    9  A    between atoms: C6_16  and  C10_24 
REMARK   10  A    between atoms: C8_18  and  C9_19 
REMARK   11  A    between atoms: C9_19  and  O5_20 
REMARK   12  A    between atoms: C9_19  and  O6_22 
REMARK   13  A    between atoms: C10_24  and  C11_25 
REMARK   14  A    between atoms: C11_25  and  C12_26 
ROOT
HETATM    1  C6  UNL     1      26.683 -14.551  10.724  1.00  0.00     0.103 C 
ENDROOT
BRANCH   1   2
HETATM    2  N2  UNL     1      26.370 -14.764   9.400  1.00  0.00    -0.373 N 
ATOM      3  H2  UNL     1      25.732 -15.536   9.208  1.00  0.00     0.158 HD
BRANCH   2   4
HETATM    4  C5  UNL     1      26.819 -14.053   8.293  1.00  0.00     0.325 C 
BRANCH   4   5
HETATM    5  N1  UNL     1      28.088 -13.338   8.601  1.00  0.00    -0.318 N 
HETATM    6  C4  UNL     1      29.227 -13.389   7.782  1.00  0.00     0.225 C 
HETATM    7  O3  UNL     1      29.193 -14.094   6.715  1.00  0.00    -0.273 OA
ATOM      8  H1  UNL     1      28.132 -12.780   9.454  1.00  0.00     0.166 HD
BRANCH   6   9
HETATM    9  C2  UNL     1      30.489 -12.670   8.069  1.00  0.00     0.088 C 
HETATM   10  C1  UNL     1      30.562 -11.402   7.177  1.00  0.00     0.021 C 
BRANCH   9  11
HETATM   11  C3  UNL     1      30.476 -12.120   9.466  1.00  0.00     0.170 C 
BRANCH  11  12
HETATM   12  S1  UNL     1      30.948 -13.245  10.706  1.00  0.00     0.251 S 
HETATM   13  O1  UNL     1      29.979 -13.121  11.872  1.00  0.00    -0.212 OA
HETATM   14  O2  UNL     1      32.312 -12.859  11.224  1.00  0.00    -0.212 OA
ENDBRANCH  11  12
ENDBRANCH   9  11
ENDBRANCH   6   9
ENDBRANCH   4   5
BRANCH   4  15
HETATM   15  O4  UNL     1      25.962 -12.955   7.931  1.00  0.00    -0.360 OA
ATOM     16  H4  UNL     1      25.982 -13.012   6.983  1.00  0.00     0.214 HD
ENDBRANCH   4  15
ENDBRANCH   2   4
ENDBRANCH   1   2
BRANCH   1  17
HETATM   17  C7  UNL     1      25.436 -14.295  11.578  1.00  0.00    -0.002 C 
HETATM   18  C8  UNL     1      24.336 -13.846  11.034  1.00  0.00     0.030 C 
BRANCH  18  19
HETATM   19  C9  UNL     1      23.062 -13.546  11.689  1.00  0.00     0.278 C 
BRANCH  19  20
HETATM   20  O5  UNL     1      22.975 -12.230  12.136  1.00  0.00    -0.368 OA
ATOM     21  H5  UNL     1      22.267 -11.746  11.730  1.00  0.00     0.213 HD
ENDBRANCH  19  20
BRANCH  19  22
HETATM   22  O6  UNL     1      22.752 -14.402  12.742  1.00  0.00    -0.368 OA
ATOM     23  H6  UNL     1      22.851 -14.009  13.600  1.00  0.00     0.213 HD
ENDBRANCH  19  22
ENDBRANCH  18  19
ENDBRANCH   1  17
BRANCH   1  24
HETATM   24  C10 UNL     1      27.504 -15.491  11.523  1.00  0.00     0.029 C 
BRANCH  24  25
HETATM   25  C11 UNL     1      28.562 -16.262  10.855  1.00  0.00     0.007 C 
BRANCH  25  26
HETATM   26  C12 UNL     1      29.494 -16.971  11.863  1.00  0.00    -0.014 C 
HETATM   27  C13 UNL     1      29.461 -16.213  13.113  1.00  0.00     0.004 C 
HETATM   28  C14 UNL     1      29.186 -16.945  14.379  1.00  0.00     0.000 C 
HETATM   29  C15 UNL     1      29.486 -18.406  14.331  1.00  0.00     0.000 C 
HETATM   30  C16 UNL     1      28.701 -18.981  13.191  1.00  0.00     0.000 C 
HETATM   31  C17 UNL     1      29.077 -18.399  11.879  1.00  0.00     0.004 C 
ENDBRANCH  25  26
ENDBRANCH  24  25
ENDBRANCH   1  24
TORSDOF 14
ENDMDL
MODEL 3
REMARK VINA RESULT: -8.906946462      0.934      1.139
REMARK  14 active torsions:
REMARK  status: ('A' for Active; 'I' for Inactive)
REMARK    1  A    between atoms: C2_2  and  C3_3 
REMARK    2  A    between atoms: C2_2  and  C4_7 
REMARK    3  A    between atoms: C3_3  and  S1_4 
REMARK       I    between atoms: C4_7  and  N1_9 
REMARK    4  A    between atoms: N1_9  and  C5_11 
REMARK    5  A    between atoms: C5_11  and  O4_12 
REMARK    6  A    between atoms: C5_11  and  N2_14 
REMARK    7  A    between atoms: N2_14  and  C6_16 
REMARK    8  A    between atoms: C6_16  and  C7_17 
REMARK    9  A    between atoms: C6_16  and  C10_24 
REMARK   10  A    between atoms: C8_18  and  C9_19 
REMARK   11  A    between atoms: C9_19  and  O5_20 
REMARK   12  A    between atoms: C9_19  and  O6_22 
REMARK   13  A    between atoms: C10_24  and  C11_25 
REMARK   14  A    between atoms: C11_25  and  C12_26 
ROOT
HETATM    1  C6  UNL     1      26.556 -14.543  10.656  1.00  0.00     0.103 C 
ENDROOT
BRANCH   1   2
HETATM    2  N2  UNL     1      26.180 -14.851   9.368  1.00  0.00    -0.373 N 
ATOM      3  H2  UNL     1      25.611 -15.689   9.254  1.00  0.00     0.158 HD
BRANCH   2   4
HETATM    4  C5  UNL     1      26.483 -14.156   8.203  1.00  0.00     0.325 C 
BRANCH   4   5
HETATM    5  N1  UNL     1      27.557 -13.155   8.447  1.00  0.00    -0.318 N 
HETATM    6  C4  UNL     1      28.878 -13.309   7.995  1.00  0.00     0.225 C 
HETATM    7  O3  UNL     1      29.194 -14.365   7.347  1.00  0.00    -0.273 OA
ATOM      8  H1  UNL     1      27.322 -12.313   8.971  1.00  0.00     0.166 HD
BRANCH   6   9
HETATM    9  C2  UNL     1      29.953 -12.314   8.217  1.00  0.00     0.088 C 
HETATM   10  C1  UNL     1      29.947 -11.887   9.708  1.00  0.00     0.021 C 
BRANCH   9  11
HETATM   11  C3  UNL     1      31.302 -12.947   8.034  1.00  0.00     0.170 C 
BRANCH  11  12
HETATM   12  S1  UNL     1      32.192 -12.400   6.642  1.00  0.00     0.251 S 
HETATM   13  O1  UNL     1      31.295 -12.504   5.418  1.00  0.00    -0.212 OA
HETATM   14  O2  UNL     1      33.360 -13.327   6.413  1.00  0.00    -0.212 OA
ENDBRANCH  11  12
ENDBRANCH   9  11
ENDBRANCH   6   9
ENDBRANCH   4   5
BRANCH   4  15
HETATM   15  O4  UNL     1      25.413 -13.309   7.747  1.00  0.00    -0.360 OA
ATOM     16  H4  UNL     1      24.682 -13.915   7.757  1.00  0.00     0.214 HD
ENDBRANCH   4  15
ENDBRANCH   2   4
ENDBRANCH   1   2
BRANCH   1  17
HETATM   17  C7  UNL     1      25.347 -14.340  11.577  1.00  0.00    -0.002 C 
HETATM   18  C8  UNL     1      24.215 -13.890  11.103  1.00  0.00     0.030 C 
BRANCH  18  19
HETATM   19  C9  UNL     1      22.969 -13.636  11.828  1.00  0.00     0.278 C 
BRANCH  19  20
HETATM   20  O5  UNL     1      22.862 -12.325  12.286  1.00  0.00    -0.368 OA
ATOM     21  H5  UNL     1      21.971 -12.079  12.503  1.00  0.00     0.213 HD
ENDBRANCH  19  20
BRANCH  19  22
HETATM   22  O6  UNL     1      22.747 -14.506  12.892  1.00  0.00    -0.368 OA
ATOM     23  H6  UNL     1      22.192 -15.246  12.674  1.00  0.00     0.213 HD
ENDBRANCH  19  22
ENDBRANCH  18  19
ENDBRANCH   1  17
BRANCH   1  24
HETATM   24  C10 UNL     1      27.498 -15.372  11.444  1.00  0.00     0.029 C 
BRANCH  24  25
HETATM   25  C11 UNL     1      28.780 -15.765  10.843  1.00  0.00     0.007 C 
BRANCH  25  26
HETATM   26  C12 UNL     1      29.615 -16.664  11.781  1.00  0.00    -0.014 C 
HETATM   27  C13 UNL     1      29.624 -16.044  13.105  1.00  0.00     0.004 C 
HETATM   28  C14 UNL     1      29.250 -16.875  14.280  1.00  0.00     0.000 C 
HETATM   29  C15 UNL     1      29.410 -18.345  14.080  1.00  0.00     0.000 C 
HETATM   30  C16 UNL     1      28.601 -18.716  12.873  1.00  0.00     0.000 C 
HETATM   31  C17 UNL     1      29.063 -18.039  11.638  1.00  0.00     0.004 C 
ENDBRANCH  25  26
ENDBRANCH  24  25
ENDBRANCH   1  24
TORSDOF 14
ENDMDL
MODEL 4
REMARK VINA RESULT: -8.731170247      3.195      4.810
REMARK  14 active torsions:
REMARK  status: ('A' for Active; 'I' for Inactive)
REMARK    1  A    between atoms: C2_2  and  C3_3 
REMARK    2  A    between atoms: C2_2  and  C4_7 
REMARK    3  A    between atoms: C3_3  and  S1_4 
REMARK       I    between atoms: C4_7  and  N1_9 
REMARK    4  A    between atoms: N1_9  and  C5_11 
REMARK    5  A    between atoms: C5_11  and  O4_12 
REMARK    6  A    between atoms: C5_11  and  N2_14 
REMARK    7  A    between atoms: N2_14  and  C6_16 
REMARK    8  A    between atoms: C6_16  and  C7_17 
REMARK    9  A    between atoms: C6_16  and  C10_24 
REMARK   10  A    between atoms: C8_18  and  C9_19 
REMARK   11  A    between atoms: C9_19  and  O5_20 
REMARK   12  A    between atoms: C9_19  and  O6_22 
REMARK   13  A    between atoms: C10_24  and  C11_25 
REMARK   14  A    between atoms: C11_25  and  C12_26 
ROOT
HETATM    1  C6  UNL     1      29.641 -16.344  13.428  1.00  0.00     0.103 C 
ENDROOT
BRANCH   1   2
HETATM    2  N2  UNL     1      30.262 -15.687  12.390  1.00  0.00    -0.373 N 
ATOM      3  H2  UNL     1      30.950 -16.227  11.865  1.00  0.00     0.158 HD
BRANCH   2   4
HETATM    4  C5  UNL     1      30.066 -14.376  11.972  1.00  0.00     0.325 C 
BRANCH   4   5
HETATM    5  N1  UNL     1      29.666 -14.331  10.540  1.00  0.00    -0.318 N 
HETATM    6  C4  UNL     1      28.529 -13.651  10.072  1.00  0.00     0.225 C 
HETATM    7  O3  UNL     1      27.781 -13.041  10.911  1.00  0.00    -0.273 OA
ATOM      8  H1  UNL     1      30.248 -14.821   9.860  1.00  0.00     0.166 HD
BRANCH   6   9
HETATM    9  C2  UNL     1      28.129 -13.585   8.647  1.00  0.00     0.088 C 
HETATM   10  C1  UNL     1      29.363 -13.895   7.760  1.00  0.00     0.021 C 
BRANCH   9  11
HETATM   11  C3  UNL     1      27.168 -14.692   8.319  1.00  0.00     0.170 C 
BRANCH  11  12
HETATM   12  S1  UNL     1      25.552 -14.175   7.930  1.00  0.00     0.251 S 
HETATM   13  O1  UNL     1      24.789 -13.946   9.226  1.00  0.00    -0.212 OA
HETATM   14  O2  UNL     1      24.847 -15.288   7.195  1.00  0.00    -0.212 OA
ENDBRANCH  11  12
ENDBRANCH   9  11
ENDBRANCH   6   9
ENDBRANCH   4   5
BRANCH   4  15
HETATM   15  O4  UNL     1      31.275 -13.596  11.947  1.00  0.00    -0.360 OA
ATOM     16  H4  UNL     1      31.427 -13.523  11.013  1.00  0.00     0.214 HD
ENDBRANCH   4  15
ENDBRANCH   2   4
ENDBRANCH   1   2
BRANCH   1  17
HETATM   17  C7  UNL     1      28.310 -15.687  13.814  1.00  0.00    -0.002 C 
HETATM   18  C8  UNL     1      27.318 -15.642  12.964  1.00  0.00     0.030 C 
BRANCH  18  19
HETATM   19  C9  UNL     1      25.989 -15.060  13.158  1.00  0.00     0.278 C 
BRANCH  19  20
HETATM   20  O5  UNL     1      25.177 -15.822  13.994  1.00  0.00    -0.368 OA
ATOM     21  H5  UNL     1      25.668 -16.419  14.546  1.00  0.00     0.213 HD
ENDBRANCH  19  20
BRANCH  19  22
HETATM   22  O6  UNL     1      25.304 -14.807  11.972  1.00  0.00    -0.368 OA
ATOM     23  H6  UNL     1      24.716 -14.063  12.019  1.00  0.00     0.213 HD
ENDBRANCH  19  22
ENDBRANCH  18  19
ENDBRANCH   1  17
BRANCH   1  24
HETATM   24  C10 UNL     1      29.355 -17.798  13.410  1.00  0.00     0.029 C 
BRANCH  24  25
HETATM   25  C11 UNL     1      29.152 -18.503  14.683  1.00  0.00     0.007 C 
BRANCH  25  26
HETATM   26  C12 UNL     1      29.606 -19.977  14.615  1.00  0.00    -0.014 C 
HETATM   27  C13 UNL     1      29.749 -20.467  15.985  1.00  0.00     0.004 C 
HETATM   28  C14 UNL     1      29.070 -21.736  16.360  1.00  0.00     0.000 C 
HETATM   29  C15 UNL     1      28.757 -22.638  15.213  1.00  0.00     0.000 C 
HETATM   30  C16 UNL     1      27.933 -21.847  14.241  1.00  0.00     0.000 C 
HETATM   31  C17 UNL     1      28.649 -20.664  13.705  1.00  0.00     0.004 C 
ENDBRANCH  25  26
ENDBRANCH  24  25
ENDBRANCH   1  24
TORSDOF 14
ENDMDL
MODEL 5
REMARK VINA RESULT: -8.674070310      2.428      3.605
REMARK  14 active torsions:
REMARK  status: ('A' for Active; 'I' for Inactive)
REMARK    1  A    between atoms: C2_2  and  C3_3 
REMARK    2  A    between atoms: C2_2  and  C4_7 
REMARK    3  A    between atoms: C3_3  and  S1_4 
REMARK       I    between atoms: C4_7  and  N1_9 
REMARK    4  A    between atoms: N1_9  and  C5_11 
REMARK    5  A    between atoms: C5_11  and  O4_12 
REMARK    6  A    between atoms: C5_11  and  N2_14 
REMARK    7  A    between atoms: N2_14  and  C6_16 
REMARK    8  A    between atoms: C6_16  and  C7_17 
REMARK    9  A    between atoms: C6_16  and  C10_24 
REMARK   10  A    between atoms: C8_18  and  C9_19 
REMARK   11  A    between atoms: C9_19  and  O5_20 
REMARK   12  A    between atoms: C9_19  and  O6_22 
REMARK   13  A    between atoms: C10_24  and  C11_25 
REMARK   14  A    between atoms: C11_25  and  C12_26 
ROOT
HETATM    1  C6  UNL     1      29.788 -15.900  12.995  1.00  0.00     0.103 C 
ENDROOT
BRANCH   1   2
HETATM    2  N2  UNL     1      30.151 -15.449  11.746  1.00  0.00    -0.373 N 
ATOM      3  H2  UNL     1      30.360 -16.167  11.052  1.00  0.00     0.158 HD
BRANCH   2   4
HETATM    4  C5  UNL     1      30.265 -14.133  11.315  1.00  0.00     0.325 C 
BRANCH   4   5
HETATM    5  N1  UNL     1      30.706 -14.077   9.894  1.00  0.00    -0.318 N 
HETATM    6  C4  UNL     1      30.639 -12.917   9.105  1.00  0.00     0.225 C 
HETATM    7  O3  UNL     1      30.166 -11.844   9.617  1.00  0.00    -0.273 OA
ATOM      8  H1  UNL     1      31.076 -14.927   9.470  1.00  0.00     0.166 HD
BRANCH   6   9
HETATM    9  C2  UNL     1      31.089 -12.843   7.696  1.00  0.00     0.088 C 
HETATM   10  C1  UNL     1      30.326 -13.908   6.866  1.00  0.00     0.021 C 
BRANCH   9  11
HETATM   11  C3  UNL     1      30.668 -11.541   7.077  1.00  0.00     0.170 C 
BRANCH  11  12
HETATM   12  S1  UNL     1      31.109 -11.344   5.405  1.00  0.00     0.251 S 
HETATM   13  O1  UNL     1      32.024 -10.135   5.282  1.00  0.00    -0.212 OA
HETATM   14  O2  UNL     1      29.866 -11.039   4.605  1.00  0.00    -0.212 OA
ENDBRANCH  11  12
ENDBRANCH   9  11
ENDBRANCH   6   9
ENDBRANCH   4   5
BRANCH   4  15
HETATM   15  O4  UNL     1      31.326 -13.408  11.963  1.00  0.00    -0.360 OA
ATOM     16  H4  UNL     1      31.049 -12.511  11.820  1.00  0.00     0.214 HD
ENDBRANCH   4  15
ENDBRANCH   2   4
ENDBRANCH   1   2
BRANCH   1  17
HETATM   17  C7  UNL     1      28.280 -15.776  13.239  1.00  0.00    -0.002 C 
HETATM   18  C8  UNL     1      27.522 -15.107  12.410  1.00  0.00     0.030 C 
BRANCH  18  19
HETATM   19  C9  UNL     1      26.077 -14.886  12.484  1.00  0.00     0.278 C 
BRANCH  19  20
HETATM   20  O5  UNL     1      25.481 -15.537  13.561  1.00  0.00    -0.368 OA
ATOM     21  H5  UNL     1      26.044 -15.586  14.324  1.00  0.00     0.213 HD
ENDBRANCH  19  20
BRANCH  19  22
HETATM   22  O6  UNL     1      25.394 -15.221  11.319  1.00  0.00    -0.368 OA
ATOM     23  H6  UNL     1      25.199 -14.478  10.760  1.00  0.00     0.213 HD
ENDBRANCH  19  22
ENDBRANCH  18  19
ENDBRANCH   1  17
BRANCH   1  24
HETATM   24  C10 UNL     1      30.146 -17.244  13.505  1.00  0.00     0.029 C 
BRANCH  24  25
HETATM   25  C11 UNL     1      29.511 -18.428  12.909  1.00  0.00     0.007 C 
BRANCH  25  26
HETATM   26  C12 UNL     1      28.697 -19.238  13.942  1.00  0.00    -0.014 C 
HETATM   27  C13 UNL     1      28.404 -20.545  13.357  1.00  0.00     0.004 C 
HETATM   28  C14 UNL     1      28.729 -21.764  14.145  1.00  0.00     0.000 C 
HETATM   29  C15 UNL     1      28.826 -21.547  15.618  1.00  0.00     0.000 C 
HETATM   30  C16 UNL     1      29.845 -20.470  15.839  1.00  0.00     0.000 C 
HETATM   31  C17 UNL     1      29.466 -19.179  15.215  1.00  0.00     0.004 C 
ENDBRANCH  25  26
ENDBRANCH  24  25
ENDBRANCH   1  24
TORSDOF 14
ENDMDL
