MODEL 1
REMARK VINA RESULT: -8.842999121      0.000      0.000
REMARK  12 active torsions:
REMARK  status: ('A' for Active; 'I' for Inactive)
REMARK    1  A    between atoms: O1_2  and  C2_3 
REMARK    2  A    between atoms: C2_3  and  C3_5 
REMARK    3  A    between atoms: C3_5  and  C4_6 
REMARK    4  A    between atoms: C3_5  and  C17_28 
REMARK    5  A    between atoms: C4_6  and  C5_7 
REMARK    6  A    between atoms: C5_7  and  C6_8 
REMARK    7  A    between atoms: C5_7  and  C13_15 
REMARK    8  A    between atoms: C6_8  and  C7_9 
REMARK    9  A    between atoms: C13_15  and  C14_17 
REMARK   10  A    between atoms: C14_17  and  N1_19 
REMARK   11  A    between atoms: N1_19  and  N2_20 
REMARK   12  A    between atoms: N2_20  and  N3_21 
REMARK       I    between atoms: N3_21  and  C16_23 
ROOT
HETATM    1  C5  UNL     1      29.297 -14.481  10.004  1.00  0.00     0.059 C 
ENDROOT
BRANCH   1   2
HETATM    2  C4  UNL     1      28.074 -13.629   9.697  1.00  0.00     0.038 C 
BRANCH   2   3
HETATM    3  C3  UNL     1      26.781 -14.392   9.647  1.00  0.00     0.187 C 
BRANCH   3   4
HETATM    4  C2  UNL     1      25.903 -13.878  10.728  1.00  0.00     0.273 C 
HETATM    5  O2  UNL     1      26.318 -12.932  11.436  1.00  0.00    -0.264 OA
BRANCH   4   6
HETATM    6  O1  UNL     1      24.649 -14.398  10.987  1.00  0.00    -0.326 OA
HETATM    7  C1  UNL     1      23.513 -13.573  11.057  1.00  0.00     0.213 C 
ENDBRANCH   4   6
ENDBRANCH   3   4
BRANCH   3   8
HETATM    8  C17 UNL     1      26.056 -14.169   8.373  1.00  0.00     0.186 C 
HETATM    9  O4  UNL     1      26.069 -13.024   7.872  1.00  0.00    -0.647 OA
HETATM   10  O5  UNL     1      25.378 -15.177   7.738  1.00  0.00    -0.647 OA
ENDBRANCH   3   8
ENDBRANCH   2   3
ENDBRANCH   1   2
BRANCH   1  11
HETATM   11  C6  UNL     1      29.683 -14.381  11.414  1.00  0.00     0.017 C 
BRANCH  11  12
HETATM   12  C7  UNL     1      29.547 -15.480  12.357  1.00  0.00    -0.014 C 
HETATM   13  C8  UNL     1      28.903 -15.376  13.665  1.00  0.00     0.005 C 
HETATM   14  C9  UNL     1      28.934 -16.736  14.361  1.00  0.00     0.000 C 
HETATM   15  C10 UNL     1      29.830 -17.741  13.691  1.00  0.00     0.000 C 
HETATM   16  C11 UNL     1      29.481 -17.935  12.230  1.00  0.00     0.000 C 
HETATM   17  C12 UNL     1      28.833 -16.685  11.667  1.00  0.00     0.005 C 
ENDBRANCH  11  12
ENDBRANCH   1  11
BRANCH   1  18
HETATM   18  C13 UNL     1      30.298 -13.952   9.034  1.00  0.00     0.151 C 
HETATM   19  O3  UNL     1      31.462 -13.939   9.331  1.00  0.00    -0.296 OA
BRANCH  18  20
HETATM   20  C14 UNL     1      29.872 -13.445   7.723  1.00  0.00     0.163 C 
HETATM   21  C15 UNL     1      30.490 -12.087   7.403  1.00  0.00     0.037 C 
BRANCH  20  22
HETATM   22  N1  UNL     1      30.390 -14.331   6.647  1.00  0.00    -0.114 NA
BRANCH  22  23
HETATM   23  N2  UNL     1      30.215 -13.619   5.462  1.00  0.00    -0.028 NA
BRANCH  23  24
HETATM   24  N3  UNL     1      30.913 -14.142   4.400  1.00  0.00    -0.261 N 
HETATM   25  C16 UNL     1      32.323 -14.230   4.461  1.00  0.00     0.198 C 
HETATM   26  N4  UNL     1      33.034 -13.523   5.277  1.00  0.00    -0.373 N 
HETATM   27  N5  UNL     1      33.010 -15.131   3.593  1.00  0.00    -0.063 NA
ATOM     28  H42 UNL     1      32.543 -12.880   5.898  1.00  0.00     0.158 HD
ATOM     29  H41 UNL     1      34.051 -13.587   5.321  1.00  0.00     0.158 HD
ATOM     30  H3  UNL     1      30.416 -14.466   3.571  1.00  0.00     0.186 HD
ENDBRANCH  23  24
ENDBRANCH  22  23
ENDBRANCH  20  22
ENDBRANCH  18  20
ENDBRANCH   1  18
TORSDOF 12
ENDMDL
MODEL 2
REMARK VINA RESULT: -8.819102933      3.816      6.114
REMARK  12 active torsions:
REMARK  status: ('A' for Active; 'I' for Inactive)
REMARK    1  A    between atoms: O1_2  and  C2_3 
REMARK    2  A    between atoms: C2_3  and  C3_5 
REMARK    3  A    between atoms: C3_5  and  C4_6 
REMARK    4  A    between atoms: C3_5  and  C17_28 
REMARK    5  A    between atoms: C4_6  and  C5_7 
REMARK    6  A    between atoms: C5_7  and  C6_8 
REMARK    7  A    between atoms: C5_7  and  C13_15 
REMARK    8  A    between atoms: C6_8  and  C7_9 
REMARK    9  A    between atoms: C13_15  and  C14_17 
REMARK   10  A    between atoms: C14_17  and  N1_19 
REMARK   11  A    between atoms: N1_19  and  N2_20 
REMARK   12  A    between atoms: N2_20  and  N3_21 
REMARK       I    between atoms: N3_21  and  C16_23 
ROOT
HETATM    1  C5  UNL     1      27.250 -13.824  11.342  1.00  0.00     0.059 C 
ENDROOT
BRANCH   1   2
HETATM    2  C4  UNL     1      28.051 -12.998  10.345  1.00  0.00     0.038 C 
BRANCH   2   3
HETATM    3  C3  UNL     1      29.108 -13.768   9.606  1.00  0.00     0.187 C 
BRANCH   3   4
HETATM    4  C2  UNL     1      29.189 -13.228   8.226  1.00  0.00     0.273 C 
HETATM    5  O2  UNL     1      28.670 -13.887   7.295  1.00  0.00    -0.264 OA
BRANCH   4   6
HETATM    6  O1  UNL     1      29.811 -12.032   7.922  1.00  0.00    -0.326 OA
HETATM    7  C1  UNL     1      30.633 -11.899   6.789  1.00  0.00     0.213 C 
ENDBRANCH   4   6
ENDBRANCH   3   4
BRANCH   3   8
HETATM    8  C17 UNL     1      30.449 -13.583  10.210  1.00  0.00     0.186 C 
HETATM    9  O4  UNL     1      30.539 -12.956  11.287  1.00  0.00    -0.647 OA
HETATM   10  O5  UNL     1      31.585 -14.079   9.621  1.00  0.00    -0.647 OA
ENDBRANCH   3   8
ENDBRANCH   2   3
ENDBRANCH   1   2
BRANCH   1  11
HETATM   11  C6  UNL     1      27.406 -15.260  11.098  1.00  0.00     0.017 C 
BRANCH  11  12
HETATM   12  C7  UNL     1      28.230 -16.124  11.928  1.00  0.00    -0.014 C 
HETATM   13  C8  UNL     1      29.413 -16.844  11.458  1.00  0.00     0.005 C 
HETATM   14  C9  UNL     1      30.027 -17.631  12.615  1.00  0.00     0.000 C 
HETATM   15  C10 UNL     1      29.149 -17.704  13.835  1.00  0.00     0.000 C 
HETATM   16  C11 UNL     1      28.737 -16.332  14.326  1.00  0.00     0.000 C 
HETATM   17  C12 UNL     1      28.728 -15.337  13.181  1.00  0.00     0.005 C 
ENDBRANCH  11  12
ENDBRANCH   1  11
BRANCH   1  18
HETATM   18  C13 UNL     1      25.870 -13.294  11.149  1.00  0.00     0.151 C 
HETATM   19  O3  UNL     1      25.629 -12.152  11.432  1.00  0.00    -0.296 OA
BRANCH  18  20
HETATM   20  C14 UNL     1      24.805 -14.158  10.621  1.00  0.00     0.163 C 
HETATM   21  C15 UNL     1      23.429 -13.761  11.147  1.00  0.00     0.037 C 
BRANCH  20  22
HETATM   22  N1  UNL     1      24.688 -13.973   9.150  1.00  0.00    -0.114 NA
BRANCH  22  23
HETATM   23  N2  UNL     1      23.493 -13.285   8.955  1.00  0.00    -0.028 NA
BRANCH  23  24
HETATM   24  N3  UNL     1      23.066 -13.286   7.649  1.00  0.00    -0.261 N 
HETATM   25  C16 UNL     1      22.278 -14.356   7.168  1.00  0.00     0.198 C 
HETATM   26  N4  UNL     1      22.234 -15.510   7.749  1.00  0.00    -0.373 N 
HETATM   27  N5  UNL     1      21.489 -14.177   5.992  1.00  0.00    -0.063 NA
ATOM     28  H42 UNL     1      22.798 -15.638   8.590  1.00  0.00     0.158 HD
ATOM     29  H41 UNL     1      21.666 -16.282   7.402  1.00  0.00     0.158 HD
ATOM     30  H3  UNL     1      23.318 -12.516   7.029  1.00  0.00     0.186 HD
ENDBRANCH  23  24
ENDBRANCH  22  23
ENDBRANCH  20  22
ENDBRANCH  18  20
ENDBRANCH   1  18
TORSDOF 12
ENDMDL
MODEL 3
REMARK VINA RESULT: -8.551436509      3.635      6.070
REMARK  12 active torsions:
REMARK  status: ('A' for Active; 'I' for Inactive)
REMARK    1  A    between atoms: O1_2  and  C2_3 
REMARK    2  A    between atoms: C2_3  and  C3_5 
REMARK    3  A    between atoms: C3_5  and  C4_6 
REMARK    4  A    between atoms: C3_5  and  C17_28 
REMARK    5  A    between atoms: C4_6  and  C5_7 
REMARK    6  A    between atoms: C5_7  and  C6_8 
REMARK    7  A    between atoms: C5_7  and  C13_15 
REMARK    8  A    between atoms: C6_8  and  C7_9 
REMARK    9  A    between atoms: C13_15  and  C14_17 
REMARK   10  A    between atoms: C14_17  and  N1_19 
REMARK   11  A    between atoms: N1_19  and  N2_20 
REMARK   12  A    between atoms: N2_20  and  N3_21 
REMARK       I    between atoms: N3_21  and  C16_23 
ROOT
HETATM    1  C5  UNL     1      28.535 -14.285   9.898  1.00  0.00     0.059 C 
ENDROOT
BRANCH   1   2
HETATM    2  C4  UNL     1      29.281 -13.438   8.876  1.00  0.00     0.038 C 
BRANCH   2   3
HETATM    3  C3  UNL     1      30.771 -13.400   9.069  1.00  0.00     0.187 C 
BRANCH   3   4
HETATM    4  C2  UNL     1      31.361 -12.646   7.934  1.00  0.00     0.273 C 
HETATM    5  O2  UNL     1      30.678 -11.744   7.397  1.00  0.00    -0.264 OA
BRANCH   4   6
HETATM    6  O1  UNL     1      32.629 -12.896   7.446  1.00  0.00    -0.326 OA
HETATM    7  C1  UNL     1      33.011 -12.493   6.154  1.00  0.00     0.213 C 
ENDBRANCH   4   6
ENDBRANCH   3   4
BRANCH   3   8
HETATM    8  C17 UNL     1      31.150 -12.670  10.302  1.00  0.00     0.186 C 
HETATM    9  O4  UNL     1      30.500 -11.650  10.616  1.00  0.00    -0.647 OA
HETATM   10  O5  UNL     1      32.186 -13.083  11.100  1.00  0.00    -0.647 OA
ENDBRANCH   3   8
ENDBRANCH   2   3
ENDBRANCH   1   2
BRANCH   1  11
HETATM   11  C6  UNL     1      29.368 -15.379  10.401  1.00  0.00     0.017 C 
BRANCH  11  12
HETATM   12  C7  UNL     1      29.262 -15.904  11.753  1.00  0.00    -0.014 C 
HETATM   13  C8  UNL     1      28.704 -15.168  12.887  1.00  0.00     0.005 C 
HETATM   14  C9  UNL     1      28.742 -16.046  14.137  1.00  0.00     0.000 C 
HETATM   15  C10 UNL     1      29.567 -17.294  13.978  1.00  0.00     0.000 C 
HETATM   16  C11 UNL     1      29.122 -18.128  12.794  1.00  0.00     0.000 C 
HETATM   17  C12 UNL     1      28.474 -17.251  11.739  1.00  0.00     0.005 C 
ENDBRANCH  11  12
ENDBRANCH   1  11
BRANCH   1  18
HETATM   18  C13 UNL     1      27.327 -14.707   9.132  1.00  0.00     0.151 C 
HETATM   19  O3  UNL     1      27.460 -15.260   8.074  1.00  0.00    -0.296 OA
BRANCH  18  20
HETATM   20  C14 UNL     1      25.981 -14.448   9.659  1.00  0.00     0.163 C 
HETATM   21  C15 UNL     1      26.000 -13.476  10.834  1.00  0.00     0.037 C 
BRANCH  20  22
HETATM   22  N1  UNL     1      25.164 -13.746   8.633  1.00  0.00    -0.114 NA
BRANCH  22  23
HETATM   23  N2  UNL     1      23.838 -13.962   9.001  1.00  0.00    -0.028 NA
BRANCH  23  24
HETATM   24  N3  UNL     1      22.934 -13.605   8.029  1.00  0.00    -0.261 N 
HETATM   25  C16 UNL     1      22.718 -14.459   6.923  1.00  0.00     0.198 C 
HETATM   26  N4  UNL     1      23.565 -15.367   6.564  1.00  0.00    -0.373 N 
HETATM   27  N5  UNL     1      21.520 -14.330   6.158  1.00  0.00    -0.063 NA
ATOM     28  H42 UNL     1      24.420 -15.460   7.111  1.00  0.00     0.158 HD
ATOM     29  H41 UNL     1      23.409 -15.983   5.766  1.00  0.00     0.158 HD
ATOM     30  H3  UNL     1      22.421 -12.728   8.106  1.00  0.00     0.186 HD
ENDBRANCH  23  24
ENDBRANCH  22  23
ENDBRANCH  20  22
ENDBRANCH  18  20
ENDBRANCH   1  18
TORSDOF 12
ENDMDL
MODEL 4
REMARK VINA RESULT: -8.493189775      3.297      6.220
REMARK  12 active torsions:
REMARK  status: ('A' for Active; 'I' for Inactive)
REMARK    1  A    between atoms: O1_2  and  C2_3 
REMARK    2  A    between atoms: C2_3  and  C3_5 
REMARK    3  A    between atoms: C3_5  and  C4_6 
REMARK    4  A    between atoms: C3_5  and  C17_28 
REMARK    5  A    between atoms: C4_6  and  C5_7 
REMARK    6  A    between atoms: C5_7  and  C6_8 
REMARK    7  A    between atoms: C5_7  and  C13_15 
REMARK    8  A    between atoms: C6_8  and  C7_9 
REMARK    9  A    between atoms: C13_15  and  C14_17 
REMARK   10  A    between atoms: C14_17  and  N1_19 
REMARK   11  A    between atoms: N1_19  and  N2_20 
REMARK   12  A    between atoms: N2_20  and  N3_21 
REMARK       I    between atoms: N3_21  and  C16_23 
ROOT
HETATM    1  C5  UNL     1      29.347 -13.827   8.273  1.00  0.00     0.059 C 
ENDROOT
BRANCH   1   2
HETATM    2  C4  UNL     1      28.120 -14.579   8.768  1.00  0.00     0.038 C 
BRANCH   2   3
HETATM    3  C3  UNL     1      26.960 -13.699   9.139  1.00  0.00     0.187 C 
BRANCH   3   4
HETATM    4  C2  UNL     1      25.803 -14.085   8.292  1.00  0.00     0.273 C 
HETATM    5  O2  UNL     1      26.028 -14.586   7.166  1.00  0.00    -0.264 OA
BRANCH   4   6
HETATM    6  O1  UNL     1      24.491 -13.914   8.689  1.00  0.00    -0.326 OA
HETATM    7  C1  UNL     1      23.446 -13.821   7.753  1.00  0.00     0.213 C 
ENDBRANCH   4   6
ENDBRANCH   3   4
BRANCH   3   8
HETATM    8  C17 UNL     1      26.538 -13.904  10.545  1.00  0.00     0.186 C 
HETATM    9  O4  UNL     1      26.528 -15.067  11.003  1.00  0.00    -0.647 OA
HETATM   10  O5  UNL     1      26.162 -12.859  11.350  1.00  0.00    -0.647 OA
ENDBRANCH   3   8
ENDBRANCH   2   3
ENDBRANCH   1   2
BRANCH   1  11
HETATM   11  C6  UNL     1      29.785 -14.314   6.963  1.00  0.00     0.017 C 
BRANCH  11  12
HETATM   12  C7  UNL     1      30.952 -13.794   6.269  1.00  0.00    -0.014 C 
HETATM   13  C8  UNL     1      31.523 -14.376   5.055  1.00  0.00     0.005 C 
HETATM   14  C9  UNL     1      32.729 -13.549   4.609  1.00  0.00     0.000 C 
HETATM   15  C10 UNL     1      33.194 -12.550   5.633  1.00  0.00     0.000 C 
HETATM   16  C11 UNL     1      32.082 -11.618   6.070  1.00  0.00     0.000 C 
HETATM   17  C12 UNL     1      30.731 -12.290   5.912  1.00  0.00     0.005 C 
ENDBRANCH  11  12
ENDBRANCH   1  11
BRANCH   1  18
HETATM   18  C13 UNL     1      30.316 -14.043   9.386  1.00  0.00     0.151 C 
HETATM   19  O3  UNL     1      30.868 -15.104   9.493  1.00  0.00    -0.296 OA
BRANCH  18  20
HETATM   20  C14 UNL     1      30.597 -12.971  10.350  1.00  0.00     0.163 C 
HETATM   21  C15 UNL     1      30.094 -11.614   9.865  1.00  0.00     0.037 C 
BRANCH  20  22
HETATM   22  N1  UNL     1      29.828 -13.205  11.602  1.00  0.00    -0.114 NA
BRANCH  22  23
HETATM   23  N2  UNL     1      30.671 -13.952  12.422  1.00  0.00    -0.028 NA
BRANCH  23  24
HETATM   24  N3  UNL     1      30.002 -14.687  13.371  1.00  0.00    -0.261 N 
HETATM   25  C16 UNL     1      29.461 -15.948  13.030  1.00  0.00     0.198 C 
HETATM   26  N4  UNL     1      29.224 -16.302  11.809  1.00  0.00    -0.373 N 
HETATM   27  N5  UNL     1      29.156 -16.886  14.062  1.00  0.00    -0.063 NA
ATOM     28  H42 UNL     1      29.442 -15.632  11.072  1.00  0.00     0.158 HD
ATOM     29  H41 UNL     1      28.834 -17.212  11.563  1.00  0.00     0.158 HD
ATOM     30  H3  UNL     1      29.896 -14.324  14.318  1.00  0.00     0.186 HD
ENDBRANCH  23  24
ENDBRANCH  22  23
ENDBRANCH  20  22
ENDBRANCH  18  20
ENDBRANCH   1  18
TORSDOF 12
ENDMDL
MODEL 5
REMARK VINA RESULT: -8.492937303      1.484      1.853
REMARK  12 active torsions:
REMARK  status: ('A' for Active; 'I' for Inactive)
REMARK    1  A    between atoms: O1_2  and  C2_3 
REMARK    2  A    between atoms: C2_3  and  C3_5 
REMARK    3  A    between atoms: C3_5  and  C4_6 
REMARK    4  A    between atoms: C3_5  and  C17_28 
REMARK    5  A    between atoms: C4_6  and  C5_7 
REMARK    6  A    between atoms: C5_7  and  C6_8 
REMARK    7  A    between atoms: C5_7  and  C13_15 
REMARK    8  A    between atoms: C6_8  and  C7_9 
REMARK    9  A    between atoms: C13_15  and  C14_17 
REMARK   10  A    between atoms: C14_17  and  N1_19 
REMARK   11  A    between atoms: N1_19  and  N2_20 
REMARK   12  A    between atoms: N2_20  and  N3_21 
REMARK       I    between atoms: N3_21  and  C16_23 
ROOT
HETATM    1  C5  UNL     1      29.115 -13.948  10.441  1.00  0.00     0.059 C 
ENDROOT
BRANCH   1   2
HETATM    2  C4  UNL     1      27.780 -13.219  10.392  1.00  0.00     0.038 C 
BRANCH   2   3
HETATM    3  C3  UNL     1      26.602 -14.100  10.086  1.00  0.00     0.187 C 
BRANCH   3   4
HETATM    4  C2  UNL     1      25.430 -13.573  10.830  1.00  0.00     0.273 C 
HETATM    5  O2  UNL     1      25.503 -12.423  11.323  1.00  0.00    -0.264 OA
BRANCH   4   6
HETATM    6  O1  UNL     1      24.263 -14.294  11.002  1.00  0.00    -0.326 OA
HETATM    7  C1  UNL     1      23.086 -13.684  11.469  1.00  0.00     0.213 C 
ENDBRANCH   4   6
ENDBRANCH   3   4
BRANCH   3   8
HETATM    8  C17 UNL     1      26.240 -14.061   8.649  1.00  0.00     0.186 C 
HETATM    9  O4  UNL     1      26.533 -13.042   7.986  1.00  0.00    -0.647 OA
HETATM   10  O5  UNL     1      25.599 -15.104   8.033  1.00  0.00    -0.647 OA
ENDBRANCH   3   8
ENDBRANCH   2   3
ENDBRANCH   1   2
BRANCH   1  11
HETATM   11  C6  UNL     1      29.631 -14.033  11.809  1.00  0.00     0.017 C 
BRANCH  11  12
HETATM   12  C7  UNL     1      29.623 -15.261  12.589  1.00  0.00    -0.014 C 
HETATM   13  C8  UNL     1      28.780 -15.493  13.761  1.00  0.00     0.005 C 
HETATM   14  C9  UNL     1      29.032 -16.900  14.302  1.00  0.00     0.000 C 
HETATM   15  C10 UNL     1      30.237 -17.575  13.705  1.00  0.00     0.000 C 
HETATM   16  C11 UNL     1      30.173 -17.625  12.192  1.00  0.00     0.000 C 
HETATM   17  C12 UNL     1      29.336 -16.479  11.656  1.00  0.00     0.005 C 
ENDBRANCH  11  12
ENDBRANCH   1  11
BRANCH   1  18
HETATM   18  C13 UNL     1      29.945 -13.144   9.499  1.00  0.00     0.151 C 
HETATM   19  O3  UNL     1      29.930 -11.946   9.571  1.00  0.00    -0.296 OA
BRANCH  18  20
HETATM   20  C14 UNL     1      30.776 -13.806   8.484  1.00  0.00     0.163 C 
HETATM   21  C15 UNL     1      29.956 -14.272   7.284  1.00  0.00     0.037 C 
BRANCH  20  22
HETATM   22  N1  UNL     1      31.733 -12.829   7.900  1.00  0.00    -0.114 NA
BRANCH  22  23
HETATM   23  N2  UNL     1      31.988 -13.284   6.609  1.00  0.00    -0.028 NA
BRANCH  23  24
HETATM   24  N3  UNL     1      32.333 -12.283   5.733  1.00  0.00    -0.261 N 
HETATM   25  C16 UNL     1      31.538 -11.117   5.650  1.00  0.00     0.198 C 
HETATM   26  N4  UNL     1      30.313 -11.074   6.061  1.00  0.00    -0.373 N 
HETATM   27  N5  UNL     1      32.092  -9.925   5.092  1.00  0.00    -0.063 NA
ATOM     28  H42 UNL     1      29.918 -11.925   6.460  1.00  0.00     0.158 HD
ATOM     29  H41 UNL     1      29.739 -10.233   6.001  1.00  0.00     0.158 HD
ATOM     30  H3  UNL     1      33.161 -12.381   5.145  1.00  0.00     0.186 HD
ENDBRANCH  23  24
ENDBRANCH  22  23
ENDBRANCH  20  22
ENDBRANCH  18  20
ENDBRANCH   1  18
TORSDOF 12
ENDMDL
