MODEL 1
REMARK VINA RESULT: -8.818096245      0.000      0.000
REMARK  15 active torsions:
REMARK  status: ('A' for Active; 'I' for Inactive)
REMARK    1  A    between atoms: C2_2  and  C3_3 
REMARK    2  A    between atoms: C3_3  and  C4_4 
REMARK    3  A    between atoms: C4_4  and  O1_5 
REMARK    4  A    between atoms: C4_4  and  C5_7 
REMARK    5  A    between atoms: C5_7  and  N1_8 
REMARK    6  A    between atoms: C5_7  and  C6_12 
REMARK    7  A    between atoms: C6_12  and  O2_13 
REMARK    8  A    between atoms: C6_12  and  C7_15 
REMARK       I    between atoms: C7_15  and  N2_17 
REMARK    9  A    between atoms: N2_17  and  C8_19 
REMARK   10  A    between atoms: C8_19  and  C9_20 
REMARK   11  A    between atoms: C8_19  and  C13_24 
REMARK   12  A    between atoms: C9_20  and  C10_21 
REMARK   13  A    between atoms: C13_24  and  N4_29 
REMARK   14  A    between atoms: N3_25  and  O4_27 
REMARK   15  A    between atoms: N4_29  and  C14_31 
ROOT
HETATM    1  C7  UNL     1      24.737 -13.532  11.086  1.00  0.00     0.249 C 
HETATM    2  O3  UNL     1      25.438 -12.497  11.313  1.00  0.00    -0.271 OA
HETATM    3  N2  UNL     1      25.426 -14.814  11.064  1.00  0.00    -0.347 N 
ATOM      4  H2  UNL     1      24.899 -15.671  10.895  1.00  0.00     0.163 HD
ENDROOT
BRANCH   3   5
HETATM    5  C8  UNL     1      26.847 -14.877  11.280  1.00  0.00     0.154 C 
BRANCH   5   6
HETATM    6  C9  UNL     1      27.664 -15.274  10.103  1.00  0.00     0.037 C 
BRANCH   6   7
HETATM    7  C10 UNL     1      28.371 -14.216   9.346  1.00  0.00    -0.020 C 
HETATM    8  C11 UNL     1      28.783 -13.022  10.164  1.00  0.00     0.009 C 
HETATM    9  C12 UNL     1      27.409 -13.685   8.266  1.00  0.00     0.009 C 
ENDBRANCH   6   7
ENDBRANCH   5   6
BRANCH   5  10
HETATM   10  C13 UNL     1      27.172 -15.809  12.383  1.00  0.00     0.120 C 
HETATM   11  N3  UNL     1      26.414 -15.945  13.378  1.00  0.00    -0.255 N 
ATOM     12  H3  UNL     1      26.779 -16.620  14.049  1.00  0.00     0.195 HD
BRANCH  11  13
HETATM   13  O4  UNL     1      25.267 -15.430  13.766  1.00  0.00    -0.288 OA
ATOM     14  H4  UNL     1      24.546 -15.712  14.317  1.00  0.00     0.244 HD
ENDBRANCH  11  13
BRANCH  10  15
HETATM   15  N4  UNL     1      28.398 -16.578  12.293  1.00  0.00    -0.372 N 
ATOM     16  H4  UNL     1      29.059 -16.375  11.543  1.00  0.00     0.161 HD
BRANCH  15  17
HETATM   17  C14 UNL     1      28.706 -17.616  13.229  1.00  0.00     0.083 C 
HETATM   18  C15 UNL     1      28.291 -18.993  12.779  1.00  0.00     0.025 C 
HETATM   19  C16 UNL     1      28.936 -20.044  13.636  1.00  0.00     0.002 C 
HETATM   20  C17 UNL     1      29.275 -19.508  15.020  1.00  0.00     0.000 C 
HETATM   21  C18 UNL     1      30.255 -18.380  14.943  1.00  0.00     0.002 C 
HETATM   22  C19 UNL     1      30.189 -17.685  13.577  1.00  0.00     0.025 C 
ENDBRANCH  15  17
ENDBRANCH  10  15
ENDBRANCH   5  10
ENDBRANCH   3   5
BRANCH   1  23
HETATM   23  C6  UNL     1      23.305 -13.499  10.848  1.00  0.00     0.242 C 
BRANCH  23  24
HETATM   24  C5  UNL     1      22.812 -14.092   9.520  1.00  0.00     0.249 C 
BRANCH  24  25
HETATM   25  C4  UNL     1      22.761 -13.105   8.389  1.00  0.00     0.151 C 
BRANCH  25  26
HETATM   26  C3  UNL     1      23.526 -13.558   7.146  1.00  0.00     0.034 C 
BRANCH  26  27
HETATM   27  C2  UNL     1      22.450 -14.176   6.238  1.00  0.00    -0.002 C 
HETATM   28  C1  UNL     1      23.056 -14.846   5.043  1.00  0.00     0.005 C 
ENDBRANCH  26  27
ENDBRANCH  25  26
BRANCH  25  29
HETATM   29  O1  UNL     1      21.402 -13.148   7.854  1.00  0.00    -0.393 OA
ATOM     30  H1  UNL     1      21.092 -12.304   8.162  1.00  0.00     0.210 HD
ENDBRANCH  25  29
ENDBRANCH  24  25
BRANCH  24  31
HETATM   31  N1  UNL     1      21.332 -14.235   9.869  1.00  0.00    -0.070 N 
ATOM     32  H13 UNL     1      20.731 -13.484   9.530  1.00  0.00     0.275 HD
ATOM     33  H12 UNL     1      20.838 -14.979   9.374  1.00  0.00     0.275 HD
ATOM     34  H11 UNL     1      21.369 -14.339  10.883  1.00  0.00     0.275 HD
ENDBRANCH  24  31
ENDBRANCH  23  24
BRANCH  23  35
HETATM   35  O2  UNL     1      22.714 -14.377  11.827  1.00  0.00    -0.384 OA
ATOM     36  H2  UNL     1      22.660 -13.825  12.598  1.00  0.00     0.210 HD
ENDBRANCH  23  35
ENDBRANCH   1  23
TORSDOF 15
ENDMDL
MODEL 2
REMARK VINA RESULT: -8.565369867      3.804      8.269
REMARK  15 active torsions:
REMARK  status: ('A' for Active; 'I' for Inactive)
REMARK    1  A    between atoms: C2_2  and  C3_3 
REMARK    2  A    between atoms: C3_3  and  C4_4 
REMARK    3  A    between atoms: C4_4  and  O1_5 
REMARK    4  A    between atoms: C4_4  and  C5_7 
REMARK    5  A    between atoms: C5_7  and  N1_8 
REMARK    6  A    between atoms: C5_7  and  C6_12 
REMARK    7  A    between atoms: C6_12  and  O2_13 
REMARK    8  A    between atoms: C6_12  and  C7_15 
REMARK       I    between atoms: C7_15  and  N2_17 
REMARK    9  A    between atoms: N2_17  and  C8_19 
REMARK   10  A    between atoms: C8_19  and  C9_20 
REMARK   11  A    between atoms: C8_19  and  C13_24 
REMARK   12  A    between atoms: C9_20  and  C10_21 
REMARK   13  A    between atoms: C13_24  and  N4_29 
REMARK   14  A    between atoms: N3_25  and  O4_27 
REMARK   15  A    between atoms: N4_29  and  C14_31 
ROOT
HETATM    1  C7  UNL     1      29.651 -15.291  12.754  1.00  0.00     0.249 C 
HETATM    2  O3  UNL     1      29.096 -14.507  13.586  1.00  0.00    -0.271 OA
HETATM    3  N2  UNL     1      29.848 -14.796  11.400  1.00  0.00    -0.347 N 
ATOM      4  H2  UNL     1      30.298 -15.389  10.702  1.00  0.00     0.163 HD
ENDROOT
BRANCH   3   5
HETATM    5  C8  UNL     1      29.411 -13.473  11.041  1.00  0.00     0.154 C 
BRANCH   5   6
HETATM    6  C9  UNL     1      28.126 -13.394  10.297  1.00  0.00     0.037 C 
BRANCH   6   7
HETATM    7  C10 UNL     1      27.405 -14.652  10.000  1.00  0.00    -0.020 C 
HETATM    8  C11 UNL     1      26.824 -14.735   8.615  1.00  0.00     0.009 C 
HETATM    9  C12 UNL     1      26.214 -14.754  10.972  1.00  0.00     0.009 C 
ENDBRANCH   6   7
ENDBRANCH   5   6
BRANCH   5  10
HETATM   10  C13 UNL     1      30.438 -12.780  10.230  1.00  0.00     0.120 C 
HETATM   11  N3  UNL     1      31.632 -12.688  10.615  1.00  0.00    -0.255 N 
ATOM     12  H3  UNL     1      32.213 -12.180   9.948  1.00  0.00     0.195 HD
BRANCH  11  13
HETATM   13  O4  UNL     1      32.317 -13.086  11.667  1.00  0.00    -0.288 OA
ATOM     14  H4  UNL     1      33.231 -13.257  11.858  1.00  0.00     0.244 HD
ENDBRANCH  11  13
BRANCH  10  15
HETATM   15  N4  UNL     1      30.037 -12.201   8.962  1.00  0.00    -0.372 N 
ATOM     16  H4  UNL     1      29.233 -11.574   8.935  1.00  0.00     0.161 HD
BRANCH  15  17
HETATM   17  C14 UNL     1      30.739 -12.487   7.749  1.00  0.00     0.083 C 
HETATM   18  C15 UNL     1      30.308 -13.764   7.076  1.00  0.00     0.025 C 
HETATM   19  C16 UNL     1      30.834 -13.822   5.670  1.00  0.00     0.002 C 
HETATM   20  C17 UNL     1      32.097 -12.989   5.510  1.00  0.00     0.000 C 
HETATM   21  C18 UNL     1      31.838 -11.543   5.793  1.00  0.00     0.002 C 
HETATM   22  C19 UNL     1      30.623 -11.373   6.715  1.00  0.00     0.025 C 
ENDBRANCH  15  17
ENDBRANCH  10  15
ENDBRANCH   5  10
ENDBRANCH   3   5
BRANCH   1  23
HETATM   23  C6  UNL     1      30.087 -16.636  13.081  1.00  0.00     0.242 C 
BRANCH  23  24
HETATM   24  C5  UNL     1      29.115 -17.498  13.900  1.00  0.00     0.249 C 
BRANCH  24  25
HETATM   25  C4  UNL     1      29.385 -18.973  13.819  1.00  0.00     0.151 C 
BRANCH  25  26
HETATM   26  C3  UNL     1      29.295 -19.687  15.168  1.00  0.00     0.034 C 
BRANCH  26  27
HETATM   27  C2  UNL     1      28.828 -21.109  14.817  1.00  0.00    -0.002 C 
HETATM   28  C1  UNL     1      29.111 -22.072  15.930  1.00  0.00     0.005 C 
ENDBRANCH  26  27
ENDBRANCH  25  26
BRANCH  25  29
HETATM   29  O1  UNL     1      28.229 -19.577  13.159  1.00  0.00    -0.393 OA
ATOM     30  H1  UNL     1      28.013 -18.872  12.560  1.00  0.00     0.210 HD
ENDBRANCH  25  29
ENDBRANCH  24  25
BRANCH  24  31
HETATM   31  N1  UNL     1      27.882 -17.363  13.008  1.00  0.00    -0.070 N 
ATOM     32  H13 UNL     1      28.069 -17.366  12.006  1.00  0.00     0.275 HD
ATOM     33  H12 UNL     1      27.266 -18.176  12.991  1.00  0.00     0.275 HD
ATOM     34  H11 UNL     1      27.461 -16.506  13.369  1.00  0.00     0.275 HD
ENDBRANCH  24  31
ENDBRANCH  23  24
BRANCH  23  35
HETATM   35  O2  UNL     1      30.167 -17.349  11.831  1.00  0.00    -0.384 OA
ATOM     36  H2  UNL     1      30.339 -16.656  11.205  1.00  0.00     0.210 HD
ENDBRANCH  23  35
ENDBRANCH   1  23
TORSDOF 15
ENDMDL
MODEL 3
REMARK VINA RESULT: -8.227423809      3.444      8.166
REMARK  15 active torsions:
REMARK  status: ('A' for Active; 'I' for Inactive)
REMARK    1  A    between atoms: C2_2  and  C3_3 
REMARK    2  A    between atoms: C3_3  and  C4_4 
REMARK    3  A    between atoms: C4_4  and  O1_5 
REMARK    4  A    between atoms: C4_4  and  C5_7 
REMARK    5  A    between atoms: C5_7  and  N1_8 
REMARK    6  A    between atoms: C5_7  and  C6_12 
REMARK    7  A    between atoms: C6_12  and  O2_13 
REMARK    8  A    between atoms: C6_12  and  C7_15 
REMARK       I    between atoms: C7_15  and  N2_17 
REMARK    9  A    between atoms: N2_17  and  C8_19 
REMARK   10  A    between atoms: C8_19  and  C9_20 
REMARK   11  A    between atoms: C8_19  and  C13_24 
REMARK   12  A    between atoms: C9_20  and  C10_21 
REMARK   13  A    between atoms: C13_24  and  N4_29 
REMARK   14  A    between atoms: N3_25  and  O4_27 
REMARK   15  A    between atoms: N4_29  and  C14_31 
ROOT
HETATM    1  C7  UNL     1      29.092 -15.077  12.050  1.00  0.00     0.249 C 
HETATM    2  O3  UNL     1      28.336 -14.268  12.672  1.00  0.00    -0.271 OA
HETATM    3  N2  UNL     1      29.226 -14.894  10.612  1.00  0.00    -0.347 N 
ATOM      4  H2  UNL     1      29.831 -15.515  10.075  1.00  0.00     0.163 HD
ENDROOT
BRANCH   3   5
HETATM    5  C8  UNL     1      28.510 -13.838   9.946  1.00  0.00     0.154 C 
BRANCH   5   6
HETATM    6  C9  UNL     1      27.706 -14.246   8.764  1.00  0.00     0.037 C 
BRANCH   6   7
HETATM    7  C10 UNL     1      26.282 -14.599   8.966  1.00  0.00    -0.020 C 
HETATM    8  C11 UNL     1      25.365 -14.191   7.846  1.00  0.00     0.009 C 
HETATM    9  C12 UNL     1      25.786 -13.855  10.220  1.00  0.00     0.009 C 
ENDBRANCH   6   7
ENDBRANCH   5   6
BRANCH   5  10
HETATM   10  C13 UNL     1      29.433 -12.768   9.509  1.00  0.00     0.120 C 
HETATM   11  N3  UNL     1      30.246 -12.230  10.305  1.00  0.00    -0.255 N 
ATOM     12  H3  UNL     1      30.809 -11.510   9.852  1.00  0.00     0.195 HD
BRANCH  11  13
HETATM   13  O4  UNL     1      30.549 -12.369  11.579  1.00  0.00    -0.288 OA
ATOM     14  H4  UNL     1      30.414 -13.035  12.241  1.00  0.00     0.244 HD
ENDBRANCH  11  13
BRANCH  10  15
HETATM   15  N4  UNL     1      29.387 -12.343   8.123  1.00  0.00    -0.372 N 
ATOM     16  H4  UNL     1      28.532 -11.919   7.762  1.00  0.00     0.161 HD
BRANCH  15  17
HETATM   17  C14 UNL     1      30.507 -12.504   7.248  1.00  0.00     0.083 C 
HETATM   18  C15 UNL     1      30.542 -13.829   6.530  1.00  0.00     0.025 C 
HETATM   19  C16 UNL     1      31.533 -13.791   5.403  1.00  0.00     0.002 C 
HETATM   20  C17 UNL     1      32.629 -12.765   5.655  1.00  0.00     0.000 C 
HETATM   21  C18 UNL     1      32.069 -11.381   5.757  1.00  0.00     0.002 C 
HETATM   22  C19 UNL     1      30.596 -11.415   6.186  1.00  0.00     0.025 C 
ENDBRANCH  15  17
ENDBRANCH  10  15
ENDBRANCH   5  10
ENDBRANCH   3   5
BRANCH   1  23
HETATM   23  C6  UNL     1      29.815 -16.161  12.690  1.00  0.00     0.242 C 
BRANCH  23  24
HETATM   24  C5  UNL     1      29.031 -17.011  13.700  1.00  0.00     0.249 C 
BRANCH  24  25
HETATM   25  C4  UNL     1      29.445 -18.454  13.740  1.00  0.00     0.151 C 
BRANCH  25  26
HETATM   26  C3  UNL     1      29.433 -19.058  15.144  1.00  0.00     0.034 C 
BRANCH  26  27
HETATM   27  C2  UNL     1      29.099 -20.541  14.921  1.00  0.00    -0.002 C 
HETATM   28  C1  UNL     1      29.437 -21.369  16.123  1.00  0.00     0.005 C 
ENDBRANCH  26  27
ENDBRANCH  25  26
BRANCH  25  29
HETATM   29  O1  UNL     1      28.353 -19.223  13.147  1.00  0.00    -0.393 OA
ATOM     30  H1  UNL     1      28.233 -19.869  13.833  1.00  0.00     0.210 HD
ENDBRANCH  25  29
ENDBRANCH  24  25
BRANCH  24  31
HETATM   31  N1  UNL     1      27.703 -17.094  12.949  1.00  0.00    -0.070 N 
ATOM     32  H13 UNL     1      27.101 -16.276  13.040  1.00  0.00     0.275 HD
ATOM     33  H12 UNL     1      27.775 -17.045  11.932  1.00  0.00     0.275 HD
ATOM     34  H11 UNL     1      27.315 -17.964  13.315  1.00  0.00     0.275 HD
ENDBRANCH  24  31
ENDBRANCH  23  24
BRANCH  23  35
HETATM   35  O2  UNL     1      30.125 -17.109  11.650  1.00  0.00    -0.384 OA
ATOM     36  H2  UNL     1      30.675 -17.740  12.099  1.00  0.00     0.210 HD
ENDBRANCH  23  35
ENDBRANCH   1  23
TORSDOF 15
ENDMDL
MODEL 4
REMARK VINA RESULT: -8.178805786      1.085      1.250
REMARK  15 active torsions:
REMARK  status: ('A' for Active; 'I' for Inactive)
REMARK    1  A    between atoms: C2_2  and  C3_3 
REMARK    2  A    between atoms: C3_3  and  C4_4 
REMARK    3  A    between atoms: C4_4  and  O1_5 
REMARK    4  A    between atoms: C4_4  and  C5_7 
REMARK    5  A    between atoms: C5_7  and  N1_8 
REMARK    6  A    between atoms: C5_7  and  C6_12 
REMARK    7  A    between atoms: C6_12  and  O2_13 
REMARK    8  A    between atoms: C6_12  and  C7_15 
REMARK       I    between atoms: C7_15  and  N2_17 
REMARK    9  A    between atoms: N2_17  and  C8_19 
REMARK   10  A    between atoms: C8_19  and  C9_20 
REMARK   11  A    between atoms: C8_19  and  C13_24 
REMARK   12  A    between atoms: C9_20  and  C10_21 
REMARK   13  A    between atoms: C13_24  and  N4_29 
REMARK   14  A    between atoms: N3_25  and  O4_27 
REMARK   15  A    between atoms: N4_29  and  C14_31 
ROOT
HETATM    1  C7  UNL     1      24.858 -13.420  10.768  1.00  0.00     0.249 C 
HETATM    2  O3  UNL     1      25.495 -12.500  11.369  1.00  0.00    -0.271 OA
HETATM    3  N2  UNL     1      25.641 -14.486  10.160  1.00  0.00    -0.347 N 
ATOM      4  H2  UNL     1      25.170 -15.250   9.676  1.00  0.00     0.163 HD
ENDROOT
BRANCH   3   5
HETATM    5  C8  UNL     1      27.078 -14.465  10.239  1.00  0.00     0.154 C 
BRANCH   5   6
HETATM    6  C9  UNL     1      27.798 -15.147   9.131  1.00  0.00     0.037 C 
BRANCH   6   7
HETATM    7  C10 UNL     1      28.968 -14.469   8.527  1.00  0.00    -0.020 C 
HETATM    8  C11 UNL     1      30.225 -14.525   9.352  1.00  0.00     0.009 C 
HETATM    9  C12 UNL     1      28.620 -12.976   8.375  1.00  0.00     0.009 C 
ENDBRANCH   6   7
ENDBRANCH   5   6
BRANCH   5  10
HETATM   10  C13 UNL     1      27.545 -15.064  11.509  1.00  0.00     0.120 C 
HETATM   11  N3  UNL     1      27.880 -14.353  12.491  1.00  0.00    -0.255 N 
ATOM     12  H3  UNL     1      28.181 -14.914  13.288  1.00  0.00     0.195 HD
BRANCH  11  13
HETATM   13  O4  UNL     1      27.939 -13.062  12.744  1.00  0.00    -0.288 OA
ATOM     14  H4  UNL     1      28.569 -12.476  13.146  1.00  0.00     0.244 HD
ENDBRANCH  11  13
BRANCH  10  15
HETATM   15  N4  UNL     1      27.608 -16.510  11.605  1.00  0.00    -0.372 N 
ATOM     16  H4  UNL     1      27.070 -17.075  10.947  1.00  0.00     0.161 HD
BRANCH  15  17
HETATM   17  C14 UNL     1      28.404 -17.165  12.597  1.00  0.00     0.083 C 
HETATM   18  C15 UNL     1      28.035 -18.608  12.827  1.00  0.00     0.025 C 
HETATM   19  C16 UNL     1      29.107 -19.307  13.614  1.00  0.00     0.002 C 
HETATM   20  C17 UNL     1      29.896 -18.331  14.474  1.00  0.00     0.000 C 
HETATM   21  C18 UNL     1      30.599 -17.310  13.637  1.00  0.00     0.002 C 
HETATM   22  C19 UNL     1      29.896 -17.127  12.286  1.00  0.00     0.025 C 
ENDBRANCH  15  17
ENDBRANCH  10  15
ENDBRANCH   5  10
ENDBRANCH   3   5
BRANCH   1  23
HETATM   23  C6  UNL     1      23.412 -13.461  10.657  1.00  0.00     0.242 C 
BRANCH  23  24
HETATM   24  C5  UNL     1      22.834 -14.045   9.360  1.00  0.00     0.249 C 
BRANCH  24  25
HETATM   25  C4  UNL     1      22.706 -13.049   8.243  1.00  0.00     0.151 C 
BRANCH  25  26
HETATM   26  C3  UNL     1      23.479 -13.437   6.983  1.00  0.00     0.034 C 
BRANCH  26  27
HETATM   27  C2  UNL     1      22.434 -14.119   6.086  1.00  0.00    -0.002 C 
HETATM   28  C1  UNL     1      23.080 -14.969   5.034  1.00  0.00     0.005 C 
ENDBRANCH  26  27
ENDBRANCH  25  26
BRANCH  25  29
HETATM   29  O1  UNL     1      21.344 -13.170   7.726  1.00  0.00    -0.393 OA
ATOM     30  H1  UNL     1      21.540 -13.236   6.798  1.00  0.00     0.210 HD
ENDBRANCH  25  29
ENDBRANCH  24  25
BRANCH  24  31
HETATM   31  N1  UNL     1      21.381 -14.197   9.803  1.00  0.00    -0.070 N 
ATOM     32  H13 UNL     1      21.210 -14.036  10.796  1.00  0.00     0.275 HD
ATOM     33  H12 UNL     1      20.748 -13.465   9.480  1.00  0.00     0.275 HD
ATOM     34  H11 UNL     1      21.163 -15.138   9.472  1.00  0.00     0.275 HD
ENDBRANCH  24  31
ENDBRANCH  23  24
BRANCH  23  35
HETATM   35  O2  UNL     1      22.957 -14.396  11.656  1.00  0.00    -0.384 OA
ATOM     36  H2  UNL     1      22.759 -15.170  11.143  1.00  0.00     0.210 HD
ENDBRANCH  23  35
ENDBRANCH   1  23
TORSDOF 15
ENDMDL
MODEL 5
REMARK VINA RESULT: -7.979854363      3.404      7.718
REMARK  15 active torsions:
REMARK  status: ('A' for Active; 'I' for Inactive)
REMARK    1  A    between atoms: C2_2  and  C3_3 
REMARK    2  A    between atoms: C3_3  and  C4_4 
REMARK    3  A    between atoms: C4_4  and  O1_5 
REMARK    4  A    between atoms: C4_4  and  C5_7 
REMARK    5  A    between atoms: C5_7  and  N1_8 
REMARK    6  A    between atoms: C5_7  and  C6_12 
REMARK    7  A    between atoms: C6_12  and  O2_13 
REMARK    8  A    between atoms: C6_12  and  C7_15 
REMARK       I    between atoms: C7_15  and  N2_17 
REMARK    9  A    between atoms: N2_17  and  C8_19 
REMARK   10  A    between atoms: C8_19  and  C9_20 
REMARK   11  A    between atoms: C8_19  and  C13_24 
REMARK   12  A    between atoms: C9_20  and  C10_21 
REMARK   13  A    between atoms: C13_24  and  N4_29 
REMARK   14  A    between atoms: N3_25  and  O4_27 
REMARK   15  A    between atoms: N4_29  and  C14_31 
ROOT
HETATM    1  C7  UNL     1      28.411 -14.214  12.465  1.00  0.00     0.249 C 
HETATM    2  O3  UNL     1      27.386 -13.491  12.668  1.00  0.00    -0.271 OA
HETATM    3  N2  UNL     1      28.993 -14.186  11.131  1.00  0.00    -0.347 N 
ATOM      4  H2  UNL     1      29.822 -14.744  10.927  1.00  0.00     0.163 HD
ENDROOT
BRANCH   3   5
HETATM    5  C8  UNL     1      28.403 -13.374  10.100  1.00  0.00     0.154 C 
BRANCH   5   6
HETATM    6  C9  UNL     1      27.640 -14.107   9.055  1.00  0.00     0.037 C 
BRANCH   6   7
HETATM    7  C10 UNL     1      26.205 -13.790   8.876  1.00  0.00    -0.020 C 
HETATM    8  C11 UNL     1      25.318 -14.211  10.017  1.00  0.00     0.009 C 
HETATM    9  C12 UNL     1      25.703 -14.557   7.638  1.00  0.00     0.009 C 
ENDBRANCH   6   7
ENDBRANCH   5   6
BRANCH   5  10
HETATM   10  C13 UNL     1      29.433 -12.564   9.413  1.00  0.00     0.120 C 
HETATM   11  N3  UNL     1      30.374 -12.017  10.045  1.00  0.00    -0.255 N 
ATOM     12  H3  UNL     1      30.996 -11.493   9.431  1.00  0.00     0.195 HD
BRANCH  11  13
HETATM   13  O4  UNL     1      30.752 -11.954  11.305  1.00  0.00    -0.288 OA
ATOM     14  H4  UNL     1      31.307 -11.382  11.820  1.00  0.00     0.244 HD
ENDBRANCH  11  13
BRANCH  10  15
HETATM   15  N4  UNL     1      29.341 -12.410   7.973  1.00  0.00    -0.372 N 
ATOM     16  H4  UNL     1      28.439 -12.179   7.556  1.00  0.00     0.161 HD
BRANCH  15  17
HETATM   17  C14 UNL     1      30.479 -12.575   7.124  1.00  0.00     0.083 C 
HETATM   18  C15 UNL     1      30.509 -13.888   6.383  1.00  0.00     0.025 C 
HETATM   19  C16 UNL     1      31.529 -13.847   5.281  1.00  0.00     0.002 C 
HETATM   20  C17 UNL     1      32.635 -12.846   5.578  1.00  0.00     0.000 C 
HETATM   21  C18 UNL     1      32.097 -11.454   5.692  1.00  0.00     0.002 C 
HETATM   22  C19 UNL     1      30.613 -11.469   6.083  1.00  0.00     0.025 C 
ENDBRANCH  15  17
ENDBRANCH  10  15
ENDBRANCH   5  10
ENDBRANCH   3   5
BRANCH   1  23
HETATM   23  C6  UNL     1      29.018 -15.055  13.479  1.00  0.00     0.242 C 
BRANCH  23  24
HETATM   24  C5  UNL     1      28.446 -16.472  13.634  1.00  0.00     0.249 C 
BRANCH  24  25
HETATM   25  C4  UNL     1      29.132 -17.506  12.788  1.00  0.00     0.151 C 
BRANCH  25  26
HETATM   26  C3  UNL     1      28.652 -18.933  13.054  1.00  0.00     0.034 C 
BRANCH  26  27
HETATM   27  C2  UNL     1      29.288 -19.305  14.404  1.00  0.00    -0.002 C 
HETATM   28  C1  UNL     1      29.001 -20.728  14.774  1.00  0.00     0.005 C 
ENDBRANCH  26  27
ENDBRANCH  25  26
BRANCH  25  29
HETATM   29  O1  UNL     1      28.623 -17.341  11.428  1.00  0.00    -0.393 OA
ATOM     30  H1  UNL     1      27.832 -16.851  11.621  1.00  0.00     0.210 HD
ENDBRANCH  25  29
ENDBRANCH  24  25
BRANCH  24  31
HETATM   31  N1  UNL     1      27.135 -16.275  12.876  1.00  0.00    -0.070 N 
ATOM     32  H13 UNL     1      26.777 -17.106  12.406  1.00  0.00     0.275 HD
ATOM     33  H12 UNL     1      26.311 -16.136  13.461  1.00  0.00     0.275 HD
ATOM     34  H11 UNL     1      27.369 -15.494  12.262  1.00  0.00     0.275 HD
ENDBRANCH  24  31
ENDBRANCH  23  24
BRANCH  23  35
HETATM   35  O2  UNL     1      30.369 -15.304  13.041  1.00  0.00    -0.384 OA
ATOM     36  H2  UNL     1      30.462 -14.712  12.304  1.00  0.00     0.210 HD
ENDBRANCH  23  35
ENDBRANCH   1  23
TORSDOF 15
ENDMDL
