MODEL 1
REMARK VINA RESULT: -9.758573680      0.000      0.000
REMARK  16 active torsions:
REMARK  status: ('A' for Active; 'I' for Inactive)
REMARK    1  A    between atoms: C2_2  and  C12_12 
REMARK    2  A    between atoms: C3_3  and  C4_4 
REMARK    3  A    between atoms: C5_5  and  C6_6 
REMARK    4  A    between atoms: C6_6  and  C8_8 
REMARK    5  A    between atoms: C8_8  and  C9_9 
REMARK    6  A    between atoms: C12_12  and  C14_14 
REMARK    7  A    between atoms: C14_14  and  O1_15 
REMARK    8  A    between atoms: C14_14  and  C15_17 
REMARK    9  A    between atoms: C15_17  and  O2_18 
REMARK   10  A    between atoms: C15_17  and  C16_20 
REMARK   11  A    between atoms: C16_20  and  O3_21 
REMARK   12  A    between atoms: C16_20  and  C17_23 
REMARK   13  A    between atoms: C17_23  and  C18_24 
REMARK   14  A    between atoms: C18_24  and  O4_25 
REMARK   15  A    between atoms: C20_28  and  O5_29 
REMARK   16  A    between atoms: C21_32  and  O7_33 
ROOT
HETATM    1  C15 UNL     1      29.621 -14.669  10.912  1.00  0.00     0.177 C 
ENDROOT
BRANCH   1   2
HETATM    2  C14 UNL     1      29.219 -16.122  11.025  1.00  0.00     0.157 C 
BRANCH   2   3
HETATM    3  C12 UNL     1      28.134 -16.404  12.004  1.00  0.00     0.041 C 
HETATM    4  C13 UNL     1      27.702 -15.150  12.750  1.00  0.00     0.017 C 
BRANCH   3   5
HETATM    5  C2  UNL     1      28.592 -17.356  13.041  1.00  0.00    -0.077 C 
HETATM    6  C1  UNL     1      29.084 -16.776  14.357  1.00  0.00     0.044 C 
HETATM    7  C3  UNL     1      28.627 -18.645  12.920  1.00  0.00     0.003 C 
BRANCH   7   8
HETATM    8  C4  UNL     1      29.117 -19.478  14.002  1.00  0.00    -0.003 C 
HETATM    9  C5  UNL     1      28.815 -20.747  14.125  1.00  0.00    -0.022 C 
BRANCH   9  10
HETATM   10  C6  UNL     1      29.277 -21.652  15.196  1.00  0.00     0.004 C 
HETATM   11  C7  UNL     1      29.557 -20.891  16.462  1.00  0.00     0.014 C 
BRANCH  10  12
HETATM   12  C8  UNL     1      28.282 -22.755  15.464  1.00  0.00     0.012 C 
BRANCH  12  13
HETATM   13  C9  UNL     1      28.949 -24.095  15.316  1.00  0.00    -0.022 C 
HETATM   14  C10 UNL     1      29.936 -24.342  16.458  1.00  0.00     0.009 C 
HETATM   15  C11 UNL     1      27.894 -25.181  15.352  1.00  0.00     0.009 C 
ENDBRANCH  12  13
ENDBRANCH  10  12
ENDBRANCH   9  10
ENDBRANCH   7   8
ENDBRANCH   3   5
ENDBRANCH   2   3
BRANCH   2  16
HETATM   16  O1  UNL     1      30.372 -16.831  11.442  1.00  0.00    -0.392 OA
ATOM     17  H1  UNL     1      30.686 -16.428  12.243  1.00  0.00     0.210 HD
ENDBRANCH   2  16
ENDBRANCH   1   2
BRANCH   1  18
HETATM   18  O2  UNL     1      30.588 -14.484  11.913  1.00  0.00    -0.390 OA
ATOM     19  H2  UNL     1      31.345 -14.974  11.615  1.00  0.00     0.210 HD
ENDBRANCH   1  18
BRANCH   1  20
HETATM   20  C16 UNL     1      30.187 -14.348   9.549  1.00  0.00     0.165 C 
BRANCH  20  21
HETATM   21  O3  UNL     1      31.473 -13.764   9.681  1.00  0.00    -0.392 OA
ATOM     22  H3  UNL     1      32.083 -14.181   9.084  1.00  0.00     0.210 HD
ENDBRANCH  20  21
BRANCH  20  23
HETATM   23  C17 UNL     1      29.307 -13.556   8.672  1.00  0.00     0.063 C 
HETATM   24  C19 UNL     1      29.781 -12.099   8.752  1.00  0.00     0.080 C 
HETATM   25  C20 UNL     1      30.406 -11.909   7.394  1.00  0.00     0.261 C 
HETATM   26  O6  UNL     1      29.530 -12.616   6.570  1.00  0.00    -0.331 OA
HETATM   27  C21 UNL     1      29.550 -13.866   7.222  1.00  0.00     0.273 C 
BRANCH  23  28
HETATM   28  C18 UNL     1      27.847 -13.596   8.961  1.00  0.00     0.181 C 
BRANCH  28  29
HETATM   29  O4  UNL     1      27.058 -12.848   8.134  1.00  0.00    -0.400 OA
ATOM     30  H4  UNL     1      26.719 -12.042   8.505  1.00  0.00     0.209 HD
ENDBRANCH  28  29
ENDBRANCH  23  28
BRANCH  25  31
HETATM   31  O5  UNL     1      30.522 -10.580   7.025  1.00  0.00    -0.371 OA
ATOM     32  H5  UNL     1      29.955 -10.340   6.301  1.00  0.00     0.212 HD
ENDBRANCH  25  31
BRANCH  27  33
HETATM   33  O7  UNL     1      30.826 -14.368   6.982  1.00  0.00    -0.370 OA
ATOM     34  H7  UNL     1      31.254 -13.952   6.243  1.00  0.00     0.212 HD
ENDBRANCH  27  33
ENDBRANCH  20  23
ENDBRANCH   1  20
TORSDOF 16
ENDMDL
MODEL 2
REMARK VINA RESULT: -9.689874272      1.654      2.684
REMARK  16 active torsions:
REMARK  status: ('A' for Active; 'I' for Inactive)
REMARK    1  A    between atoms: C2_2  and  C12_12 
REMARK    2  A    between atoms: C3_3  and  C4_4 
REMARK    3  A    between atoms: C5_5  and  C6_6 
REMARK    4  A    between atoms: C6_6  and  C8_8 
REMARK    5  A    between atoms: C8_8  and  C9_9 
REMARK    6  A    between atoms: C12_12  and  C14_14 
REMARK    7  A    between atoms: C14_14  and  O1_15 
REMARK    8  A    between atoms: C14_14  and  C15_17 
REMARK    9  A    between atoms: C15_17  and  O2_18 
REMARK   10  A    between atoms: C15_17  and  C16_20 
REMARK   11  A    between atoms: C16_20  and  O3_21 
REMARK   12  A    between atoms: C16_20  and  C17_23 
REMARK   13  A    between atoms: C17_23  and  C18_24 
REMARK   14  A    between atoms: C18_24  and  O4_25 
REMARK   15  A    between atoms: C20_28  and  O5_29 
REMARK   16  A    between atoms: C21_32  and  O7_33 
ROOT
HETATM    1  C15 UNL     1      28.944 -15.094  12.814  1.00  0.00     0.177 C 
ENDROOT
BRANCH   1   2
HETATM    2  C14 UNL     1      28.539 -16.423  13.410  1.00  0.00     0.157 C 
BRANCH   2   3
HETATM    3  C12 UNL     1      29.417 -17.570  13.051  1.00  0.00     0.041 C 
HETATM    4  C13 UNL     1      29.098 -18.119  11.668  1.00  0.00     0.017 C 
BRANCH   3   5
HETATM    5  C2  UNL     1      29.224 -18.698  13.990  1.00  0.00    -0.077 C 
HETATM    6  C1  UNL     1      29.484 -18.434  15.465  1.00  0.00     0.044 C 
HETATM    7  C3  UNL     1      28.867 -19.899  13.665  1.00  0.00     0.003 C 
BRANCH   7   8
HETATM    8  C4  UNL     1      28.729 -20.931  14.676  1.00  0.00    -0.003 C 
HETATM    9  C5  UNL     1      28.597 -22.203  14.390  1.00  0.00    -0.022 C 
BRANCH   9  10
HETATM   10  C6  UNL     1      28.454 -23.304  15.364  1.00  0.00     0.004 C 
HETATM   11  C7  UNL     1      29.006 -24.589  14.813  1.00  0.00     0.014 C 
BRANCH  10  12
HETATM   12  C8  UNL     1      29.118 -22.976  16.679  1.00  0.00     0.012 C 
BRANCH  12  13
HETATM   13  C9  UNL     1      30.585 -23.300  16.609  1.00  0.00    -0.022 C 
HETATM   14  C10 UNL     1      31.430 -22.100  17.042  1.00  0.00     0.009 C 
HETATM   15  C11 UNL     1      30.884 -24.456  17.540  1.00  0.00     0.009 C 
ENDBRANCH  12  13
ENDBRANCH  10  12
ENDBRANCH   9  10
ENDBRANCH   7   8
ENDBRANCH   3   5
ENDBRANCH   2   3
BRANCH   2  16
HETATM   16  O1  UNL     1      27.240 -16.705  12.925  1.00  0.00    -0.392 OA
ATOM     17  H1  UNL     1      26.854 -17.362  13.493  1.00  0.00     0.210 HD
ENDBRANCH   2  16
ENDBRANCH   1   2
BRANCH   1  18
HETATM   18  O2  UNL     1      30.283 -14.920  13.198  1.00  0.00    -0.390 OA
ATOM     19  H2  UNL     1      30.350 -14.004  13.441  1.00  0.00     0.210 HD
ENDBRANCH   1  18
BRANCH   1  20
HETATM   20  C16 UNL     1      28.810 -15.090  11.308  1.00  0.00     0.165 C 
BRANCH  20  21
HETATM   21  O3  UNL     1      30.092 -15.038  10.706  1.00  0.00    -0.392 OA
ATOM     22  H3  UNL     1      30.211 -14.205  10.265  1.00  0.00     0.210 HD
ENDBRANCH  20  21
BRANCH  20  23
HETATM   23  C17 UNL     1      27.897 -14.071  10.761  1.00  0.00     0.063 C 
HETATM   24  C19 UNL     1      28.748 -13.105   9.925  1.00  0.00     0.080 C 
HETATM   25  C20 UNL     1      28.323 -13.463   8.524  1.00  0.00     0.261 C 
HETATM   26  O6  UNL     1      26.955 -13.686   8.683  1.00  0.00    -0.331 OA
HETATM   27  C21 UNL     1      26.992 -14.651   9.711  1.00  0.00     0.273 C 
BRANCH  23  28
HETATM   28  C18 UNL     1      27.100 -13.280  11.737  1.00  0.00     0.181 C 
BRANCH  28  29
HETATM   29  O4  UNL     1      26.138 -12.471  11.199  1.00  0.00    -0.400 OA
ATOM     30  H4  UNL     1      25.286 -12.509  11.618  1.00  0.00     0.209 HD
ENDBRANCH  28  29
ENDBRANCH  23  28
BRANCH  25  31
HETATM   31  O5  UNL     1      28.592 -12.468   7.600  1.00  0.00    -0.371 OA
ATOM     32  H5  UNL     1      28.017 -12.492   6.844  1.00  0.00     0.212 HD
ENDBRANCH  25  31
BRANCH  27  33
HETATM   33  O7  UNL     1      27.520 -15.788   9.107  1.00  0.00    -0.370 OA
ATOM     34  H7  UNL     1      27.199 -15.921   8.223  1.00  0.00     0.212 HD
ENDBRANCH  27  33
ENDBRANCH  20  23
ENDBRANCH   1  20
TORSDOF 16
ENDMDL
MODEL 3
REMARK VINA RESULT: -9.389627642      1.719      2.977
REMARK  16 active torsions:
REMARK  status: ('A' for Active; 'I' for Inactive)
REMARK    1  A    between atoms: C2_2  and  C12_12 
REMARK    2  A    between atoms: C3_3  and  C4_4 
REMARK    3  A    between atoms: C5_5  and  C6_6 
REMARK    4  A    between atoms: C6_6  and  C8_8 
REMARK    5  A    between atoms: C8_8  and  C9_9 
REMARK    6  A    between atoms: C12_12  and  C14_14 
REMARK    7  A    between atoms: C14_14  and  O1_15 
REMARK    8  A    between atoms: C14_14  and  C15_17 
REMARK    9  A    between atoms: C15_17  and  O2_18 
REMARK   10  A    between atoms: C15_17  and  C16_20 
REMARK   11  A    between atoms: C16_20  and  O3_21 
REMARK   12  A    between atoms: C16_20  and  C17_23 
REMARK   13  A    between atoms: C17_23  and  C18_24 
REMARK   14  A    between atoms: C18_24  and  O4_25 
REMARK   15  A    between atoms: C20_28  and  O5_29 
REMARK   16  A    between atoms: C21_32  and  O7_33 
ROOT
HETATM    1  C15 UNL     1      27.865 -15.141  11.888  1.00  0.00     0.177 C 
ENDROOT
BRANCH   1   2
HETATM    2  C14 UNL     1      28.117 -16.144  12.991  1.00  0.00     0.157 C 
BRANCH   2   3
HETATM    3  C12 UNL     1      29.172 -17.152  12.699  1.00  0.00     0.041 C 
HETATM    4  C13 UNL     1      28.966 -17.815  11.345  1.00  0.00     0.017 C 
BRANCH   3   5
HETATM    5  C2  UNL     1      29.148 -18.246  13.696  1.00  0.00    -0.077 C 
HETATM    6  C1  UNL     1      29.422 -17.880  15.146  1.00  0.00     0.044 C 
HETATM    7  C3  UNL     1      28.929 -19.496  13.440  1.00  0.00     0.003 C 
BRANCH   7   8
HETATM    8  C4  UNL     1      28.950 -20.486  14.501  1.00  0.00    -0.003 C 
HETATM    9  C5  UNL     1      28.574 -21.730  14.331  1.00  0.00    -0.022 C 
BRANCH   9  10
HETATM   10  C6  UNL     1      28.570 -22.786  15.362  1.00  0.00     0.004 C 
HETATM   11  C7  UNL     1      28.562 -24.153  14.735  1.00  0.00     0.014 C 
BRANCH  10  12
HETATM   12  C8  UNL     1      29.743 -22.653  16.302  1.00  0.00     0.012 C 
BRANCH  12  13
HETATM   13  C9  UNL     1      30.093 -23.997  16.880  1.00  0.00    -0.022 C 
HETATM   14  C10 UNL     1      31.593 -24.093  17.167  1.00  0.00     0.009 C 
HETATM   15  C11 UNL     1      29.344 -24.188  18.181  1.00  0.00     0.009 C 
ENDBRANCH  12  13
ENDBRANCH  10  12
ENDBRANCH   9  10
ENDBRANCH   7   8
ENDBRANCH   3   5
ENDBRANCH   2   3
BRANCH   2  16
HETATM   16  O1  UNL     1      26.900 -16.838  13.193  1.00  0.00    -0.392 OA
ATOM     17  H1  UNL     1      26.723 -16.846  14.127  1.00  0.00     0.210 HD
ENDBRANCH   2  16
ENDBRANCH   1   2
BRANCH   1  18
HETATM   18  O2  UNL     1      27.011 -14.185  12.458  1.00  0.00    -0.390 OA
ATOM     19  H2  UNL     1      26.882 -13.535  11.776  1.00  0.00     0.210 HD
ENDBRANCH   1  18
BRANCH   1  20
HETATM   20  C16 UNL     1      29.148 -14.502  11.408  1.00  0.00     0.165 C 
BRANCH  20  21
HETATM   21  O3  UNL     1      29.416 -13.329  12.158  1.00  0.00    -0.392 OA
ATOM     22  H3  UNL     1      29.004 -12.578  11.748  1.00  0.00     0.210 HD
ENDBRANCH  20  21
BRANCH  20  23
HETATM   23  C17 UNL     1      29.226 -14.262   9.956  1.00  0.00     0.063 C 
HETATM   24  C19 UNL     1      28.166 -15.151   9.293  1.00  0.00     0.080 C 
HETATM   25  C20 UNL     1      27.143 -14.131   8.862  1.00  0.00     0.261 C 
HETATM   26  O6  UNL     1      27.948 -13.074   8.437  1.00  0.00    -0.331 OA
HETATM   27  C21 UNL     1      28.727 -12.890   9.598  1.00  0.00     0.273 C 
BRANCH  23  28
HETATM   28  C18 UNL     1      30.536 -14.512   9.297  1.00  0.00     0.181 C 
BRANCH  28  29
HETATM   29  O4  UNL     1      31.595 -13.805   9.792  1.00  0.00    -0.400 OA
ATOM     30  H4  UNL     1      32.023 -13.220   9.178  1.00  0.00     0.209 HD
ENDBRANCH  28  29
ENDBRANCH  23  28
BRANCH  25  31
HETATM   31  O5  UNL     1      26.301 -14.589   7.863  1.00  0.00    -0.371 OA
ATOM     32  H5  UNL     1      25.380 -14.515   8.085  1.00  0.00     0.212 HD
ENDBRANCH  25  31
BRANCH  27  33
HETATM   33  O7  UNL     1      27.841 -12.372  10.539  1.00  0.00    -0.370 OA
ATOM     34  H7  UNL     1      27.644 -11.455  10.395  1.00  0.00     0.212 HD
ENDBRANCH  27  33
ENDBRANCH  20  23
ENDBRANCH   1  20
TORSDOF 16
ENDMDL
MODEL 4
REMARK VINA RESULT: -9.271399524      1.507      2.150
REMARK  16 active torsions:
REMARK  status: ('A' for Active; 'I' for Inactive)
REMARK    1  A    between atoms: C2_2  and  C12_12 
REMARK    2  A    between atoms: C3_3  and  C4_4 
REMARK    3  A    between atoms: C5_5  and  C6_6 
REMARK    4  A    between atoms: C6_6  and  C8_8 
REMARK    5  A    between atoms: C8_8  and  C9_9 
REMARK    6  A    between atoms: C12_12  and  C14_14 
REMARK    7  A    between atoms: C14_14  and  O1_15 
REMARK    8  A    between atoms: C14_14  and  C15_17 
REMARK    9  A    between atoms: C15_17  and  O2_18 
REMARK   10  A    between atoms: C15_17  and  C16_20 
REMARK   11  A    between atoms: C16_20  and  O3_21 
REMARK   12  A    between atoms: C16_20  and  C17_23 
REMARK   13  A    between atoms: C17_23  and  C18_24 
REMARK   14  A    between atoms: C18_24  and  O4_25 
REMARK   15  A    between atoms: C20_28  and  O5_29 
REMARK   16  A    between atoms: C21_32  and  O7_33 
ROOT
HETATM    1  C15 UNL     1      27.815 -14.899  11.803  1.00  0.00     0.177 C 
ENDROOT
BRANCH   1   2
HETATM    2  C14 UNL     1      28.148 -15.864  12.917  1.00  0.00     0.157 C 
BRANCH   2   3
HETATM    3  C12 UNL     1      29.163 -16.898  12.576  1.00  0.00     0.041 C 
HETATM    4  C13 UNL     1      28.877 -17.552  11.232  1.00  0.00     0.017 C 
BRANCH   3   5
HETATM    5  C2  UNL     1      29.158 -17.993  13.571  1.00  0.00    -0.077 C 
HETATM    6  C1  UNL     1      29.465 -17.630  15.015  1.00  0.00     0.044 C 
HETATM    7  C3  UNL     1      28.931 -19.242  13.318  1.00  0.00     0.003 C 
BRANCH   7   8
HETATM    8  C4  UNL     1      28.974 -20.233  14.377  1.00  0.00    -0.003 C 
HETATM    9  C5  UNL     1      28.519 -21.454  14.237  1.00  0.00    -0.022 C 
BRANCH   9  10
HETATM   10  C6  UNL     1      28.531 -22.511  15.268  1.00  0.00     0.004 C 
HETATM   11  C7  UNL     1      28.571 -23.877  14.641  1.00  0.00     0.014 C 
BRANCH  10  12
HETATM   12  C8  UNL     1      29.686 -22.345  16.224  1.00  0.00     0.012 C 
BRANCH  12  13
HETATM   13  C9  UNL     1      30.124 -23.689  16.739  1.00  0.00    -0.022 C 
HETATM   14  C10 UNL     1      31.592 -23.655  17.170  1.00  0.00     0.009 C 
HETATM   15  C11 UNL     1      29.282 -24.059  17.941  1.00  0.00     0.009 C 
ENDBRANCH  12  13
ENDBRANCH  10  12
ENDBRANCH   9  10
ENDBRANCH   7   8
ENDBRANCH   3   5
ENDBRANCH   2   3
BRANCH   2  16
HETATM   16  O1  UNL     1      26.945 -16.533  13.247  1.00  0.00    -0.392 OA
ATOM     17  H1  UNL     1      26.486 -16.005  13.889  1.00  0.00     0.210 HD
ENDBRANCH   2  16
ENDBRANCH   1   2
BRANCH   1  18
HETATM   18  O2  UNL     1      27.067 -13.882  12.418  1.00  0.00    -0.390 OA
ATOM     19  H2  UNL     1      27.280 -13.094  11.932  1.00  0.00     0.210 HD
ENDBRANCH   1  18
BRANCH   1  20
HETATM   20  C16 UNL     1      29.060 -14.337  11.157  1.00  0.00     0.165 C 
BRANCH  20  21
HETATM   21  O3  UNL     1      29.482 -13.172  11.846  1.00  0.00    -0.392 OA
ATOM     22  H3  UNL     1      29.771 -12.513  11.226  1.00  0.00     0.210 HD
ENDBRANCH  20  21
BRANCH  20  23
HETATM   23  C17 UNL     1      28.971 -14.119   9.702  1.00  0.00     0.063 C 
HETATM   24  C19 UNL     1      28.826 -12.607   9.480  1.00  0.00     0.080 C 
HETATM   25  C20 UNL     1      30.175 -12.256   8.906  1.00  0.00     0.261 C 
HETATM   26  O6  UNL     1      30.435 -13.352   8.084  1.00  0.00    -0.331 OA
HETATM   27  C21 UNL     1      30.283 -14.393   9.023  1.00  0.00     0.273 C 
BRANCH  23  28
HETATM   28  C18 UNL     1      27.871 -14.812   8.978  1.00  0.00     0.181 C 
BRANCH  28  29
HETATM   29  O4  UNL     1      27.906 -14.718   7.615  1.00  0.00    -0.400 OA
ATOM     30  H4  UNL     1      27.565 -15.467   7.142  1.00  0.00     0.209 HD
ENDBRANCH  28  29
ENDBRANCH  23  28
BRANCH  25  31
HETATM   31  O5  UNL     1      30.179 -11.060   8.210  1.00  0.00    -0.371 OA
ATOM     32  H5  UNL     1      30.349 -10.305   8.761  1.00  0.00     0.212 HD
ENDBRANCH  25  31
BRANCH  27  33
HETATM   33  O7  UNL     1      31.374 -14.259   9.878  1.00  0.00    -0.370 OA
ATOM     34  H7  UNL     1      32.203 -14.228   9.416  1.00  0.00     0.212 HD
ENDBRANCH  27  33
ENDBRANCH  20  23
ENDBRANCH   1  20
TORSDOF 16
ENDMDL
MODEL 5
REMARK VINA RESULT: -9.266683572      2.083      3.025
REMARK  16 active torsions:
REMARK  status: ('A' for Active; 'I' for Inactive)
REMARK    1  A    between atoms: C2_2  and  C12_12 
REMARK    2  A    between atoms: C3_3  and  C4_4 
REMARK    3  A    between atoms: C5_5  and  C6_6 
REMARK    4  A    between atoms: C6_6  and  C8_8 
REMARK    5  A    between atoms: C8_8  and  C9_9 
REMARK    6  A    between atoms: C12_12  and  C14_14 
REMARK    7  A    between atoms: C14_14  and  O1_15 
REMARK    8  A    between atoms: C14_14  and  C15_17 
REMARK    9  A    between atoms: C15_17  and  O2_18 
REMARK   10  A    between atoms: C15_17  and  C16_20 
REMARK   11  A    between atoms: C16_20  and  O3_21 
REMARK   12  A    between atoms: C16_20  and  C17_23 
REMARK   13  A    between atoms: C17_23  and  C18_24 
REMARK   14  A    between atoms: C18_24  and  O4_25 
REMARK   15  A    between atoms: C20_28  and  O5_29 
REMARK   16  A    between atoms: C21_32  and  O7_33 
ROOT
HETATM    1  C15 UNL     1      29.646 -15.522  11.042  1.00  0.00     0.177 C 
ENDROOT
BRANCH   1   2
HETATM    2  C14 UNL     1      29.730 -15.955  12.488  1.00  0.00     0.157 C 
BRANCH   2   3
HETATM    3  C12 UNL     1      28.495 -16.582  13.032  1.00  0.00     0.041 C 
HETATM    4  C13 UNL     1      27.812 -15.692  14.061  1.00  0.00     0.017 C 
BRANCH   3   5
HETATM    5  C2  UNL     1      28.809 -17.846  13.734  1.00  0.00    -0.077 C 
HETATM    6  C1  UNL     1      29.346 -17.747  15.152  1.00  0.00     0.044 C 
HETATM    7  C3  UNL     1      28.681 -19.036  13.239  1.00  0.00     0.003 C 
BRANCH   7   8
HETATM    8  C4  UNL     1      29.042 -20.206  14.018  1.00  0.00    -0.003 C 
HETATM    9  C5  UNL     1      28.342 -21.314  14.016  1.00  0.00    -0.022 C 
BRANCH   9  10
HETATM   10  C6  UNL     1      28.649 -22.539  14.781  1.00  0.00     0.004 C 
HETATM   11  C7  UNL     1      29.362 -23.547  13.923  1.00  0.00     0.014 C 
BRANCH  10  12
HETATM   12  C8  UNL     1      29.466 -22.237  16.014  1.00  0.00     0.012 C 
BRANCH  12  13
HETATM   13  C9  UNL     1      30.110 -23.497  16.524  1.00  0.00    -0.022 C 
HETATM   14  C10 UNL     1      31.466 -23.194  17.165  1.00  0.00     0.009 C 
HETATM   15  C11 UNL     1      29.216 -24.123  17.573  1.00  0.00     0.009 C 
ENDBRANCH  12  13
ENDBRANCH  10  12
ENDBRANCH   9  10
ENDBRANCH   7   8
ENDBRANCH   3   5
ENDBRANCH   2   3
BRANCH   2  16
HETATM   16  O1  UNL     1      29.992 -14.788  13.245  1.00  0.00    -0.392 OA
ATOM     17  H1  UNL     1      29.889 -15.009  14.163  1.00  0.00     0.210 HD
ENDBRANCH   2  16
ENDBRANCH   1   2
BRANCH   1  18
HETATM   18  O2  UNL     1      30.461 -16.429  10.346  1.00  0.00    -0.390 OA
ATOM     19  H2  UNL     1      30.913 -15.902   9.697  1.00  0.00     0.210 HD
ENDBRANCH   1  18
BRANCH   1  20
HETATM   20  C16 UNL     1      28.226 -15.566  10.525  1.00  0.00     0.165 C 
BRANCH  20  21
HETATM   21  O3  UNL     1      28.037 -16.720   9.722  1.00  0.00    -0.392 OA
ATOM     22  H3  UNL     1      28.619 -16.694   8.972  1.00  0.00     0.210 HD
ENDBRANCH  20  21
BRANCH  20  23
HETATM   23  C17 UNL     1      27.763 -14.340   9.852  1.00  0.00     0.063 C 
HETATM   24  C19 UNL     1      27.608 -14.673   8.362  1.00  0.00     0.080 C 
HETATM   25  C20 UNL     1      26.108 -14.679   8.208  1.00  0.00     0.261 C 
HETATM   26  O6  UNL     1      25.729 -13.613   9.024  1.00  0.00    -0.331 OA
HETATM   27  C21 UNL     1      26.347 -14.007  10.229  1.00  0.00     0.273 C 
BRANCH  23  28
HETATM   28  C18 UNL     1      28.620 -13.130   9.981  1.00  0.00     0.181 C 
BRANCH  28  29
HETATM   29  O4  UNL     1      28.084 -12.098  10.699  1.00  0.00    -0.400 OA
ATOM     30  H4  UNL     1      27.532 -12.347  11.430  1.00  0.00     0.209 HD
ENDBRANCH  28  29
ENDBRANCH  23  28
BRANCH  25  31
HETATM   31  O5  UNL     1      25.692 -14.517   6.899  1.00  0.00    -0.371 OA
ATOM     32  H5  UNL     1      25.804 -15.297   6.369  1.00  0.00     0.212 HD
ENDBRANCH  25  31
BRANCH  27  33
HETATM   33  O7  UNL     1      25.623 -15.118  10.650  1.00  0.00    -0.370 OA
ATOM     34  H7  UNL     1      24.684 -14.973  10.643  1.00  0.00     0.212 HD
ENDBRANCH  27  33
ENDBRANCH  20  23
ENDBRANCH   1  20
TORSDOF 16
ENDMDL
