MODEL 1
REMARK VINA RESULT: -8.446665004      0.000      0.000
REMARK  7 active torsions:
REMARK  status: ('A' for Active; 'I' for Inactive)
REMARK       I    between atoms: C1_2  and  N1_3 
REMARK       I    between atoms: C1_2  and  N3_21 
REMARK    1  A    between atoms: N1_3  and  C2_5 
REMARK    2  A    between atoms: C2_5  and  C3_6 
REMARK    3  A    between atoms: C3_6  and  C4_7 
REMARK    4  A    between atoms: C4_7  and  N2_8 
REMARK    5  A    between atoms: C7_12  and  C8_13 
REMARK    6  A    between atoms: C8_13  and  C9_14 
REMARK    7  A    between atoms: N3_21  and  C16_23 
ROOT
HETATM    1  C4  UNL     1      -3.635  -6.168  -6.838  1.00  0.00     0.065 C 
ENDROOT
BRANCH   1   2
HETATM    2  C3  UNL     1      -5.070  -6.152  -7.174  1.00  0.00     0.064 C 
BRANCH   2   3
HETATM    3  C2  UNL     1      -5.472  -6.627  -8.526  1.00  0.00     0.129 C 
BRANCH   3   4
HETATM    4  N1  UNL     1      -6.851  -6.426  -8.847  1.00  0.00    -0.343 N 
HETATM    5  C1  UNL     1      -7.616  -7.618  -9.147  1.00  0.00     0.316 C 
HETATM    6  O1  UNL     1      -7.089  -8.754  -9.118  1.00  0.00    -0.247 OA
HETATM    7  N3  UNL     1      -8.979  -7.521  -9.479  1.00  0.00    -0.339 N 
ATOM      8  H3  UNL     1      -9.409  -6.596  -9.503  1.00  0.00     0.164 HD
ATOM      9  H1  UNL     1      -7.272  -5.497  -8.862  1.00  0.00     0.164 HD
BRANCH   7  10
HETATM   10  C16 UNL     1      -9.799  -8.669  -9.786  1.00  0.00     0.086 C 
HETATM   11  C17 UNL     1     -10.674  -8.967  -8.611  1.00  0.00     0.025 C 
HETATM   12  C18 UNL     1     -12.087  -8.913  -9.110  1.00  0.00     0.002 C 
HETATM   13  C19 UNL     1     -12.066  -8.065 -10.368  1.00  0.00     0.002 C 
HETATM   14  C20 UNL     1     -10.733  -8.407 -10.957  1.00  0.00     0.025 C 
ENDBRANCH   7  10
ENDBRANCH   3   4
ENDBRANCH   2   3
ENDBRANCH   1   2
BRANCH   1  15
HETATM   15  N2  UNL     1      -3.212  -6.188  -5.500  1.00  0.00    -0.372 N 
HETATM   16  C5  UNL     1      -1.940  -6.812  -5.254  1.00  0.00     0.153 C 
HETATM   17  C6  UNL     1      -0.743  -6.030  -5.642  1.00  0.00     0.188 C 
HETATM   18  O2  UNL     1      -0.938  -4.733  -6.018  1.00  0.00    -0.384 OA
HETATM   19  C7  UNL     1      -1.284  -3.845  -5.041  1.00  0.00     0.126 C 
HETATM   20  C14 UNL     1      -2.300  -4.427  -4.057  1.00  0.00     0.076 C 
HETATM   21  C15 UNL     1      -3.487  -4.999  -4.794  1.00  0.00     0.065 C 
BRANCH  19  22
HETATM   22  C8  UNL     1      -0.171  -3.275  -4.235  1.00  0.00     0.037 C 
BRANCH  22  23
HETATM   23  C9  UNL     1      -0.459  -1.919  -3.650  1.00  0.00    -0.012 C 
HETATM   24  C10 UNL     1      -0.854  -0.979  -4.760  1.00  0.00     0.005 C 
HETATM   25  C11 UNL     1      -0.663   0.385  -4.100  1.00  0.00     0.000 C 
HETATM   26  C12 UNL     1       0.407   0.181  -3.053  1.00  0.00     0.000 C 
HETATM   27  C13 UNL     1       0.811  -1.277  -3.132  1.00  0.00     0.005 C 
ENDBRANCH  22  23
ENDBRANCH  19  22
ENDBRANCH   1  15
TORSDOF 7
ENDMDL
MODEL 2
REMARK VINA RESULT: -8.397456353      1.240      1.509
REMARK  7 active torsions:
REMARK  status: ('A' for Active; 'I' for Inactive)
REMARK       I    between atoms: C1_2  and  N1_3 
REMARK       I    between atoms: C1_2  and  N3_21 
REMARK    1  A    between atoms: N1_3  and  C2_5 
REMARK    2  A    between atoms: C2_5  and  C3_6 
REMARK    3  A    between atoms: C3_6  and  C4_7 
REMARK    4  A    between atoms: C4_7  and  N2_8 
REMARK    5  A    between atoms: C7_12  and  C8_13 
REMARK    6  A    between atoms: C8_13  and  C9_14 
REMARK    7  A    between atoms: N3_21  and  C16_23 
ROOT
HETATM    1  C4  UNL     1      -3.522  -5.621  -6.950  1.00  0.00     0.065 C 
ENDROOT
BRANCH   1   2
HETATM    2  C3  UNL     1      -4.898  -6.147  -6.908  1.00  0.00     0.064 C 
BRANCH   2   3
HETATM    3  C2  UNL     1      -5.506  -6.604  -8.188  1.00  0.00     0.129 C 
BRANCH   3   4
HETATM    4  N1  UNL     1      -6.933  -6.508  -8.242  1.00  0.00    -0.343 N 
HETATM    5  C1  UNL     1      -7.628  -7.651  -8.795  1.00  0.00     0.316 C 
HETATM    6  O1  UNL     1      -7.005  -8.662  -9.193  1.00  0.00    -0.247 OA
HETATM    7  N3  UNL     1      -9.030  -7.647  -8.895  1.00  0.00    -0.339 N 
ATOM      8  H3  UNL     1      -9.539  -6.824  -8.571  1.00  0.00     0.164 HD
ATOM      9  H1  UNL     1      -7.430  -5.682  -7.911  1.00  0.00     0.164 HD
BRANCH   7  10
HETATM   10  C16 UNL     1      -9.785  -8.755  -9.433  1.00  0.00     0.086 C 
HETATM   11  C17 UNL     1     -10.979  -8.994  -8.566  1.00  0.00     0.025 C 
HETATM   12  C18 UNL     1     -12.181  -8.871  -9.454  1.00  0.00     0.002 C 
HETATM   13  C19 UNL     1     -11.749  -8.039 -10.647  1.00  0.00     0.002 C 
HETATM   14  C20 UNL     1     -10.323  -8.457 -10.824  1.00  0.00     0.025 C 
ENDBRANCH   7  10
ENDBRANCH   3   4
ENDBRANCH   2   3
ENDBRANCH   1   2
BRANCH   1  15
HETATM   15  N2  UNL     1      -2.475  -6.302  -6.312  1.00  0.00    -0.372 N 
HETATM   16  C5  UNL     1      -1.149  -5.825  -6.600  1.00  0.00     0.153 C 
HETATM   17  C6  UNL     1      -0.753  -4.558  -5.942  1.00  0.00     0.188 C 
HETATM   18  O2  UNL     1      -1.593  -4.058  -4.990  1.00  0.00    -0.384 OA
HETATM   19  C7  UNL     1      -1.662  -4.730  -3.804  1.00  0.00     0.126 C 
HETATM   20  C14 UNL     1      -1.676  -6.248  -3.993  1.00  0.00     0.076 C 
HETATM   21  C15 UNL     1      -2.751  -6.652  -4.974  1.00  0.00     0.065 C 
BRANCH  19  22
HETATM   22  C8  UNL     1      -0.606  -4.423  -2.803  1.00  0.00     0.037 C 
BRANCH  22  23
HETATM   23  C9  UNL     1      -0.417  -2.956  -2.529  1.00  0.00    -0.012 C 
HETATM   24  C10 UNL     1       0.901  -2.514  -3.112  1.00  0.00     0.005 C 
HETATM   25  C11 UNL     1       1.142  -1.195  -2.379  1.00  0.00     0.000 C 
HETATM   26  C12 UNL     1       0.424  -1.330  -1.056  1.00  0.00     0.000 C 
HETATM   27  C13 UNL     1      -0.205  -2.708  -1.049  1.00  0.00     0.005 C 
ENDBRANCH  22  23
ENDBRANCH  19  22
ENDBRANCH   1  15
TORSDOF 7
ENDMDL
MODEL 3
REMARK VINA RESULT: -8.352014907      2.543      3.324
REMARK  7 active torsions:
REMARK  status: ('A' for Active; 'I' for Inactive)
REMARK       I    between atoms: C1_2  and  N1_3 
REMARK       I    between atoms: C1_2  and  N3_21 
REMARK    1  A    between atoms: N1_3  and  C2_5 
REMARK    2  A    between atoms: C2_5  and  C3_6 
REMARK    3  A    between atoms: C3_6  and  C4_7 
REMARK    4  A    between atoms: C4_7  and  N2_8 
REMARK    5  A    between atoms: C7_12  and  C8_13 
REMARK    6  A    between atoms: C8_13  and  C9_14 
REMARK    7  A    between atoms: N3_21  and  C16_23 
ROOT
HETATM    1  C4  UNL     1      -3.226  -6.361  -8.019  1.00  0.00     0.065 C 
ENDROOT
BRANCH   1   2
HETATM    2  C3  UNL     1      -4.691  -6.453  -7.881  1.00  0.00     0.064 C 
BRANCH   2   3
HETATM    3  C2  UNL     1      -5.503  -6.521  -9.127  1.00  0.00     0.129 C 
BRANCH   3   4
HETATM    4  N1  UNL     1      -6.918  -6.481  -8.922  1.00  0.00    -0.343 N 
HETATM    5  C1  UNL     1      -7.666  -7.614  -9.426  1.00  0.00     0.316 C 
HETATM    6  O1  UNL     1      -7.094  -8.570  -9.999  1.00  0.00    -0.247 OA
HETATM    7  N3  UNL     1      -9.064  -7.663  -9.276  1.00  0.00    -0.339 N 
ATOM      8  H3  UNL     1      -9.531  -6.885  -8.810  1.00  0.00     0.164 HD
ATOM      9  H1  UNL     1      -7.373  -5.700  -8.450  1.00  0.00     0.164 HD
BRANCH   7  10
HETATM   10  C16 UNL     1      -9.869  -8.764  -9.753  1.00  0.00     0.086 C 
HETATM   11  C17 UNL     1     -10.888  -9.102  -8.712  1.00  0.00     0.025 C 
HETATM   12  C18 UNL     1     -12.228  -8.972  -9.373  1.00  0.00     0.002 C 
HETATM   13  C19 UNL     1     -12.032  -8.051 -10.563  1.00  0.00     0.002 C 
HETATM   14  C20 UNL     1     -10.646  -8.401 -11.008  1.00  0.00     0.025 C 
ENDBRANCH   7  10
ENDBRANCH   3   4
ENDBRANCH   2   3
ENDBRANCH   1   2
BRANCH   1  15
HETATM   15  N2  UNL     1      -2.514  -5.314  -7.414  1.00  0.00    -0.372 N 
HETATM   16  C5  UNL     1      -3.069  -4.806  -6.188  1.00  0.00     0.153 C 
HETATM   17  C6  UNL     1      -2.885  -5.654  -4.987  1.00  0.00     0.188 C 
HETATM   18  O2  UNL     1      -2.059  -6.734  -5.104  1.00  0.00    -0.384 OA
HETATM   19  C7  UNL     1      -0.721  -6.487  -5.216  1.00  0.00     0.126 C 
HETATM   20  C14 UNL     1      -0.421  -5.301  -6.134  1.00  0.00     0.076 C 
HETATM   21  C15 UNL     1      -1.114  -5.470  -7.465  1.00  0.00     0.065 C 
BRANCH  19  22
HETATM   22  C8  UNL     1       0.023  -6.259  -3.948  1.00  0.00     0.037 C 
BRANCH  22  23
HETATM   23  C9  UNL     1      -0.733  -6.645  -2.706  1.00  0.00    -0.012 C 
HETATM   24  C10 UNL     1      -0.933  -5.419  -1.853  1.00  0.00     0.005 C 
HETATM   25  C11 UNL     1      -1.276  -6.034  -0.496  1.00  0.00     0.000 C 
HETATM   26  C12 UNL     1      -0.596  -7.383  -0.480  1.00  0.00     0.000 C 
HETATM   27  C13 UNL     1       0.120  -7.517  -1.808  1.00  0.00     0.005 C 
ENDBRANCH  22  23
ENDBRANCH  19  22
ENDBRANCH   1  15
TORSDOF 7
ENDMDL
MODEL 4
REMARK VINA RESULT: -8.328627396      1.673      2.401
REMARK  7 active torsions:
REMARK  status: ('A' for Active; 'I' for Inactive)
REMARK       I    between atoms: C1_2  and  N1_3 
REMARK       I    between atoms: C1_2  and  N3_21 
REMARK    1  A    between atoms: N1_3  and  C2_5 
REMARK    2  A    between atoms: C2_5  and  C3_6 
REMARK    3  A    between atoms: C3_6  and  C4_7 
REMARK    4  A    between atoms: C4_7  and  N2_8 
REMARK    5  A    between atoms: C7_12  and  C8_13 
REMARK    6  A    between atoms: C8_13  and  C9_14 
REMARK    7  A    between atoms: N3_21  and  C16_23 
ROOT
HETATM    1  C4  UNL     1      -3.266  -6.463  -8.334  1.00  0.00     0.065 C 
ENDROOT
BRANCH   1   2
HETATM    2  C3  UNL     1      -4.663  -6.389  -8.800  1.00  0.00     0.064 C 
BRANCH   2   3
HETATM    3  C2  UNL     1      -5.742  -6.587  -7.794  1.00  0.00     0.129 C 
BRANCH   3   4
HETATM    4  N1  UNL     1      -7.069  -6.385  -8.291  1.00  0.00    -0.343 N 
HETATM    5  C1  UNL     1      -7.749  -7.564  -8.786  1.00  0.00     0.316 C 
HETATM    6  O1  UNL     1      -7.200  -8.689  -8.768  1.00  0.00    -0.247 OA
HETATM    7  N3  UNL     1      -9.055  -7.465  -9.300  1.00  0.00    -0.339 N 
ATOM      8  H3  UNL     1      -9.503  -6.548  -9.315  1.00  0.00     0.164 HD
ATOM      9  H1  UNL     1      -7.509  -5.466  -8.296  1.00  0.00     0.164 HD
BRANCH   7  10
HETATM   10  C16 UNL     1      -9.790  -8.600  -9.807  1.00  0.00     0.086 C 
HETATM   11  C17 UNL     1     -10.778  -9.036  -8.773  1.00  0.00     0.025 C 
HETATM   12  C18 UNL     1     -12.128  -8.972  -9.422  1.00  0.00     0.002 C 
HETATM   13  C19 UNL     1     -12.000  -8.004 -10.583  1.00  0.00     0.002 C 
HETATM   14  C20 UNL     1     -10.598  -8.249 -11.046  1.00  0.00     0.025 C 
ENDBRANCH   7  10
ENDBRANCH   3   4
ENDBRANCH   2   3
ENDBRANCH   1   2
BRANCH   1  15
HETATM   15  N2  UNL     1      -2.663  -5.367  -7.700  1.00  0.00    -0.372 N 
HETATM   16  C5  UNL     1      -3.296  -4.916  -6.490  1.00  0.00     0.153 C 
HETATM   17  C6  UNL     1      -3.080  -5.756  -5.288  1.00  0.00     0.188 C 
HETATM   18  O2  UNL     1      -2.164  -6.762  -5.385  1.00  0.00    -0.384 OA
HETATM   19  C7  UNL     1      -0.849  -6.404  -5.453  1.00  0.00     0.126 C 
HETATM   20  C14 UNL     1      -0.620  -5.190  -6.354  1.00  0.00     0.076 C 
HETATM   21  C15 UNL     1      -1.254  -5.405  -7.708  1.00  0.00     0.065 C 
BRANCH  19  22
HETATM   22  C8  UNL     1      -0.167  -6.126  -4.161  1.00  0.00     0.037 C 
BRANCH  22  23
HETATM   23  C9  UNL     1      -0.695  -4.924  -3.426  1.00  0.00    -0.012 C 
HETATM   24  C10 UNL     1       0.359  -3.847  -3.427  1.00  0.00     0.005 C 
HETATM   25  C11 UNL     1      -0.126  -2.932  -2.302  1.00  0.00     0.000 C 
HETATM   26  C12 UNL     1      -0.897  -3.826  -1.359  1.00  0.00     0.000 C 
HETATM   27  C13 UNL     1      -0.840  -5.221  -1.947  1.00  0.00     0.005 C 
ENDBRANCH  22  23
ENDBRANCH  19  22
ENDBRANCH   1  15
TORSDOF 7
ENDMDL
MODEL 5
REMARK VINA RESULT: -8.266766401      2.038      2.692
REMARK  7 active torsions:
REMARK  status: ('A' for Active; 'I' for Inactive)
REMARK       I    between atoms: C1_2  and  N1_3 
REMARK       I    between atoms: C1_2  and  N3_21 
REMARK    1  A    between atoms: N1_3  and  C2_5 
REMARK    2  A    between atoms: C2_5  and  C3_6 
REMARK    3  A    between atoms: C3_6  and  C4_7 
REMARK    4  A    between atoms: C4_7  and  N2_8 
REMARK    5  A    between atoms: C7_12  and  C8_13 
REMARK    6  A    between atoms: C8_13  and  C9_14 
REMARK    7  A    between atoms: N3_21  and  C16_23 
ROOT
HETATM    1  C4  UNL     1      -3.560  -5.581  -6.879  1.00  0.00     0.065 C 
ENDROOT
BRANCH   1   2
HETATM    2  C3  UNL     1      -4.924  -6.139  -6.860  1.00  0.00     0.064 C 
BRANCH   2   3
HETATM    3  C2  UNL     1      -5.511  -6.583  -8.155  1.00  0.00     0.129 C 
BRANCH   3   4
HETATM    4  N1  UNL     1      -6.936  -6.483  -8.232  1.00  0.00    -0.343 N 
HETATM    5  C1  UNL     1      -7.626  -7.631  -8.782  1.00  0.00     0.316 C 
HETATM    6  O1  UNL     1      -7.000  -8.648  -9.158  1.00  0.00    -0.247 OA
HETATM    7  N3  UNL     1      -9.027  -7.625  -8.904  1.00  0.00    -0.339 N 
ATOM      8  H3  UNL     1      -9.537  -6.796  -8.598  1.00  0.00     0.164 HD
ATOM      9  H1  UNL     1      -7.436  -5.652  -7.918  1.00  0.00     0.164 HD
BRANCH   7  10
HETATM   10  C16 UNL     1      -9.776  -8.736  -9.441  1.00  0.00     0.086 C 
HETATM   11  C17 UNL     1     -10.937  -9.017  -8.541  1.00  0.00     0.025 C 
HETATM   12  C18 UNL     1     -12.169  -8.901  -9.388  1.00  0.00     0.002 C 
HETATM   13  C19 UNL     1     -11.792  -8.037 -10.577  1.00  0.00     0.002 C 
HETATM   14  C20 UNL     1     -10.364  -8.422 -10.807  1.00  0.00     0.025 C 
ENDBRANCH   7  10
ENDBRANCH   3   4
ENDBRANCH   2   3
ENDBRANCH   1   2
BRANCH   1  15
HETATM   15  N2  UNL     1      -2.483  -6.305  -6.346  1.00  0.00    -0.372 N 
HETATM   16  C5  UNL     1      -1.176  -5.763  -6.605  1.00  0.00     0.153 C 
HETATM   17  C6  UNL     1      -0.793  -4.571  -5.813  1.00  0.00     0.188 C 
HETATM   18  O2  UNL     1      -1.622  -4.206  -4.792  1.00  0.00    -0.384 OA
HETATM   19  C7  UNL     1      -1.647  -5.013  -3.691  1.00  0.00     0.126 C 
HETATM   20  C14 UNL     1      -1.631  -6.498  -4.054  1.00  0.00     0.076 C 
HETATM   21  C15 UNL     1      -2.718  -6.814  -5.053  1.00  0.00     0.065 C 
BRANCH  19  22
HETATM   22  C8  UNL     1      -0.575  -4.796  -2.683  1.00  0.00     0.037 C 
BRANCH  22  23
HETATM   23  C9  UNL     1      -1.069  -4.332  -1.340  1.00  0.00    -0.012 C 
HETATM   24  C10 UNL     1      -1.584  -5.520  -0.569  1.00  0.00     0.005 C 
HETATM   25  C11 UNL     1      -2.431  -4.851   0.512  1.00  0.00     0.000 C 
HETATM   26  C12 UNL     1      -2.896  -3.545  -0.090  1.00  0.00     0.000 C 
HETATM   27  C13 UNL     1      -2.319  -3.489  -1.490  1.00  0.00     0.005 C 
ENDBRANCH  22  23
ENDBRANCH  19  22
ENDBRANCH   1  15
TORSDOF 7
ENDMDL
