MODEL 1
REMARK VINA RESULT: -8.447395568      0.000      0.000
REMARK  8 active torsions:
REMARK  status: ('A' for Active; 'I' for Inactive)
REMARK    1  A    between atoms: C2_2  and  C3_3 
REMARK    2  A    between atoms: C3_3  and  N1_4 
REMARK    3  A    between atoms: C10_11  and  C11_12 
REMARK    4  A    between atoms: C11_12  and  C12_13 
REMARK       I    between atoms: C12_13  and  N2_15 
REMARK    5  A    between atoms: N2_15  and  C13_17 
REMARK    6  A    between atoms: C13_17  and  C14_18 
REMARK    7  A    between atoms: C14_18  and  C15_19 
REMARK    8  A    between atoms: C15_19  and  C16_20 
ROOT
HETATM    1  C12 UNL     1      -4.629  -6.149  -7.695  1.00  0.00     0.217 C 
HETATM    2  O1  UNL     1      -3.942  -5.863  -8.680  1.00  0.00    -0.274 OA
HETATM    3  N2  UNL     1      -5.964  -6.607  -7.839  1.00  0.00    -0.361 N 
ATOM      4  H2  UNL     1      -6.496  -6.840  -7.000  1.00  0.00     0.162 HD
ENDROOT
BRANCH   1   5
HETATM    5  C11 UNL     1      -4.084  -6.022  -6.346  1.00  0.00     0.108 C 
BRANCH   5   6
HETATM    6  C10 UNL     1      -2.846  -5.177  -6.204  1.00  0.00     0.001 C 
HETATM    7  C8  UNL     1      -1.631  -5.963  -6.480  1.00  0.00     0.004 C 
HETATM    8  C7  UNL     1      -0.746  -6.166  -5.247  1.00  0.00     0.067 C 
HETATM    9  C9  UNL     1      -0.792  -5.471  -7.634  1.00  0.00     0.012 C 
HETATM   10  N1  UNL     1      -1.674  -6.373  -4.154  1.00  0.00    -0.283 NA
HETATM   11  C6  UNL     1       0.060  -4.957  -4.907  1.00  0.00     0.022 C 
HETATM   12  C4  UNL     1      -2.003  -5.029  -3.818  1.00  0.00     0.063 C 
HETATM   13  C5  UNL     1      -0.763  -4.183  -3.886  1.00  0.00     0.022 C 
HETATM   14  C21 UNL     1      -2.951  -4.500  -4.869  1.00  0.00     0.025 C 
BRANCH  10  15
HETATM   15  C3  UNL     1      -1.253  -7.249  -3.139  1.00  0.00     0.059 C 
BRANCH  15  16
HETATM   16  C2  UNL     1      -1.788  -8.614  -3.144  1.00  0.00     0.001 C 
HETATM   17  C1  UNL     1      -1.444  -9.527  -4.048  1.00  0.00     0.012 C 
ENDBRANCH  15  16
ENDBRANCH  10  15
ENDBRANCH   5   6
ENDBRANCH   1   5
BRANCH   3  18
HETATM   18  C13 UNL     1      -6.593  -6.756  -9.111  1.00  0.00     0.122 C 
BRANCH  18  19
HETATM   19  C14 UNL     1      -6.949  -8.201  -9.332  1.00  0.00     0.020 C 
BRANCH  19  20
HETATM   20  C15 UNL     1      -8.297  -8.317 -10.000  1.00  0.00     0.008 C 
BRANCH  20  21
HETATM   21  C16 UNL     1      -9.445  -7.849  -9.167  1.00  0.00     0.011 C 
HETATM   22  C17 UNL     1      -9.380  -8.607  -7.853  1.00  0.00     0.008 C 
HETATM   23  C18 UNL     1     -10.706  -9.242  -7.531  1.00  0.00     0.028 C 
HETATM   24  C19 UNL     1     -11.070 -10.175  -8.656  1.00  0.00     0.232 C 
HETATM   25  N3  UNL     1     -11.165  -9.460  -9.901  1.00  0.00    -0.075 N 
HETATM   26  C20 UNL     1     -10.793  -8.080  -9.770  1.00  0.00     0.237 C 
ATOM     27  H32 UNL     1     -10.621  -9.920 -10.631  1.00  0.00     0.277 HD
ATOM     28  H31 UNL     1     -12.096  -9.553 -10.307  1.00  0.00     0.277 HD
ENDBRANCH  20  21
ENDBRANCH  19  20
ENDBRANCH  18  19
ENDBRANCH   3  18
TORSDOF 8
ENDMDL
MODEL 2
REMARK VINA RESULT: -8.363417345      1.002      1.515
REMARK  8 active torsions:
REMARK  status: ('A' for Active; 'I' for Inactive)
REMARK    1  A    between atoms: C2_2  and  C3_3 
REMARK    2  A    between atoms: C3_3  and  N1_4 
REMARK    3  A    between atoms: C10_11  and  C11_12 
REMARK    4  A    between atoms: C11_12  and  C12_13 
REMARK       I    between atoms: C12_13  and  N2_15 
REMARK    5  A    between atoms: N2_15  and  C13_17 
REMARK    6  A    between atoms: C13_17  and  C14_18 
REMARK    7  A    between atoms: C14_18  and  C15_19 
REMARK    8  A    between atoms: C15_19  and  C16_20 
ROOT
HETATM    1  C12 UNL     1      -4.875  -6.116  -6.819  1.00  0.00     0.217 C 
HETATM    2  O1  UNL     1      -4.290  -6.075  -7.905  1.00  0.00    -0.274 OA
HETATM    3  N2  UNL     1      -6.237  -6.503  -6.733  1.00  0.00    -0.361 N 
ATOM      4  H2  UNL     1      -6.682  -6.530  -5.815  1.00  0.00     0.162 HD
ENDROOT
BRANCH   1   5
HETATM    5  C11 UNL     1      -4.179  -5.762  -5.585  1.00  0.00     0.108 C 
BRANCH   5   6
HETATM    6  C10 UNL     1      -2.907  -4.972  -5.740  1.00  0.00     0.001 C 
HETATM    7  C8  UNL     1      -1.768  -5.852  -6.057  1.00  0.00     0.004 C 
HETATM    8  C7  UNL     1      -0.725  -5.922  -4.939  1.00  0.00     0.067 C 
HETATM    9  C9  UNL     1      -1.086  -5.576  -7.375  1.00  0.00     0.012 C 
HETATM   10  N1  UNL     1      -1.495  -5.920  -3.712  1.00  0.00    -0.283 NA
HETATM   11  C6  UNL     1       0.160  -4.721  -4.897  1.00  0.00     0.022 C 
HETATM   12  C4  UNL     1      -1.729  -4.526  -3.540  1.00  0.00     0.063 C 
HETATM   13  C5  UNL     1      -0.485  -3.766  -3.901  1.00  0.00     0.022 C 
HETATM   14  C21 UNL     1      -2.799  -4.105  -4.520  1.00  0.00     0.025 C 
BRANCH  10  15
HETATM   15  C3  UNL     1      -0.962  -6.661  -2.644  1.00  0.00     0.059 C 
BRANCH  15  16
HETATM   16  C2  UNL     1      -1.627  -7.917  -2.279  1.00  0.00     0.001 C 
HETATM   17  C1  UNL     1      -2.026  -8.815  -3.174  1.00  0.00     0.012 C 
ENDBRANCH  15  16
ENDBRANCH  10  15
ENDBRANCH   5   6
ENDBRANCH   1   5
BRANCH   3  18
HETATM   18  C13 UNL     1      -7.009  -6.857  -7.879  1.00  0.00     0.122 C 
BRANCH  18  19
HETATM   19  C14 UNL     1      -8.052  -7.871  -7.492  1.00  0.00     0.020 C 
BRANCH  19  20
HETATM   20  C15 UNL     1      -9.324  -7.644  -8.270  1.00  0.00     0.008 C 
BRANCH  20  21
HETATM   21  C16 UNL     1      -9.739  -8.791  -9.132  1.00  0.00     0.011 C 
HETATM   22  C17 UNL     1      -9.785  -8.280 -10.561  1.00  0.00     0.008 C 
HETATM   23  C18 UNL     1     -11.099  -8.619 -11.212  1.00  0.00     0.028 C 
HETATM   24  C19 UNL     1     -12.204  -8.000 -10.398  1.00  0.00     0.232 C 
HETATM   25  N3  UNL     1     -12.188  -8.502  -9.049  1.00  0.00    -0.075 N 
HETATM   26  C20 UNL     1     -11.074  -9.374  -8.803  1.00  0.00     0.237 C 
ATOM     27  H32 UNL     1     -12.215  -7.739  -8.373  1.00  0.00     0.277 HD
ATOM     28  H31 UNL     1     -13.070  -8.957  -8.816  1.00  0.00     0.277 HD
ENDBRANCH  20  21
ENDBRANCH  19  20
ENDBRANCH  18  19
ENDBRANCH   3  18
TORSDOF 8
ENDMDL
MODEL 3
REMARK VINA RESULT: -8.255098185      1.441      2.885
REMARK  8 active torsions:
REMARK  status: ('A' for Active; 'I' for Inactive)
REMARK    1  A    between atoms: C2_2  and  C3_3 
REMARK    2  A    between atoms: C3_3  and  N1_4 
REMARK    3  A    between atoms: C10_11  and  C11_12 
REMARK    4  A    between atoms: C11_12  and  C12_13 
REMARK       I    between atoms: C12_13  and  N2_15 
REMARK    5  A    between atoms: N2_15  and  C13_17 
REMARK    6  A    between atoms: C13_17  and  C14_18 
REMARK    7  A    between atoms: C14_18  and  C15_19 
REMARK    8  A    between atoms: C15_19  and  C16_20 
ROOT
HETATM    1  C12 UNL     1      -4.844  -6.152  -6.868  1.00  0.00     0.217 C 
HETATM    2  O1  UNL     1      -4.282  -6.134  -7.967  1.00  0.00    -0.274 OA
HETATM    3  N2  UNL     1      -6.211  -6.517  -6.749  1.00  0.00    -0.361 N 
ATOM      4  H2  UNL     1      -6.636  -6.526  -5.822  1.00  0.00     0.162 HD
ENDROOT
BRANCH   1   5
HETATM    5  C11 UNL     1      -4.117  -5.795  -5.653  1.00  0.00     0.108 C 
BRANCH   5   6
HETATM    6  C10 UNL     1      -2.655  -6.150  -5.623  1.00  0.00     0.001 C 
HETATM    7  C8  UNL     1      -2.302  -6.849  -4.375  1.00  0.00     0.004 C 
HETATM    8  C7  UNL     1      -1.372  -6.039  -3.467  1.00  0.00     0.067 C 
HETATM    9  C9  UNL     1      -1.756  -8.246  -4.548  1.00  0.00     0.012 C 
HETATM   10  N1  UNL     1      -1.836  -4.672  -3.586  1.00  0.00    -0.283 NA
HETATM   11  C6  UNL     1       0.047  -6.057  -3.929  1.00  0.00     0.022 C 
HETATM   12  C4  UNL     1      -1.182  -4.266  -4.784  1.00  0.00     0.063 C 
HETATM   13  C5  UNL     1       0.216  -4.817  -4.797  1.00  0.00     0.022 C 
HETATM   14  C21 UNL     1      -1.908  -4.890  -5.952  1.00  0.00     0.025 C 
BRANCH  10  15
HETATM   15  C3  UNL     1      -1.716  -3.873  -2.437  1.00  0.00     0.059 C 
BRANCH  15  16
HETATM   16  C2  UNL     1      -1.614  -2.421  -2.617  1.00  0.00     0.001 C 
HETATM   17  C1  UNL     1      -0.595  -1.701  -2.159  1.00  0.00     0.012 C 
ENDBRANCH  15  16
ENDBRANCH  10  15
ENDBRANCH   5   6
ENDBRANCH   1   5
BRANCH   3  18
HETATM   18  C13 UNL     1      -7.012  -6.872  -7.874  1.00  0.00     0.122 C 
BRANCH  18  19
HETATM   19  C14 UNL     1      -8.054  -7.873  -7.456  1.00  0.00     0.020 C 
BRANCH  19  20
HETATM   20  C15 UNL     1      -9.334  -7.657  -8.225  1.00  0.00     0.008 C 
BRANCH  20  21
HETATM   21  C16 UNL     1      -9.747  -8.810  -9.080  1.00  0.00     0.011 C 
HETATM   22  C17 UNL     1      -9.791  -8.310 -10.513  1.00  0.00     0.008 C 
HETATM   23  C18 UNL     1     -11.103  -8.653 -11.164  1.00  0.00     0.028 C 
HETATM   24  C19 UNL     1     -12.210  -8.027 -10.357  1.00  0.00     0.232 C 
HETATM   25  N3  UNL     1     -12.197  -8.519  -9.005  1.00  0.00    -0.075 N 
HETATM   26  C20 UNL     1     -11.083  -9.390  -8.750  1.00  0.00     0.237 C 
ATOM     27  H32 UNL     1     -12.224  -7.751  -8.334  1.00  0.00     0.277 HD
ATOM     28  H31 UNL     1     -13.079  -8.973  -8.770  1.00  0.00     0.277 HD
ENDBRANCH  20  21
ENDBRANCH  19  20
ENDBRANCH  18  19
ENDBRANCH   3  18
TORSDOF 8
ENDMDL
MODEL 4
REMARK VINA RESULT: -8.250030095      1.185      2.717
REMARK  8 active torsions:
REMARK  status: ('A' for Active; 'I' for Inactive)
REMARK    1  A    between atoms: C2_2  and  C3_3 
REMARK    2  A    between atoms: C3_3  and  N1_4 
REMARK    3  A    between atoms: C10_11  and  C11_12 
REMARK    4  A    between atoms: C11_12  and  C12_13 
REMARK       I    between atoms: C12_13  and  N2_15 
REMARK    5  A    between atoms: N2_15  and  C13_17 
REMARK    6  A    between atoms: C13_17  and  C14_18 
REMARK    7  A    between atoms: C14_18  and  C15_19 
REMARK    8  A    between atoms: C15_19  and  C16_20 
ROOT
HETATM    1  C12 UNL     1      -4.470  -6.354  -7.923  1.00  0.00     0.217 C 
HETATM    2  O1  UNL     1      -3.633  -6.492  -8.820  1.00  0.00    -0.274 OA
HETATM    3  N2  UNL     1      -5.855  -6.532  -8.177  1.00  0.00    -0.361 N 
ATOM      4  H2  UNL     1      -6.513  -6.415  -7.407  1.00  0.00     0.162 HD
ENDROOT
BRANCH   1   5
HETATM    5  C11 UNL     1      -4.057  -6.002  -6.567  1.00  0.00     0.108 C 
BRANCH   5   6
HETATM    6  C10 UNL     1      -2.662  -6.406  -6.170  1.00  0.00     0.001 C 
HETATM    7  C8  UNL     1      -2.566  -6.628  -4.716  1.00  0.00     0.004 C 
HETATM    8  C7  UNL     1      -1.684  -5.600  -4.002  1.00  0.00     0.067 C 
HETATM    9  C9  UNL     1      -2.162  -8.022  -4.301  1.00  0.00     0.012 C 
HETATM   10  N1  UNL     1      -1.970  -4.343  -4.662  1.00  0.00    -0.283 NA
HETATM   11  C6  UNL     1      -0.226  -5.863  -4.182  1.00  0.00     0.022 C 
HETATM   12  C4  UNL     1      -1.115  -4.432  -5.798  1.00  0.00     0.063 C 
HETATM   13  C5  UNL     1       0.200  -5.029  -5.383  1.00  0.00     0.022 C 
HETATM   14  C21 UNL     1      -1.740  -5.392  -6.782  1.00  0.00     0.025 C 
BRANCH  10  15
HETATM   15  C3  UNL     1      -1.920  -3.193  -3.857  1.00  0.00     0.059 C 
BRANCH  15  16
HETATM   16  C2  UNL     1      -1.591  -1.917  -4.502  1.00  0.00     0.001 C 
HETATM   17  C1  UNL     1      -0.517  -1.199  -4.189  1.00  0.00     0.012 C 
ENDBRANCH  15  16
ENDBRANCH  10  15
ENDBRANCH   5   6
ENDBRANCH   1   5
BRANCH   3  18
HETATM   18  C13 UNL     1      -6.362  -6.866  -9.468  1.00  0.00     0.122 C 
BRANCH  18  19
HETATM   19  C14 UNL     1      -6.890  -8.275  -9.453  1.00  0.00     0.020 C 
BRANCH  19  20
HETATM   20  C15 UNL     1      -8.238  -8.341 -10.127  1.00  0.00     0.008 C 
BRANCH  20  21
HETATM   21  C16 UNL     1      -9.371  -7.825  -9.301  1.00  0.00     0.011 C 
HETATM   22  C17 UNL     1      -9.281  -8.504  -7.947  1.00  0.00     0.008 C 
HETATM   23  C18 UNL     1     -10.601  -9.118  -7.563  1.00  0.00     0.028 C 
HETATM   24  C19 UNL     1     -10.986 -10.115  -8.624  1.00  0.00     0.232 C 
HETATM   25  N3  UNL     1     -11.104  -9.474  -9.907  1.00  0.00    -0.075 N 
HETATM   26  C20 UNL     1     -10.730  -8.088  -9.864  1.00  0.00     0.237 C 
ATOM     27  H32 UNL     1     -10.574  -9.976 -10.619  1.00  0.00     0.277 HD
ATOM     28  H31 UNL     1     -12.043  -9.590 -10.290  1.00  0.00     0.277 HD
ENDBRANCH  20  21
ENDBRANCH  19  20
ENDBRANCH  18  19
ENDBRANCH   3  18
TORSDOF 8
ENDMDL
MODEL 5
REMARK VINA RESULT: -8.117237850      0.777      1.273
REMARK  8 active torsions:
REMARK  status: ('A' for Active; 'I' for Inactive)
REMARK    1  A    between atoms: C2_2  and  C3_3 
REMARK    2  A    between atoms: C3_3  and  N1_4 
REMARK    3  A    between atoms: C10_11  and  C11_12 
REMARK    4  A    between atoms: C11_12  and  C12_13 
REMARK       I    between atoms: C12_13  and  N2_15 
REMARK    5  A    between atoms: N2_15  and  C13_17 
REMARK    6  A    between atoms: C13_17  and  C14_18 
REMARK    7  A    between atoms: C14_18  and  C15_19 
REMARK    8  A    between atoms: C15_19  and  C16_20 
ROOT
HETATM    1  C12 UNL     1      -4.300  -6.068  -7.925  1.00  0.00     0.217 C 
HETATM    2  O1  UNL     1      -3.597  -5.580  -8.814  1.00  0.00    -0.274 OA
HETATM    3  N2  UNL     1      -5.463  -6.820  -8.236  1.00  0.00    -0.361 N 
ATOM      4  H2  UNL     1      -6.012  -7.212  -7.472  1.00  0.00     0.162 HD
ENDROOT
BRANCH   1   5
HETATM    5  C11 UNL     1      -3.953  -5.885  -6.518  1.00  0.00     0.108 C 
BRANCH   5   6
HETATM    6  C10 UNL     1      -2.720  -5.069  -6.236  1.00  0.00     0.001 C 
HETATM    7  C8  UNL     1      -1.496  -5.862  -6.451  1.00  0.00     0.004 C 
HETATM    8  C7  UNL     1      -0.717  -6.138  -5.162  1.00  0.00     0.067 C 
HETATM    9  C9  UNL     1      -0.560  -5.330  -7.509  1.00  0.00     0.012 C 
HETATM   10  N1  UNL     1      -1.733  -6.380  -4.159  1.00  0.00    -0.283 NA
HETATM   11  C6  UNL     1       0.075  -4.960  -4.701  1.00  0.00     0.022 C 
HETATM   12  C4  UNL     1      -2.071  -5.048  -3.786  1.00  0.00     0.063 C 
HETATM   13  C5  UNL     1      -0.818  -4.221  -3.713  1.00  0.00     0.022 C 
HETATM   14  C21 UNL     1      -2.923  -4.454  -4.882  1.00  0.00     0.025 C 
BRANCH  10  15
HETATM   15  C3  UNL     1      -1.407  -7.309  -3.157  1.00  0.00     0.059 C 
BRANCH  15  16
HETATM   16  C2  UNL     1      -1.934  -8.672  -3.286  1.00  0.00     0.001 C 
HETATM   17  C1  UNL     1      -1.427  -9.572  -4.122  1.00  0.00     0.012 C 
ENDBRANCH  15  16
ENDBRANCH  10  15
ENDBRANCH   5   6
ENDBRANCH   1   5
BRANCH   3  18
HETATM   18  C13 UNL     1      -5.893  -7.048  -9.577  1.00  0.00     0.122 C 
BRANCH  18  19
HETATM   19  C14 UNL     1      -7.302  -6.546  -9.747  1.00  0.00     0.020 C 
BRANCH  19  20
HETATM   20  C15 UNL     1      -8.231  -7.246  -8.787  1.00  0.00     0.008 C 
BRANCH  20  21
HETATM   21  C16 UNL     1      -8.764  -8.551  -9.279  1.00  0.00     0.011 C 
HETATM   22  C17 UNL     1      -9.285  -8.318 -10.686  1.00  0.00     0.008 C 
HETATM   23  C18 UNL     1     -10.692  -8.833 -10.833  1.00  0.00     0.028 C 
HETATM   24  C19 UNL     1     -11.562  -8.125  -9.828  1.00  0.00     0.232 C 
HETATM   25  N3  UNL     1     -11.095  -8.366  -8.489  1.00  0.00    -0.075 N 
HETATM   26  C20 UNL     1      -9.876  -9.124  -8.462  1.00  0.00     0.237 C 
ATOM     27  H32 UNL     1     -10.997  -7.493  -7.971  1.00  0.00     0.277 HD
ATOM     28  H31 UNL     1     -11.818  -8.811  -7.923  1.00  0.00     0.277 HD
ENDBRANCH  20  21
ENDBRANCH  19  20
ENDBRANCH  18  19
ENDBRANCH   3  18
TORSDOF 8
ENDMDL
