MODEL 1
REMARK VINA RESULT: -7.255287625      0.000      0.000
REMARK  7 active torsions:
REMARK  status: ('A' for Active; 'I' for Inactive)
REMARK    1  A    between atoms: C2_2  and  C3_3 
REMARK    2  A    between atoms: C3_3  and  N1_4 
REMARK       I    between atoms: N1_4  and  C4_6 
REMARK       I    between atoms: C4_6  and  N2_8 
REMARK    3  A    between atoms: N2_8  and  C5_9 
REMARK    4  A    between atoms: N2_8  and  C14_20 
REMARK    5  A    between atoms: C5_9  and  C6_10 
REMARK    6  A    between atoms: C9_13  and  C10_14 
REMARK    7  A    between atoms: C10_14  and  C11_15 
ROOT
HETATM    1  N1  UNL     1      -3.286  -5.450  -5.288  1.00  0.00    -0.343 N 
ATOM      2  H1  UNL     1      -2.549  -6.094  -5.576  1.00  0.00     0.164 HD
HETATM    3  C4  UNL     1      -2.936  -4.278  -4.575  1.00  0.00     0.318 C 
HETATM    4  O1  UNL     1      -3.841  -3.503  -4.235  1.00  0.00    -0.247 OA
HETATM    5  N2  UNL     1      -1.586  -3.959  -4.240  1.00  0.00    -0.328 N 
ENDROOT
BRANCH   5   6
HETATM    6  C5  UNL     1      -0.543  -4.893  -4.585  1.00  0.00     0.132 C 
BRANCH   6   7
HETATM    7  C6  UNL     1      -0.210  -5.949  -3.602  1.00  0.00     0.004 C 
HETATM    8  C7  UNL     1      -0.017  -7.233  -4.428  1.00  0.00     0.006 C 
HETATM    9  C8  UNL     1      -1.321  -7.996  -4.414  1.00  0.00     0.005 C 
HETATM   10  C9  UNL     1      -1.629  -8.581  -3.063  1.00  0.00    -0.006 C 
HETATM   11  C12 UNL     1      -1.140  -7.643  -2.003  1.00  0.00     0.005 C 
HETATM   12  C13 UNL     1      -1.275  -6.243  -2.582  1.00  0.00     0.006 C 
BRANCH  10  13
HETATM   13  C10 UNL     1      -1.016  -9.958  -2.944  1.00  0.00     0.104 C 
BRANCH  13  14
HETATM   14  C11 UNL     1      -1.482 -10.816  -4.037  1.00  0.00     0.231 C 
HETATM   15  N3  UNL     1      -0.614 -11.350  -5.016  1.00  0.00    -0.062 NA
HETATM   16  O2  UNL     1      -2.718 -11.096  -4.113  1.00  0.00    -0.277 OA
ENDBRANCH  13  14
ENDBRANCH  10  13
ENDBRANCH   6   7
ENDBRANCH   5   6
BRANCH   5  17
HETATM   17  C14 UNL     1      -1.214  -2.761  -3.551  1.00  0.00     0.098 C 
HETATM   18  C15 UNL     1       0.119  -2.735  -2.919  1.00  0.00     0.027 C 
HETATM   19  C16 UNL     1       0.685  -1.365  -2.695  1.00  0.00     0.012 C 
HETATM   20  C17 UNL     1      -0.261  -0.371  -2.092  1.00  0.00     0.074 C 
HETATM   21  S1  UNL     1      -1.582  -0.127  -3.350  1.00  0.00    -0.167 SA
HETATM   22  C18 UNL     1      -1.339  -1.541  -4.490  1.00  0.00     0.099 C 
ENDBRANCH   5  17
BRANCH   1  23
HETATM   23  C3  UNL     1      -4.658  -5.762  -5.620  1.00  0.00     0.124 C 
BRANCH  23  24
HETATM   24  C2  UNL     1      -4.811  -6.171  -7.061  1.00  0.00     0.015 C 
HETATM   25  C1  UNL     1      -3.458  -6.194  -7.744  1.00  0.00     0.006 C 
ENDBRANCH  23  24
ENDBRANCH   1  23
TORSDOF 7
ENDMDL
MODEL 2
REMARK VINA RESULT: -7.189048355      2.906      6.122
REMARK  7 active torsions:
REMARK  status: ('A' for Active; 'I' for Inactive)
REMARK    1  A    between atoms: C2_2  and  C3_3 
REMARK    2  A    between atoms: C3_3  and  N1_4 
REMARK       I    between atoms: N1_4  and  C4_6 
REMARK       I    between atoms: C4_6  and  N2_8 
REMARK    3  A    between atoms: N2_8  and  C5_9 
REMARK    4  A    between atoms: N2_8  and  C14_20 
REMARK    5  A    between atoms: C5_9  and  C6_10 
REMARK    6  A    between atoms: C9_13  and  C10_14 
REMARK    7  A    between atoms: C10_14  and  C11_15 
ROOT
HETATM    1  N1  UNL     1      -1.808  -2.803  -4.973  1.00  0.00    -0.343 N 
ATOM      2  H1  UNL     1      -1.819  -2.998  -5.975  1.00  0.00     0.164 HD
HETATM    3  C4  UNL     1      -1.712  -3.884  -4.064  1.00  0.00     0.318 C 
HETATM    4  O1  UNL     1      -1.696  -3.634  -2.851  1.00  0.00    -0.247 OA
HETATM    5  N2  UNL     1      -1.629  -5.243  -4.494  1.00  0.00    -0.328 N 
ENDROOT
BRANCH   5   6
HETATM    6  C5  UNL     1      -1.709  -5.534  -5.904  1.00  0.00     0.132 C 
BRANCH   6   7
HETATM    7  C6  UNL     1      -2.820  -6.395  -6.369  1.00  0.00     0.004 C 
HETATM    8  C7  UNL     1      -2.506  -6.709  -7.843  1.00  0.00     0.006 C 
HETATM    9  C8  UNL     1      -3.260  -5.720  -8.701  1.00  0.00     0.005 C 
HETATM   10  C9  UNL     1      -4.745  -5.956  -8.679  1.00  0.00    -0.006 C 
HETATM   11  C12 UNL     1      -5.143  -6.430  -7.314  1.00  0.00     0.005 C 
HETATM   12  C13 UNL     1      -4.184  -5.763  -6.340  1.00  0.00     0.006 C 
BRANCH  10  13
HETATM   13  C10 UNL     1      -5.130  -6.935  -9.765  1.00  0.00     0.104 C 
BRANCH  13  14
HETATM   14  C11 UNL     1      -6.560  -7.244  -9.684  1.00  0.00     0.231 C 
HETATM   15  N3  UNL     1      -7.052  -8.490  -9.233  1.00  0.00    -0.062 NA
HETATM   16  O2  UNL     1      -7.400  -6.358 -10.033  1.00  0.00    -0.277 OA
ENDBRANCH  13  14
ENDBRANCH  10  13
ENDBRANCH   6   7
ENDBRANCH   5   6
BRANCH   5  17
HETATM   17  C14 UNL     1      -1.495  -6.342  -3.588  1.00  0.00     0.098 C 
HETATM   18  C15 UNL     1      -2.191  -7.595  -3.943  1.00  0.00     0.027 C 
HETATM   19  C16 UNL     1      -1.625  -8.832  -3.313  1.00  0.00     0.012 C 
HETATM   20  C17 UNL     1      -1.330  -8.729  -1.847  1.00  0.00     0.074 C 
HETATM   21  S1  UNL     1       0.014  -7.478  -1.705  1.00  0.00    -0.167 SA
HETATM   22  C18 UNL     1      -0.003  -6.659  -3.344  1.00  0.00     0.099 C 
ENDBRANCH   5  17
BRANCH   1  23
HETATM   23  C3  UNL     1      -1.892  -1.432  -4.525  1.00  0.00     0.124 C 
BRANCH  23  24
HETATM   24  C2  UNL     1      -0.603  -0.687  -4.741  1.00  0.00     0.015 C 
HETATM   25  C1  UNL     1       0.036  -0.349  -3.409  1.00  0.00     0.006 C 
ENDBRANCH  23  24
ENDBRANCH   1  23
TORSDOF 7
ENDMDL
MODEL 3
REMARK VINA RESULT: -7.106318633      2.385      4.714
REMARK  7 active torsions:
REMARK  status: ('A' for Active; 'I' for Inactive)
REMARK    1  A    between atoms: C2_2  and  C3_3 
REMARK    2  A    between atoms: C3_3  and  N1_4 
REMARK       I    between atoms: N1_4  and  C4_6 
REMARK       I    between atoms: C4_6  and  N2_8 
REMARK    3  A    between atoms: N2_8  and  C5_9 
REMARK    4  A    between atoms: N2_8  and  C14_20 
REMARK    5  A    between atoms: C5_9  and  C6_10 
REMARK    6  A    between atoms: C9_13  and  C10_14 
REMARK    7  A    between atoms: C10_14  and  C11_15 
ROOT
HETATM    1  N1  UNL     1      -1.889  -7.236  -3.292  1.00  0.00    -0.343 N 
ATOM      2  H1  UNL     1      -2.040  -7.441  -4.280  1.00  0.00     0.164 HD
HETATM    3  C4  UNL     1      -1.532  -5.921  -2.910  1.00  0.00     0.318 C 
HETATM    4  O1  UNL     1      -1.355  -5.685  -1.706  1.00  0.00    -0.247 OA
HETATM    5  N2  UNL     1      -1.373  -4.864  -3.855  1.00  0.00    -0.328 N 
ENDROOT
BRANCH   5   6
HETATM    6  C5  UNL     1      -1.519  -5.157  -5.260  1.00  0.00     0.132 C 
BRANCH   6   7
HETATM    7  C6  UNL     1      -2.619  -6.062  -5.665  1.00  0.00     0.004 C 
HETATM    8  C7  UNL     1      -2.262  -6.530  -7.087  1.00  0.00     0.006 C 
HETATM    9  C8  UNL     1      -2.987  -5.638  -8.066  1.00  0.00     0.005 C 
HETATM   10  C9  UNL     1      -4.473  -5.870  -8.064  1.00  0.00    -0.006 C 
HETATM   11  C12 UNL     1      -4.913  -6.197  -6.670  1.00  0.00     0.005 C 
HETATM   12  C13 UNL     1      -3.981  -5.431  -5.743  1.00  0.00     0.006 C 
BRANCH  10  13
HETATM   13  C10 UNL     1      -4.828  -6.958  -9.052  1.00  0.00     0.104 C 
BRANCH  13  14
HETATM   14  C11 UNL     1      -6.283  -7.096  -9.152  1.00  0.00     0.231 C 
HETATM   15  N3  UNL     1      -6.989  -8.195  -8.611  1.00  0.00    -0.062 NA
HETATM   16  O2  UNL     1      -6.946  -6.193  -9.749  1.00  0.00    -0.277 OA
ENDBRANCH  13  14
ENDBRANCH  10  13
ENDBRANCH   6   7
ENDBRANCH   5   6
BRANCH   5  17
HETATM   17  C14 UNL     1      -1.047  -3.522  -3.479  1.00  0.00     0.098 C 
HETATM   18  C15 UNL     1       0.380  -3.212  -3.263  1.00  0.00     0.027 C 
HETATM   19  C16 UNL     1       0.740  -1.764  -3.406  1.00  0.00     0.012 C 
HETATM   20  C17 UNL     1      -0.173  -0.803  -2.708  1.00  0.00     0.074 C 
HETATM   21  S1  UNL     1      -1.797  -0.964  -3.561  1.00  0.00    -0.167 SA
HETATM   22  C18 UNL     1      -1.618  -2.522  -4.509  1.00  0.00     0.099 C 
ENDBRANCH   5  17
BRANCH   1  23
HETATM   23  C3  UNL     1      -2.047  -8.298  -2.325  1.00  0.00     0.124 C 
BRANCH  23  24
HETATM   24  C2  UNL     1      -1.648  -9.636  -2.885  1.00  0.00     0.015 C 
HETATM   25  C1  UNL     1      -1.246  -9.495  -4.340  1.00  0.00     0.006 C 
ENDBRANCH  23  24
ENDBRANCH   1  23
TORSDOF 7
ENDMDL
MODEL 4
REMARK VINA RESULT: -7.050713760      1.225      1.302
REMARK  7 active torsions:
REMARK  status: ('A' for Active; 'I' for Inactive)
REMARK    1  A    between atoms: C2_2  and  C3_3 
REMARK    2  A    between atoms: C3_3  and  N1_4 
REMARK       I    between atoms: N1_4  and  C4_6 
REMARK       I    between atoms: C4_6  and  N2_8 
REMARK    3  A    between atoms: N2_8  and  C5_9 
REMARK    4  A    between atoms: N2_8  and  C14_20 
REMARK    5  A    between atoms: C5_9  and  C6_10 
REMARK    6  A    between atoms: C9_13  and  C10_14 
REMARK    7  A    between atoms: C10_14  and  C11_15 
ROOT
HETATM    1  N1  UNL     1      -3.205  -5.368  -5.404  1.00  0.00    -0.343 N 
ATOM      2  H1  UNL     1      -2.469  -5.989  -5.740  1.00  0.00     0.164 HD
HETATM    3  C4  UNL     1      -2.846  -4.205  -4.681  1.00  0.00     0.318 C 
HETATM    4  O1  UNL     1      -3.750  -3.457  -4.281  1.00  0.00    -0.247 OA
HETATM    5  N2  UNL     1      -1.489  -3.864  -4.402  1.00  0.00    -0.328 N 
ENDROOT
BRANCH   5   6
HETATM    6  C5  UNL     1      -0.444  -4.768  -4.816  1.00  0.00     0.132 C 
BRANCH   6   7
HETATM    7  C6  UNL     1      -0.029  -5.826  -3.866  1.00  0.00     0.004 C 
HETATM    8  C7  UNL     1      -0.149  -7.147  -4.646  1.00  0.00     0.006 C 
HETATM    9  C8  UNL     1      -1.495  -7.754  -4.329  1.00  0.00     0.005 C 
HETATM   10  C9  UNL     1      -1.579  -8.260  -2.915  1.00  0.00    -0.006 C 
HETATM   11  C12 UNL     1      -0.784  -7.354  -2.026  1.00  0.00     0.005 C 
HETATM   12  C13 UNL     1      -0.886  -5.965  -2.639  1.00  0.00     0.006 C 
BRANCH  10  13
HETATM   13  C10 UNL     1      -1.105  -9.694  -2.850  1.00  0.00     0.104 C 
BRANCH  13  14
HETATM   14  C11 UNL     1      -0.919 -10.103  -1.455  1.00  0.00     0.231 C 
HETATM   15  N3  UNL     1       0.346 -10.418  -0.909  1.00  0.00    -0.062 NA
HETATM   16  O2  UNL     1      -1.935 -10.178  -0.697  1.00  0.00    -0.277 OA
ENDBRANCH  13  14
ENDBRANCH  10  13
ENDBRANCH   6   7
ENDBRANCH   5   6
BRANCH   5  17
HETATM   17  C14 UNL     1      -1.109  -2.674  -3.703  1.00  0.00     0.098 C 
HETATM   18  C15 UNL     1       0.247  -2.638  -3.124  1.00  0.00     0.027 C 
HETATM   19  C16 UNL     1       0.799  -1.264  -2.893  1.00  0.00     0.012 C 
HETATM   20  C17 UNL     1      -0.138  -0.298  -2.233  1.00  0.00     0.074 C 
HETATM   21  S1  UNL     1      -1.512  -0.052  -3.434  1.00  0.00    -0.167 SA
HETATM   22  C18 UNL     1      -1.291  -1.438  -4.611  1.00  0.00     0.099 C 
ENDBRANCH   5  17
BRANCH   1  23
HETATM   23  C3  UNL     1      -4.584  -5.702  -5.679  1.00  0.00     0.124 C 
BRANCH  23  24
HETATM   24  C2  UNL     1      -4.777  -6.182  -7.092  1.00  0.00     0.015 C 
HETATM   25  C1  UNL     1      -3.441  -6.263  -7.804  1.00  0.00     0.006 C 
ENDBRANCH  23  24
ENDBRANCH   1  23
TORSDOF 7
ENDMDL
MODEL 5
REMARK VINA RESULT: -6.934212381      3.359      6.460
REMARK  7 active torsions:
REMARK  status: ('A' for Active; 'I' for Inactive)
REMARK    1  A    between atoms: C2_2  and  C3_3 
REMARK    2  A    between atoms: C3_3  and  N1_4 
REMARK       I    between atoms: N1_4  and  C4_6 
REMARK       I    between atoms: C4_6  and  N2_8 
REMARK    3  A    between atoms: N2_8  and  C5_9 
REMARK    4  A    between atoms: N2_8  and  C14_20 
REMARK    5  A    between atoms: C5_9  and  C6_10 
REMARK    6  A    between atoms: C9_13  and  C10_14 
REMARK    7  A    between atoms: C10_14  and  C11_15 
ROOT
HETATM    1  N1  UNL     1       2.794  -1.274  -2.346  1.00  0.00    -0.343 N 
ATOM      2  H1  UNL     1       2.301  -2.164  -2.277  1.00  0.00     0.164 HD
HETATM    3  C4  UNL     1       2.042  -0.079  -2.451  1.00  0.00     0.318 C 
HETATM    4  O1  UNL     1       2.653   0.997  -2.531  1.00  0.00    -0.247 OA
HETATM    5  N2  UNL     1       0.615  -0.069  -2.463  1.00  0.00    -0.328 N 
ENDROOT
BRANCH   5   6
HETATM    6  C5  UNL     1      -0.091  -1.327  -2.431  1.00  0.00     0.132 C 
BRANCH   6   7
HETATM    7  C6  UNL     1      -0.218  -2.079  -3.700  1.00  0.00     0.004 C 
HETATM    8  C7  UNL     1      -1.702  -1.973  -4.093  1.00  0.00     0.006 C 
HETATM    9  C8  UNL     1      -2.405  -3.212  -3.592  1.00  0.00     0.005 C 
HETATM   10  C9  UNL     1      -2.006  -4.447  -4.352  1.00  0.00    -0.006 C 
HETATM   11  C12 UNL     1      -0.561  -4.340  -4.730  1.00  0.00     0.005 C 
HETATM   12  C13 UNL     1       0.108  -3.544  -3.619  1.00  0.00     0.006 C 
BRANCH  10  13
HETATM   13  C10 UNL     1      -2.905  -4.627  -5.554  1.00  0.00     0.104 C 
BRANCH  13  14
HETATM   14  C11 UNL     1      -3.626  -5.900  -5.462  1.00  0.00     0.231 C 
HETATM   15  N3  UNL     1      -4.900  -6.105  -6.038  1.00  0.00    -0.062 NA
HETATM   16  O2  UNL     1      -3.087  -6.866  -4.838  1.00  0.00    -0.277 OA
ENDBRANCH  13  14
ENDBRANCH  10  13
ENDBRANCH   6   7
ENDBRANCH   5   6
BRANCH   5  17
HETATM   17  C14 UNL     1      -0.158   1.134  -2.533  1.00  0.00     0.098 C 
HETATM   18  C15 UNL     1      -0.507   1.632  -3.877  1.00  0.00     0.027 C 
HETATM   19  C16 UNL     1      -1.710   2.524  -3.927  1.00  0.00     0.012 C 
HETATM   20  C17 UNL     1      -1.758   3.597  -2.882  1.00  0.00     0.074 C 
HETATM   21  S1  UNL     1      -1.904   2.709  -1.276  1.00  0.00    -0.167 SA
HETATM   22  C18 UNL     1      -1.456   0.986  -1.709  1.00  0.00     0.099 C 
ENDBRANCH   5  17
BRANCH   1  23
HETATM   23  C3  UNL     1       4.239  -1.269  -2.335  1.00  0.00     0.124 C 
BRANCH  23  24
HETATM   24  C2  UNL     1       4.795  -1.663  -0.993  1.00  0.00     0.015 C 
HETATM   25  C1  UNL     1       6.164  -1.044  -0.793  1.00  0.00     0.006 C 
ENDBRANCH  23  24
ENDBRANCH   1  23
TORSDOF 7
ENDMDL
