MODEL 1
REMARK VINA RESULT: -9.007073836      0.000      0.000
REMARK  8 active torsions:
REMARK  status: ('A' for Active; 'I' for Inactive)
REMARK    1  A    between atoms: C1_2  and  C2_3 
REMARK       I    between atoms: C1_2  and  N2_16 
REMARK    2  A    between atoms: C2_3  and  C3_4 
REMARK    3  A    between atoms: C3_4  and  C4_5 
REMARK    4  A    between atoms: C4_5  and  C5_6 
REMARK    5  A    between atoms: C5_6  and  C6_7 
REMARK       I    between atoms: C6_7  and  N1_9 
REMARK    6  A    between atoms: N2_16  and  C13_18 
REMARK    7  A    between atoms: C13_18  and  N3_20 
REMARK    8  A    between atoms: N3_20  and  C14_22 
ROOT
HETATM    1  O1  UNL     1      -7.817  -8.373 -10.790  1.00  0.00    -0.273 OA
HETATM    2  C1  UNL     1      -7.498  -7.631  -9.834  1.00  0.00     0.223 C 
HETATM    3  N2  UNL     1      -8.335  -7.521  -8.706  1.00  0.00    -0.304 N 
ATOM      4  H2  UNL     1      -8.040  -6.906  -7.947  1.00  0.00     0.171 HD
ENDROOT
BRANCH   2   5
HETATM    5  C2  UNL     1      -6.230  -6.872  -9.900  1.00  0.00     0.103 C 
BRANCH   5   6
HETATM    6  C3  UNL     1      -5.525  -6.872  -8.576  1.00  0.00     0.010 C 
BRANCH   6   7
HETATM    7  C4  UNL     1      -4.215  -6.134  -8.580  1.00  0.00     0.010 C 
BRANCH   7   8
HETATM    8  C5  UNL     1      -3.334  -6.459  -7.415  1.00  0.00     0.103 C 
BRANCH   8   9
HETATM    9  C6  UNL     1      -3.548  -5.542  -6.273  1.00  0.00     0.219 C 
HETATM   10  O2  UNL     1      -4.711  -5.345  -5.854  1.00  0.00    -0.273 OA
HETATM   11  N1  UNL     1      -2.483  -4.866  -5.625  1.00  0.00    -0.352 N 
HETATM   12  C7  UNL     1      -2.807  -3.990  -4.517  1.00  0.00     0.125 C 
HETATM   13  C12 UNL     1      -1.131  -5.096  -6.116  1.00  0.00     0.125 C 
HETATM   14  C8  UNL     1      -1.844  -4.179  -3.356  1.00  0.00     0.020 C 
HETATM   15  C9  UNL     1      -0.450  -3.771  -3.698  1.00  0.00     0.002 C 
HETATM   16  C10 UNL     1       0.414  -4.867  -4.225  1.00  0.00     0.002 C 
HETATM   17  C11 UNL     1      -0.391  -5.852  -5.047  1.00  0.00     0.020 C 
ENDBRANCH   8   9
ENDBRANCH   7   8
ENDBRANCH   6   7
ENDBRANCH   5   6
ENDBRANCH   2   5
BRANCH   3  18
HETATM   18  C13 UNL     1      -9.571  -8.217  -8.562  1.00  0.00     0.174 C 
HETATM   19  S1  UNL     1      -9.933  -8.809  -7.090  1.00  0.00    -0.041 SA
BRANCH  18  20
HETATM   20  N3  UNL     1     -10.423  -8.379  -9.661  1.00  0.00    -0.362 N 
ATOM     21  H3  UNL     1      -9.976  -8.387 -10.578  1.00  0.00     0.162 HD
BRANCH  20  22
HETATM   22  C14 UNL     1     -11.850  -8.533  -9.654  1.00  0.00     0.083 C 
HETATM   23  C15 UNL     1     -12.263  -9.972  -9.724  1.00  0.00     0.025 C 
HETATM   24  C16 UNL     1     -13.689  -9.911 -10.252  1.00  0.00     0.002 C 
HETATM   25  C17 UNL     1     -13.560  -8.875 -11.339  1.00  0.00     0.002 C 
HETATM   26  C18 UNL     1     -12.558  -7.876 -10.799  1.00  0.00     0.025 C 
ENDBRANCH  20  22
ENDBRANCH  18  20
ENDBRANCH   3  18
TORSDOF 8
ENDMDL
MODEL 2
REMARK VINA RESULT: -8.886954169      3.201     10.686
REMARK  8 active torsions:
REMARK  status: ('A' for Active; 'I' for Inactive)
REMARK    1  A    between atoms: C1_2  and  C2_3 
REMARK       I    between atoms: C1_2  and  N2_16 
REMARK    2  A    between atoms: C2_3  and  C3_4 
REMARK    3  A    between atoms: C3_4  and  C4_5 
REMARK    4  A    between atoms: C4_5  and  C5_6 
REMARK    5  A    between atoms: C5_6  and  C6_7 
REMARK       I    between atoms: C6_7  and  N1_9 
REMARK    6  A    between atoms: N2_16  and  C13_18 
REMARK    7  A    between atoms: C13_18  and  N3_20 
REMARK    8  A    between atoms: N3_20  and  C14_22 
ROOT
HETATM    1  O1  UNL     1       0.150  -5.245  -6.222  1.00  0.00    -0.273 OA
HETATM    2  C1  UNL     1      -1.027  -5.049  -6.596  1.00  0.00     0.223 C 
HETATM    3  N2  UNL     1      -1.866  -4.168  -5.885  1.00  0.00    -0.304 N 
ATOM      4  H2  UNL     1      -2.819  -4.035  -6.222  1.00  0.00     0.171 HD
ENDROOT
BRANCH   2   5
HETATM    5  C2  UNL     1      -1.530  -5.753  -7.796  1.00  0.00     0.103 C 
BRANCH   5   6
HETATM    6  C3  UNL     1      -2.953  -5.380  -8.090  1.00  0.00     0.010 C 
BRANCH   6   7
HETATM    7  C4  UNL     1      -3.945  -6.469  -7.785  1.00  0.00     0.010 C 
BRANCH   7   8
HETATM    8  C5  UNL     1      -5.069  -6.556  -8.770  1.00  0.00     0.103 C 
BRANCH   8   9
HETATM    9  C6  UNL     1      -6.365  -6.855  -8.122  1.00  0.00     0.219 C 
HETATM   10  O2  UNL     1      -6.609  -6.379  -6.990  1.00  0.00    -0.273 OA
HETATM   11  N1  UNL     1      -7.355  -7.667  -8.731  1.00  0.00    -0.352 N 
HETATM   12  C7  UNL     1      -8.589  -7.896  -8.005  1.00  0.00     0.125 C 
HETATM   13  C12 UNL     1      -7.068  -8.221 -10.047  1.00  0.00     0.125 C 
HETATM   14  C8  UNL     1      -9.802  -7.769  -8.912  1.00  0.00     0.020 C 
HETATM   15  C9  UNL     1      -9.841  -8.826  -9.964  1.00  0.00     0.002 C 
HETATM   16  C10 UNL     1      -9.190  -8.454 -11.254  1.00  0.00     0.002 C 
HETATM   17  C11 UNL     1      -7.995  -7.553 -11.024  1.00  0.00     0.020 C 
ENDBRANCH   8   9
ENDBRANCH   7   8
ENDBRANCH   6   7
ENDBRANCH   5   6
ENDBRANCH   2   5
BRANCH   3  18
HETATM   18  C13 UNL     1      -1.460  -3.451  -4.721  1.00  0.00     0.174 C 
HETATM   19  S1  UNL     1      -1.846  -4.087  -3.274  1.00  0.00    -0.041 SA
BRANCH  18  20
HETATM   20  N3  UNL     1      -0.762  -2.243  -4.842  1.00  0.00    -0.362 N 
ATOM     21  H3  UNL     1      -0.052  -2.207  -5.574  1.00  0.00     0.162 HD
BRANCH  20  22
HETATM   22  C14 UNL     1      -0.924  -1.050  -4.061  1.00  0.00     0.083 C 
HETATM   23  C15 UNL     1      -0.846   0.189  -4.900  1.00  0.00     0.025 C 
HETATM   24  C16 UNL     1      -0.485   1.278  -3.900  1.00  0.00     0.002 C 
HETATM   25  C17 UNL     1       0.570   0.586  -3.076  1.00  0.00     0.002 C 
HETATM   26  C18 UNL     1       0.110  -0.854  -2.994  1.00  0.00     0.025 C 
ENDBRANCH  20  22
ENDBRANCH  18  20
ENDBRANCH   3  18
TORSDOF 8
ENDMDL
MODEL 3
REMARK VINA RESULT: -8.785120207      3.139     10.136
REMARK  8 active torsions:
REMARK  status: ('A' for Active; 'I' for Inactive)
REMARK    1  A    between atoms: C1_2  and  C2_3 
REMARK       I    between atoms: C1_2  and  N2_16 
REMARK    2  A    between atoms: C2_3  and  C3_4 
REMARK    3  A    between atoms: C3_4  and  C4_5 
REMARK    4  A    between atoms: C4_5  and  C5_6 
REMARK    5  A    between atoms: C5_6  and  C6_7 
REMARK       I    between atoms: C6_7  and  N1_9 
REMARK    6  A    between atoms: N2_16  and  C13_18 
REMARK    7  A    between atoms: C13_18  and  N3_20 
REMARK    8  A    between atoms: N3_20  and  C14_22 
ROOT
HETATM    1  O1  UNL     1       0.220  -5.335  -6.295  1.00  0.00    -0.273 OA
HETATM    2  C1  UNL     1      -0.970  -5.093  -6.596  1.00  0.00     0.223 C 
HETATM    3  N2  UNL     1      -1.757  -4.257  -5.779  1.00  0.00    -0.304 N 
ATOM      4  H2  UNL     1      -2.723  -4.084  -6.059  1.00  0.00     0.171 HD
ENDROOT
BRANCH   2   5
HETATM    5  C2  UNL     1      -1.541  -5.693  -7.822  1.00  0.00     0.103 C 
BRANCH   5   6
HETATM    6  C3  UNL     1      -2.981  -5.310  -7.995  1.00  0.00     0.010 C 
BRANCH   6   7
HETATM    7  C4  UNL     1      -3.949  -6.422  -7.700  1.00  0.00     0.010 C 
BRANCH   7   8
HETATM    8  C5  UNL     1      -5.058  -6.539  -8.698  1.00  0.00     0.103 C 
BRANCH   8   9
HETATM    9  C6  UNL     1      -6.358  -6.849  -8.062  1.00  0.00     0.219 C 
HETATM   10  O2  UNL     1      -6.613  -6.383  -6.928  1.00  0.00    -0.273 OA
HETATM   11  N1  UNL     1      -7.340  -7.660  -8.686  1.00  0.00    -0.352 N 
HETATM   12  C7  UNL     1      -8.579  -7.899  -7.971  1.00  0.00     0.125 C 
HETATM   13  C12 UNL     1      -7.041  -8.201 -10.005  1.00  0.00     0.125 C 
HETATM   14  C8  UNL     1      -9.785  -7.769  -8.887  1.00  0.00     0.020 C 
HETATM   15  C9  UNL     1      -9.812  -8.818  -9.948  1.00  0.00     0.002 C 
HETATM   16  C10 UNL     1      -9.153  -8.431 -11.230  1.00  0.00     0.002 C 
HETATM   17  C11 UNL     1      -7.963  -7.528 -10.983  1.00  0.00     0.020 C 
ENDBRANCH   8   9
ENDBRANCH   7   8
ENDBRANCH   6   7
ENDBRANCH   5   6
ENDBRANCH   2   5
BRANCH   3  18
HETATM   18  C13 UNL     1      -1.285  -3.640  -4.584  1.00  0.00     0.174 C 
HETATM   19  S1  UNL     1      -1.605  -2.058  -4.379  1.00  0.00    -0.041 SA
BRANCH  18  20
HETATM   20  N3  UNL     1      -0.569  -4.384  -3.639  1.00  0.00    -0.362 N 
ATOM     21  H3  UNL     1       0.390  -4.082  -3.463  1.00  0.00     0.162 HD
BRANCH  20  22
HETATM   22  C14 UNL     1      -1.020  -5.521  -2.888  1.00  0.00     0.083 C 
HETATM   23  C15 UNL     1      -0.871  -5.318  -1.411  1.00  0.00     0.025 C 
HETATM   24  C16 UNL     1      -0.856  -6.733  -0.853  1.00  0.00     0.002 C 
HETATM   25  C17 UNL     1       0.042  -7.432  -1.840  1.00  0.00     0.002 C 
HETATM   26  C18 UNL     1      -0.285  -6.795  -3.175  1.00  0.00     0.025 C 
ENDBRANCH  20  22
ENDBRANCH  18  20
ENDBRANCH   3  18
TORSDOF 8
ENDMDL
MODEL 4
REMARK VINA RESULT: -8.733691872      1.175      1.704
REMARK  8 active torsions:
REMARK  status: ('A' for Active; 'I' for Inactive)
REMARK    1  A    between atoms: C1_2  and  C2_3 
REMARK       I    between atoms: C1_2  and  N2_16 
REMARK    2  A    between atoms: C2_3  and  C3_4 
REMARK    3  A    between atoms: C3_4  and  C4_5 
REMARK    4  A    between atoms: C4_5  and  C5_6 
REMARK    5  A    between atoms: C5_6  and  C6_7 
REMARK       I    between atoms: C6_7  and  N1_9 
REMARK    6  A    between atoms: N2_16  and  C13_18 
REMARK    7  A    between atoms: C13_18  and  N3_20 
REMARK    8  A    between atoms: N3_20  and  C14_22 
ROOT
HETATM    1  O1  UNL     1      -6.934  -8.842  -9.442  1.00  0.00    -0.273 OA
HETATM    2  C1  UNL     1      -7.139  -7.658  -9.094  1.00  0.00     0.223 C 
HETATM    3  N2  UNL     1      -8.372  -7.285  -8.523  1.00  0.00    -0.304 N 
ATOM      4  H2  UNL     1      -8.501  -6.311  -8.252  1.00  0.00     0.171 HD
ENDROOT
BRANCH   2   5
HETATM    5  C2  UNL     1      -6.071  -6.653  -9.285  1.00  0.00     0.103 C 
BRANCH   5   6
HETATM    6  C3  UNL     1      -5.152  -6.601  -8.100  1.00  0.00     0.010 C 
BRANCH   6   7
HETATM    7  C4  UNL     1      -3.709  -6.372  -8.455  1.00  0.00     0.010 C 
BRANCH   7   8
HETATM    8  C5  UNL     1      -3.125  -5.137  -7.845  1.00  0.00     0.103 C 
BRANCH   8   9
HETATM    9  C6  UNL     1      -1.834  -5.398  -7.169  1.00  0.00     0.219 C 
HETATM   10  O2  UNL     1      -0.835  -5.713  -7.856  1.00  0.00    -0.273 OA
HETATM   11  N1  UNL     1      -1.675  -5.307  -5.764  1.00  0.00    -0.352 N 
HETATM   12  C7  UNL     1      -0.366  -5.584  -5.207  1.00  0.00     0.125 C 
HETATM   13  C12 UNL     1      -2.839  -4.941  -4.968  1.00  0.00     0.125 C 
HETATM   14  C8  UNL     1       0.015  -4.568  -4.143  1.00  0.00     0.020 C 
HETATM   15  C9  UNL     1      -0.870  -4.639  -2.943  1.00  0.00     0.002 C 
HETATM   16  C10 UNL     1      -2.054  -3.732  -2.983  1.00  0.00     0.002 C 
HETATM   17  C11 UNL     1      -2.577  -3.575  -4.396  1.00  0.00     0.020 C 
ENDBRANCH   8   9
ENDBRANCH   7   8
ENDBRANCH   6   7
ENDBRANCH   5   6
ENDBRANCH   2   5
BRANCH   3  18
HETATM   18  C13 UNL     1      -9.452  -8.190  -8.303  1.00  0.00     0.174 C 
HETATM   19  S1  UNL     1      -9.721  -8.681  -6.775  1.00  0.00    -0.041 SA
BRANCH  18  20
HETATM   20  N3  UNL     1     -10.234  -8.632  -9.377  1.00  0.00    -0.362 N 
ATOM     21  H3  UNL     1      -9.725  -8.948 -10.202  1.00  0.00     0.162 HD
BRANCH  20  22
HETATM   22  C14 UNL     1     -11.666  -8.693  -9.457  1.00  0.00     0.083 C 
HETATM   23  C15 UNL     1     -12.167 -10.102  -9.544  1.00  0.00     0.025 C 
HETATM   24  C16 UNL     1     -13.551  -9.954 -10.159  1.00  0.00     0.002 C 
HETATM   25  C17 UNL     1     -13.288  -8.940 -11.242  1.00  0.00     0.002 C 
HETATM   26  C18 UNL     1     -12.258  -8.003 -10.648  1.00  0.00     0.025 C 
ENDBRANCH  20  22
ENDBRANCH  18  20
ENDBRANCH   3  18
TORSDOF 8
ENDMDL
MODEL 5
REMARK VINA RESULT: -8.661031192      2.605     10.501
REMARK  8 active torsions:
REMARK  status: ('A' for Active; 'I' for Inactive)
REMARK    1  A    between atoms: C1_2  and  C2_3 
REMARK       I    between atoms: C1_2  and  N2_16 
REMARK    2  A    between atoms: C2_3  and  C3_4 
REMARK    3  A    between atoms: C3_4  and  C4_5 
REMARK    4  A    between atoms: C4_5  and  C5_6 
REMARK    5  A    between atoms: C5_6  and  C6_7 
REMARK       I    between atoms: C6_7  and  N1_9 
REMARK    6  A    between atoms: N2_16  and  C13_18 
REMARK    7  A    between atoms: C13_18  and  N3_20 
REMARK    8  A    between atoms: N3_20  and  C14_22 
ROOT
HETATM    1  O1  UNL     1      -3.942  -4.620  -5.061  1.00  0.00    -0.273 OA
HETATM    2  C1  UNL     1      -3.588  -5.432  -5.945  1.00  0.00     0.223 C 
HETATM    3  N2  UNL     1      -2.222  -5.713  -6.150  1.00  0.00    -0.304 N 
ATOM      4  H2  UNL     1      -1.974  -6.380  -6.880  1.00  0.00     0.171 HD
ENDROOT
BRANCH   2   5
HETATM    5  C2  UNL     1      -4.620  -6.095  -6.771  1.00  0.00     0.103 C 
BRANCH   5   6
HETATM    6  C3  UNL     1      -4.157  -6.263  -8.188  1.00  0.00     0.010 C 
BRANCH   6   7
HETATM    7  C4  UNL     1      -5.271  -6.501  -9.171  1.00  0.00     0.010 C 
BRANCH   7   8
HETATM    8  C5  UNL     1      -6.446  -7.224  -8.589  1.00  0.00     0.103 C 
BRANCH   8   9
HETATM    9  C6  UNL     1      -7.457  -7.570  -9.613  1.00  0.00     0.219 C 
HETATM   10  O2  UNL     1      -7.109  -7.664 -10.812  1.00  0.00    -0.273 OA
HETATM   11  N1  UNL     1      -8.818  -7.803  -9.294  1.00  0.00    -0.352 N 
HETATM   12  C7  UNL     1      -9.724  -8.135 -10.376  1.00  0.00     0.125 C 
HETATM   13  C12 UNL     1      -9.221  -7.691  -7.898  1.00  0.00     0.125 C 
HETATM   14  C8  UNL     1     -10.651  -9.278  -9.997  1.00  0.00     0.020 C 
HETATM   15  C9  UNL     1     -11.585  -8.913  -8.891  1.00  0.00     0.002 C 
HETATM   16  C10 UNL     1     -11.090  -9.234  -7.520  1.00  0.00     0.002 C 
HETATM   17  C11 UNL     1      -9.587  -9.072  -7.428  1.00  0.00     0.020 C 
ENDBRANCH   8   9
ENDBRANCH   7   8
ENDBRANCH   6   7
ENDBRANCH   5   6
ENDBRANCH   2   5
BRANCH   3  18
HETATM   18  C13 UNL     1      -1.167  -5.119  -5.398  1.00  0.00     0.174 C 
HETATM   19  S1  UNL     1      -0.241  -6.106  -4.495  1.00  0.00    -0.041 SA
BRANCH  18  20
HETATM   20  N3  UNL     1      -0.956  -3.736  -5.445  1.00  0.00    -0.362 N 
ATOM     21  H3  UNL     1      -0.714  -3.350  -6.358  1.00  0.00     0.162 HD
BRANCH  20  22
HETATM   22  C14 UNL     1      -1.039  -2.795  -4.364  1.00  0.00     0.083 C 
HETATM   23  C15 UNL     1      -1.285  -1.398  -4.848  1.00  0.00     0.025 C 
HETATM   24  C16 UNL     1      -0.800  -0.529  -3.698  1.00  0.00     0.002 C 
HETATM   25  C17 UNL     1       0.484  -1.222  -3.322  1.00  0.00     0.002 C 
HETATM   26  C18 UNL     1       0.197  -2.695  -3.523  1.00  0.00     0.025 C 
ENDBRANCH  20  22
ENDBRANCH  18  20
ENDBRANCH   3  18
TORSDOF 8
ENDMDL
