MODEL 1
REMARK VINA RESULT: -7.859771853      0.000      0.000
REMARK  7 active torsions:
REMARK  status: ('A' for Active; 'I' for Inactive)
REMARK    1  A    between atoms: N1_2  and  C2_5 
REMARK    2  A    between atoms: C2_5  and  C3_6 
REMARK    3  A    between atoms: C3_6  and  C4_7 
REMARK    4  A    between atoms: C4_7  and  N2_8 
REMARK       I    between atoms: N2_8  and  C5_10 
REMARK    5  A    between atoms: C5_10  and  C6_12 
REMARK    6  A    between atoms: C6_12  and  C7_13 
REMARK    7  A    between atoms: C6_12  and  N3_18 
ROOT
HETATM    1  C6  UNL     1      -1.908  -4.870  -5.470  1.00  0.00     0.318 C 
ENDROOT
BRANCH   1   2
HETATM    2  C5  UNL     1      -2.224  -3.464  -4.934  1.00  0.00     0.251 C 
HETATM    3  N2  UNL     1      -1.303  -2.449  -5.198  1.00  0.00    -0.359 N 
ATOM      4  H2  UNL     1      -0.465  -2.683  -5.731  1.00  0.00     0.162 HD
HETATM    5  O1  UNL     1      -3.266  -3.287  -4.296  1.00  0.00    -0.271 OA
BRANCH   3   6
HETATM    6  C4  UNL     1      -1.476  -1.076  -4.753  1.00  0.00     0.124 C 
BRANCH   6   7
HETATM    7  C3  UNL     1      -0.230  -0.544  -4.095  1.00  0.00     0.047 C 
BRANCH   7   8
HETATM    8  C2  UNL     1       0.251  -1.626  -3.134  1.00  0.00     0.233 C 
BRANCH   8   9
HETATM    9  N1  UNL     1       1.616  -1.995  -3.359  1.00  0.00    -0.079 N 
HETATM   10  C1  UNL     1       2.524  -1.242  -2.505  1.00  0.00     0.266 C 
ATOM     11  H12 UNL     1       1.870  -1.904  -4.343  1.00  0.00     0.276 HD
ATOM     12  H11 UNL     1       1.753  -3.000  -3.253  1.00  0.00     0.276 HD
ENDBRANCH   8   9
ENDBRANCH   7   8
ENDBRANCH   6   7
ENDBRANCH   3   6
ENDBRANCH   1   2
BRANCH   1  13
HETATM   13  C7  UNL     1      -2.976  -5.074  -6.474  1.00  0.00     0.028 C 
HETATM   14  C8  UNL     1      -2.382  -5.733  -7.727  1.00  0.00     0.007 C 
HETATM   15  C9  UNL     1      -3.599  -6.198  -8.513  1.00  0.00     0.000 C 
HETATM   16  C10 UNL     1      -4.738  -6.315  -7.529  1.00  0.00     0.000 C 
HETATM   17  C11 UNL     1      -4.164  -5.897  -6.161  1.00  0.00     0.007 C 
ENDBRANCH   1  13
BRANCH   1  18
HETATM   18  N3  UNL     1      -1.967  -5.756  -4.303  1.00  0.00     0.102 N 
HETATM   19  C12 UNL     1      -0.813  -5.421  -3.430  1.00  0.00     0.274 C 
HETATM   20  C13 UNL     1      -0.198  -6.590  -2.757  1.00  0.00     0.040 C 
HETATM   21  C14 UNL     1      -1.128  -7.677  -2.338  1.00  0.00    -0.037 C 
HETATM   22  C15 UNL     1      -1.831  -7.279  -1.056  1.00  0.00     0.010 C 
HETATM   23  C19 UNL     1      -0.280  -8.927  -2.089  1.00  0.00     0.010 C 
HETATM   24  C20 UNL     1      -2.104  -7.998  -3.417  1.00  0.00     0.040 C 
HETATM   25  C16 UNL     1      -2.394  -8.491  -0.340  1.00  0.00     0.001 C 
HETATM   26  C17 UNL     1      -1.251  -9.309   0.194  1.00  0.00     0.000 C 
HETATM   27  C18 UNL     1       0.005  -9.095  -0.612  1.00  0.00     0.001 C 
HETATM   28  C21 UNL     1      -1.724  -7.138  -4.646  1.00  0.00     0.274 C 
ENDBRANCH   1  18
TORSDOF 7
ENDMDL
MODEL 2
REMARK VINA RESULT: -7.805098863      1.055      1.504
REMARK  7 active torsions:
REMARK  status: ('A' for Active; 'I' for Inactive)
REMARK    1  A    between atoms: N1_2  and  C2_5 
REMARK    2  A    between atoms: C2_5  and  C3_6 
REMARK    3  A    between atoms: C3_6  and  C4_7 
REMARK    4  A    between atoms: C4_7  and  N2_8 
REMARK       I    between atoms: N2_8  and  C5_10 
REMARK    5  A    between atoms: C5_10  and  C6_12 
REMARK    6  A    between atoms: C6_12  and  C7_13 
REMARK    7  A    between atoms: C6_12  and  N3_18 
ROOT
HETATM    1  C6  UNL     1      -1.811  -4.958  -5.505  1.00  0.00     0.318 C 
ENDROOT
BRANCH   1   2
HETATM    2  C5  UNL     1      -2.025  -3.527  -4.983  1.00  0.00     0.251 C 
HETATM    3  N2  UNL     1      -1.016  -2.594  -5.225  1.00  0.00    -0.359 N 
ATOM      4  H2  UNL     1      -0.187  -2.899  -5.733  1.00  0.00     0.162 HD
HETATM    5  O1  UNL     1      -3.067  -3.261  -4.375  1.00  0.00    -0.271 OA
BRANCH   3   6
HETATM    6  C4  UNL     1      -1.088  -1.209  -4.789  1.00  0.00     0.124 C 
BRANCH   6   7
HETATM    7  C3  UNL     1      -0.042  -0.898  -3.751  1.00  0.00     0.047 C 
BRANCH   7   8
HETATM    8  C2  UNL     1      -0.071   0.612  -3.542  1.00  0.00     0.233 C 
BRANCH   8   9
HETATM    9  N1  UNL     1      -0.831   1.293  -4.546  1.00  0.00    -0.079 N 
HETATM   10  C1  UNL     1      -1.507   2.463  -4.005  1.00  0.00     0.266 C 
ATOM     11  H12 UNL     1      -1.487   0.663  -5.008  1.00  0.00     0.276 HD
ATOM     12  H11 UNL     1      -0.252   1.536  -5.350  1.00  0.00     0.276 HD
ENDBRANCH   8   9
ENDBRANCH   7   8
ENDBRANCH   6   7
ENDBRANCH   3   6
ENDBRANCH   1   2
BRANCH   1  13
HETATM   13  C7  UNL     1      -2.918  -5.109  -6.477  1.00  0.00     0.028 C 
HETATM   14  C8  UNL     1      -2.385  -5.759  -7.763  1.00  0.00     0.007 C 
HETATM   15  C9  UNL     1      -3.641  -6.171  -8.516  1.00  0.00     0.000 C 
HETATM   16  C10 UNL     1      -4.750  -6.276  -7.496  1.00  0.00     0.000 C 
HETATM   17  C11 UNL     1      -4.119  -5.904  -6.141  1.00  0.00     0.007 C 
ENDBRANCH   1  13
BRANCH   1  18
HETATM   18  N3  UNL     1      -1.892  -5.822  -4.324  1.00  0.00     0.102 N 
HETATM   19  C12 UNL     1      -0.703  -5.536  -3.481  1.00  0.00     0.274 C 
HETATM   20  C13 UNL     1      -0.136  -6.726  -2.802  1.00  0.00     0.040 C 
HETATM   21  C14 UNL     1      -1.113  -7.756  -2.346  1.00  0.00    -0.037 C 
HETATM   22  C15 UNL     1      -1.766  -7.302  -1.057  1.00  0.00     0.010 C 
HETATM   23  C19 UNL     1      -0.327  -9.045  -2.096  1.00  0.00     0.010 C 
HETATM   24  C20 UNL     1      -2.127  -8.040  -3.400  1.00  0.00     0.040 C 
HETATM   25  C16 UNL     1      -2.376  -8.472  -0.310  1.00  0.00     0.001 C 
HETATM   26  C17 UNL     1      -1.267  -9.341   0.213  1.00  0.00     0.000 C 
HETATM   27  C18 UNL     1      -0.019  -9.206  -0.622  1.00  0.00     0.001 C 
HETATM   28  C21 UNL     1      -1.730  -7.220  -4.650  1.00  0.00     0.274 C 
ENDBRANCH   1  18
TORSDOF 7
ENDMDL
MODEL 3
REMARK VINA RESULT: -7.804463423      0.950      1.100
REMARK  7 active torsions:
REMARK  status: ('A' for Active; 'I' for Inactive)
REMARK    1  A    between atoms: N1_2  and  C2_5 
REMARK    2  A    between atoms: C2_5  and  C3_6 
REMARK    3  A    between atoms: C3_6  and  C4_7 
REMARK    4  A    between atoms: C4_7  and  N2_8 
REMARK       I    between atoms: N2_8  and  C5_10 
REMARK    5  A    between atoms: C5_10  and  C6_12 
REMARK    6  A    between atoms: C6_12  and  C7_13 
REMARK    7  A    between atoms: C6_12  and  N3_18 
ROOT
HETATM    1  C6  UNL     1      -1.836  -4.959  -5.508  1.00  0.00     0.318 C 
ENDROOT
BRANCH   1   2
HETATM    2  C5  UNL     1      -2.049  -3.528  -4.987  1.00  0.00     0.251 C 
HETATM    3  N2  UNL     1      -1.067  -2.581  -5.281  1.00  0.00    -0.359 N 
ATOM      4  H2  UNL     1      -0.257  -2.876  -5.825  1.00  0.00     0.162 HD
HETATM    5  O1  UNL     1      -3.065  -3.274  -4.334  1.00  0.00    -0.271 OA
BRANCH   3   6
HETATM    6  C4  UNL     1      -1.141  -1.193  -4.852  1.00  0.00     0.124 C 
BRANCH   6   7
HETATM    7  C3  UNL     1      -0.332  -0.954  -3.604  1.00  0.00     0.047 C 
BRANCH   7   8
HETATM    8  C2  UNL     1      -1.332  -0.756  -2.469  1.00  0.00     0.233 C 
BRANCH   8   9
HETATM    9  N1  UNL     1      -1.659  -1.980  -1.803  1.00  0.00    -0.079 N 
HETATM   10  C1  UNL     1      -0.477  -2.618  -1.241  1.00  0.00     0.266 C 
ATOM     11  H12 UNL     1      -2.167  -2.615  -2.420  1.00  0.00     0.276 HD
ATOM     12  H11 UNL     1      -2.378  -1.838  -1.094  1.00  0.00     0.276 HD
ENDBRANCH   8   9
ENDBRANCH   7   8
ENDBRANCH   6   7
ENDBRANCH   3   6
ENDBRANCH   1   2
BRANCH   1  13
HETATM   13  C7  UNL     1      -2.949  -5.114  -6.472  1.00  0.00     0.028 C 
HETATM   14  C8  UNL     1      -2.428  -5.781  -7.753  1.00  0.00     0.007 C 
HETATM   15  C9  UNL     1      -3.692  -6.194  -8.494  1.00  0.00     0.000 C 
HETATM   16  C10 UNL     1      -4.794  -6.280  -7.467  1.00  0.00     0.000 C 
HETATM   17  C11 UNL     1      -4.153  -5.897  -6.120  1.00  0.00     0.007 C 
ENDBRANCH   1  13
BRANCH   1  18
HETATM   18  N3  UNL     1      -1.906  -5.822  -4.325  1.00  0.00     0.102 N 
HETATM   19  C12 UNL     1      -0.705  -5.542  -3.497  1.00  0.00     0.274 C 
HETATM   20  C13 UNL     1      -0.137  -6.733  -2.824  1.00  0.00     0.040 C 
HETATM   21  C14 UNL     1      -1.114  -7.757  -2.355  1.00  0.00    -0.037 C 
HETATM   22  C15 UNL     1      -1.748  -7.298  -1.057  1.00  0.00     0.010 C 
HETATM   23  C19 UNL     1      -0.332  -9.051  -2.113  1.00  0.00     0.010 C 
HETATM   24  C20 UNL     1      -2.143  -8.037  -3.395  1.00  0.00     0.040 C 
HETATM   25  C16 UNL     1      -2.355  -8.464  -0.301  1.00  0.00     0.001 C 
HETATM   26  C17 UNL     1      -1.244  -9.339   0.209  1.00  0.00     0.000 C 
HETATM   27  C18 UNL     1      -0.007  -9.212  -0.643  1.00  0.00     0.001 C 
HETATM   28  C21 UNL     1      -1.757  -7.221  -4.651  1.00  0.00     0.274 C 
ENDBRANCH   1  18
TORSDOF 7
ENDMDL
MODEL 4
REMARK VINA RESULT: -7.239523172      2.096      7.439
REMARK  7 active torsions:
REMARK  status: ('A' for Active; 'I' for Inactive)
REMARK    1  A    between atoms: N1_2  and  C2_5 
REMARK    2  A    between atoms: C2_5  and  C3_6 
REMARK    3  A    between atoms: C3_6  and  C4_7 
REMARK    4  A    between atoms: C4_7  and  N2_8 
REMARK       I    between atoms: N2_8  and  C5_10 
REMARK    5  A    between atoms: C5_10  and  C6_12 
REMARK    6  A    between atoms: C6_12  and  C7_13 
REMARK    7  A    between atoms: C6_12  and  N3_18 
ROOT
HETATM    1  C6  UNL     1      -1.576  -4.312  -4.261  1.00  0.00     0.318 C 
ENDROOT
BRANCH   1   2
HETATM    2  C5  UNL     1      -3.014  -4.515  -4.767  1.00  0.00     0.251 C 
HETATM    3  N2  UNL     1      -3.228  -5.512  -5.720  1.00  0.00    -0.359 N 
ATOM      4  H2  UNL     1      -2.428  -6.058  -6.038  1.00  0.00     0.162 HD
HETATM    5  O1  UNL     1      -3.913  -3.797  -4.320  1.00  0.00    -0.271 OA
BRANCH   3   6
HETATM    6  C4  UNL     1      -4.535  -5.811  -6.283  1.00  0.00     0.124 C 
BRANCH   6   7
HETATM    7  C3  UNL     1      -4.432  -6.263  -7.716  1.00  0.00     0.047 C 
BRANCH   7   8
HETATM    8  C2  UNL     1      -5.828  -6.717  -8.131  1.00  0.00     0.233 C 
BRANCH   8   9
HETATM    9  N1  UNL     1      -6.804  -6.503  -7.105  1.00  0.00    -0.079 N 
HETATM   10  C1  UNL     1      -7.983  -7.334  -7.305  1.00  0.00     0.266 C 
ATOM     11  H12 UNL     1      -7.052  -5.517  -7.028  1.00  0.00     0.276 HD
ATOM     12  H11 UNL     1      -6.405  -6.640  -6.177  1.00  0.00     0.276 HD
ENDBRANCH   8   9
ENDBRANCH   7   8
ENDBRANCH   6   7
ENDBRANCH   3   6
ENDBRANCH   1   2
BRANCH   1  13
HETATM   13  C7  UNL     1      -1.423  -5.420  -3.290  1.00  0.00     0.028 C 
HETATM   14  C8  UNL     1      -0.170  -6.237  -3.638  1.00  0.00     0.007 C 
HETATM   15  C9  UNL     1       0.066  -7.094  -2.403  1.00  0.00     0.000 C 
HETATM   16  C10 UNL     1      -0.630  -6.408  -1.253  1.00  0.00     0.000 C 
HETATM   17  C11 UNL     1      -1.286  -5.145  -1.843  1.00  0.00     0.007 C 
ENDBRANCH   1  13
BRANCH   1  18
HETATM   18  N3  UNL     1      -1.549  -2.964  -3.685  1.00  0.00     0.102 N 
HETATM   19  C12 UNL     1      -1.766  -2.001  -4.794  1.00  0.00     0.274 C 
HETATM   20  C13 UNL     1      -0.990  -0.745  -4.672  1.00  0.00     0.040 C 
HETATM   21  C14 UNL     1      -0.792  -0.221  -3.291  1.00  0.00    -0.037 C 
HETATM   22  C15 UNL     1      -2.051   0.485  -2.829  1.00  0.00     0.010 C 
HETATM   23  C19 UNL     1       0.364   0.780  -3.347  1.00  0.00     0.010 C 
HETATM   24  C20 UNL     1      -0.403  -1.310  -2.351  1.00  0.00     0.040 C 
HETATM   25  C16 UNL     1      -1.760   1.429  -1.678  1.00  0.00     0.001 C 
HETATM   26  C17 UNL     1      -0.950   2.584  -2.196  1.00  0.00     0.000 C 
HETATM   27  C18 UNL     1      -0.160   2.199  -3.422  1.00  0.00     0.001 C 
HETATM   28  C21 UNL     1      -0.242  -2.601  -3.190  1.00  0.00     0.274 C 
ENDBRANCH   1  18
TORSDOF 7
ENDMDL
MODEL 5
REMARK VINA RESULT: -7.144697398      2.472      6.404
REMARK  7 active torsions:
REMARK  status: ('A' for Active; 'I' for Inactive)
REMARK    1  A    between atoms: N1_2  and  C2_5 
REMARK    2  A    between atoms: C2_5  and  C3_6 
REMARK    3  A    between atoms: C3_6  and  C4_7 
REMARK    4  A    between atoms: C4_7  and  N2_8 
REMARK       I    between atoms: N2_8  and  C5_10 
REMARK    5  A    between atoms: C5_10  and  C6_12 
REMARK    6  A    between atoms: C6_12  and  C7_13 
REMARK    7  A    between atoms: C6_12  and  N3_18 
ROOT
HETATM    1  C6  UNL     1      -2.490  -6.231  -4.610  1.00  0.00     0.318 C 
ENDROOT
BRANCH   1   2
HETATM    2  C5  UNL     1      -1.558  -7.399  -4.248  1.00  0.00     0.251 C 
HETATM    3  N2  UNL     1      -2.105  -8.462  -3.526  1.00  0.00    -0.359 N 
ATOM      4  H2  UNL     1      -3.091  -8.417  -3.272  1.00  0.00     0.162 HD
HETATM    5  O1  UNL     1      -0.376  -7.354  -4.601  1.00  0.00    -0.271 OA
BRANCH   3   6
HETATM    6  C4  UNL     1      -1.339  -9.629  -3.119  1.00  0.00     0.124 C 
BRANCH   6   7
HETATM    7  C3  UNL     1      -1.779 -10.867  -3.856  1.00  0.00     0.047 C 
BRANCH   7   8
HETATM    8  C2  UNL     1      -0.667 -11.206  -4.842  1.00  0.00     0.233 C 
BRANCH   8   9
HETATM    9  N1  UNL     1       0.519 -11.678  -4.193  1.00  0.00    -0.079 N 
HETATM   10  C1  UNL     1       1.226 -12.654  -5.011  1.00  0.00     0.266 C 
ATOM     11  H12 UNL     1       0.313 -12.049  -3.265  1.00  0.00     0.276 HD
ATOM     12  H11 UNL     1       1.129 -10.906  -3.924  1.00  0.00     0.276 HD
ENDBRANCH   8   9
ENDBRANCH   7   8
ENDBRANCH   6   7
ENDBRANCH   3   6
ENDBRANCH   1   2
BRANCH   1  13
HETATM   13  C7  UNL     1      -2.734  -6.457  -6.053  1.00  0.00     0.028 C 
HETATM   14  C8  UNL     1      -4.204  -6.153  -6.377  1.00  0.00     0.007 C 
HETATM   15  C9  UNL     1      -4.240  -6.080  -7.896  1.00  0.00     0.000 C 
HETATM   16  C10 UNL     1      -2.832  -5.788  -8.355  1.00  0.00     0.000 C 
HETATM   17  C11 UNL     1      -1.976  -5.706  -7.077  1.00  0.00     0.007 C 
ENDBRANCH   1  13
BRANCH   1  18
HETATM   18  N3  UNL     1      -1.739  -5.015  -4.284  1.00  0.00     0.102 N 
HETATM   19  C12 UNL     1      -1.402  -5.073  -2.839  1.00  0.00     0.274 C 
HETATM   20  C13 UNL     1      -1.448  -3.763  -2.148  1.00  0.00     0.040 C 
HETATM   21  C14 UNL     1      -1.011  -2.580  -2.943  1.00  0.00    -0.037 C 
HETATM   22  C15 UNL     1       0.503  -2.529  -2.989  1.00  0.00     0.010 C 
HETATM   23  C19 UNL     1      -1.543  -1.334  -2.231  1.00  0.00     0.010 C 
HETATM   24  C20 UNL     1      -1.596  -2.605  -4.313  1.00  0.00     0.040 C 
HETATM   25  C16 UNL     1       0.995  -1.140  -3.345  1.00  0.00     0.001 C 
HETATM   26  C17 UNL     1       0.705  -0.217  -2.194  1.00  0.00     0.000 C 
HETATM   27  C18 UNL     1      -0.464  -0.704  -1.376  1.00  0.00     0.001 C 
HETATM   28  C21 UNL     1      -2.548  -3.822  -4.381  1.00  0.00     0.274 C 
ENDBRANCH   1  18
TORSDOF 7
ENDMDL
