MODEL 1
REMARK VINA RESULT: -8.578459586      0.000      0.000
REMARK  7 active torsions:
REMARK  status: ('A' for Active; 'I' for Inactive)
REMARK    1  A    between atoms: C2_2  and  O1_3 
REMARK    2  A    between atoms: O1_3  and  C3_4 
REMARK    3  A    between atoms: N1_12  and  C11_13 
REMARK    4  A    between atoms: C11_13  and  C12_14 
REMARK    5  A    between atoms: C12_14  and  C13_15 
REMARK    6  A    between atoms: C13_15  and  N2_16 
REMARK       I    between atoms: N2_16  and  C14_18 
REMARK       I    between atoms: C14_18  and  N3_20 
REMARK    7  A    between atoms: N3_20  and  C15_22 
ROOT
HETATM    1  C12 UNL     1      -4.696  -5.811  -5.979  1.00  0.00     0.064 C 
ENDROOT
BRANCH   1   2
HETATM    2  C11 UNL     1      -3.386  -6.478  -5.643  1.00  0.00     0.060 C 
BRANCH   2   3
HETATM    3  N1  UNL     1      -2.648  -5.691  -4.772  1.00  0.00    -0.384 N 
HETATM    4  C5  UNL     1      -1.669  -6.335  -3.955  1.00  0.00     0.086 C 
HETATM    5  C4  UNL     1      -1.308  -5.677  -2.686  1.00  0.00     0.057 C 
HETATM    6  C6  UNL     1      -0.420  -6.440  -4.845  1.00  0.00     0.025 C 
HETATM    7  C3  UNL     1      -1.495  -4.199  -2.629  1.00  0.00     0.125 C 
HETATM    8  C10 UNL     1      -2.438  -3.634  -3.618  1.00  0.00     0.057 C 
HETATM    9  C9  UNL     1      -2.437  -4.324  -4.973  1.00  0.00     0.086 C 
HETATM   10  C8  UNL     1      -1.100  -4.150  -5.663  1.00  0.00     0.025 C 
HETATM   11  C7  UNL     1      -0.384  -5.422  -5.925  1.00  0.00     0.004 C 
BRANCH   7  12
HETATM   12  O1  UNL     1      -0.302  -3.483  -2.701  1.00  0.00    -0.386 OA
BRANCH  12  13
HETATM   13  C2  UNL     1      -0.512  -2.101  -2.606  1.00  0.00     0.163 C 
HETATM   14  C1  UNL     1       0.537  -1.314  -3.315  1.00  0.00     0.033 C 
ENDBRANCH  12  13
ENDBRANCH   7  12
ENDBRANCH   2   3
ENDBRANCH   1   2
BRANCH   1  15
HETATM   15  C13 UNL     1      -5.299  -6.337  -7.260  1.00  0.00     0.129 C 
BRANCH  15  16
HETATM   16  N2  UNL     1      -6.703  -6.535  -7.077  1.00  0.00    -0.343 N 
HETATM   17  C14 UNL     1      -7.465  -7.487  -7.811  1.00  0.00     0.316 C 
HETATM   18  O2  UNL     1      -6.910  -8.210  -8.674  1.00  0.00    -0.247 OA
HETATM   19  N3  UNL     1      -8.854  -7.638  -7.585  1.00  0.00    -0.339 N 
ATOM     20  H3  UNL     1      -9.309  -7.054  -6.884  1.00  0.00     0.164 HD
ATOM     21  H2  UNL     1      -7.185  -5.963  -6.384  1.00  0.00     0.164 HD
BRANCH  19  22
HETATM   22  C15 UNL     1      -9.647  -8.605  -8.327  1.00  0.00     0.086 C 
HETATM   23  C16 UNL     1     -10.726  -9.109  -7.398  1.00  0.00     0.025 C 
HETATM   24  C17 UNL     1     -11.696 -10.029  -8.100  1.00  0.00     0.002 C 
HETATM   25  C18 UNL     1     -11.483 -10.026  -9.602  1.00  0.00     0.000 C 
HETATM   26  C19 UNL     1     -11.441  -8.597 -10.096  1.00  0.00     0.002 C 
HETATM   27  C20 UNL     1     -10.202  -7.945  -9.555  1.00  0.00     0.025 C 
ENDBRANCH  19  22
ENDBRANCH  15  16
ENDBRANCH   1  15
TORSDOF 7
ENDMDL
MODEL 2
REMARK VINA RESULT: -8.543507892      1.798      2.763
REMARK  7 active torsions:
REMARK  status: ('A' for Active; 'I' for Inactive)
REMARK    1  A    between atoms: C2_2  and  O1_3 
REMARK    2  A    between atoms: O1_3  and  C3_4 
REMARK    3  A    between atoms: N1_12  and  C11_13 
REMARK    4  A    between atoms: C11_13  and  C12_14 
REMARK    5  A    between atoms: C12_14  and  C13_15 
REMARK    6  A    between atoms: C13_15  and  N2_16 
REMARK       I    between atoms: N2_16  and  C14_18 
REMARK       I    between atoms: C14_18  and  N3_20 
REMARK    7  A    between atoms: N3_20  and  C15_22 
ROOT
HETATM    1  C12 UNL     1      -2.654  -6.601  -8.198  1.00  0.00     0.064 C 
ENDROOT
BRANCH   1   2
HETATM    2  C11 UNL     1      -1.635  -5.615  -7.685  1.00  0.00     0.060 C 
BRANCH   2   3
HETATM    3  N1  UNL     1      -1.353  -5.855  -6.349  1.00  0.00    -0.384 N 
HETATM    4  C5  UNL     1      -0.726  -4.813  -5.600  1.00  0.00     0.086 C 
HETATM    5  C4  UNL     1       0.072  -5.209  -4.426  1.00  0.00     0.057 C 
HETATM    6  C6  UNL     1      -1.881  -3.905  -5.144  1.00  0.00     0.025 C 
HETATM    7  C3  UNL     1      -0.301  -6.497  -3.774  1.00  0.00     0.125 C 
HETATM    8  C10 UNL     1      -1.066  -7.443  -4.615  1.00  0.00     0.057 C 
HETATM    9  C9  UNL     1      -2.046  -6.794  -5.580  1.00  0.00     0.086 C 
HETATM   10  C8  UNL     1      -3.142  -6.069  -4.827  1.00  0.00     0.025 C 
HETATM   11  C7  UNL     1      -3.186  -4.609  -5.080  1.00  0.00     0.004 C 
BRANCH   7  12
HETATM   12  O1  UNL     1      -0.979  -6.335  -2.567  1.00  0.00    -0.386 OA
BRANCH  12  13
HETATM   13  C2  UNL     1      -0.613  -5.152  -1.913  1.00  0.00     0.163 C 
HETATM   14  C1  UNL     1      -1.784  -4.433  -1.335  1.00  0.00     0.033 C 
ENDBRANCH  12  13
ENDBRANCH   7  12
ENDBRANCH   2   3
ENDBRANCH   1   2
BRANCH   1  15
HETATM   15  C13 UNL     1      -3.942  -5.935  -8.619  1.00  0.00     0.129 C 
BRANCH  15  16
HETATM   16  N2  UNL     1      -5.050  -6.730  -8.192  1.00  0.00    -0.343 N 
HETATM   17  C14 UNL     1      -6.295  -6.778  -8.879  1.00  0.00     0.316 C 
HETATM   18  O2  UNL     1      -6.469  -6.098  -9.919  1.00  0.00    -0.247 OA
HETATM   19  N3  UNL     1      -7.357  -7.587  -8.406  1.00  0.00    -0.339 N 
ATOM     20  H3  UNL     1      -7.220  -8.142  -7.562  1.00  0.00     0.164 HD
ATOM     21  H2  UNL     1      -4.942  -7.295  -7.349  1.00  0.00     0.164 HD
BRANCH  19  22
HETATM   22  C15 UNL     1      -8.636  -7.645  -9.095  1.00  0.00     0.086 C 
HETATM   23  C16 UNL     1      -8.392  -8.281 -10.444  1.00  0.00     0.025 C 
HETATM   24  C17 UNL     1      -9.676  -8.512 -11.203  1.00  0.00     0.002 C 
HETATM   25  C18 UNL     1     -10.893  -8.269 -10.332  1.00  0.00     0.000 C 
HETATM   26  C19 UNL     1     -10.739  -9.031  -9.035  1.00  0.00     0.002 C 
HETATM   27  C20 UNL     1      -9.610  -8.419  -8.257  1.00  0.00     0.025 C 
ENDBRANCH  19  22
ENDBRANCH  15  16
ENDBRANCH   1  15
TORSDOF 7
ENDMDL
MODEL 3
REMARK VINA RESULT: -8.354049444      1.226      1.917
REMARK  7 active torsions:
REMARK  status: ('A' for Active; 'I' for Inactive)
REMARK    1  A    between atoms: C2_2  and  O1_3 
REMARK    2  A    between atoms: O1_3  and  C3_4 
REMARK    3  A    between atoms: N1_12  and  C11_13 
REMARK    4  A    between atoms: C11_13  and  C12_14 
REMARK    5  A    between atoms: C12_14  and  C13_15 
REMARK    6  A    between atoms: C13_15  and  N2_16 
REMARK       I    between atoms: N2_16  and  C14_18 
REMARK       I    between atoms: C14_18  and  N3_20 
REMARK    7  A    between atoms: N3_20  and  C15_22 
ROOT
HETATM    1  C12 UNL     1      -4.472  -6.121  -7.427  1.00  0.00     0.064 C 
ENDROOT
BRANCH   1   2
HETATM    2  C11 UNL     1      -2.967  -6.182  -7.490  1.00  0.00     0.060 C 
BRANCH   2   3
HETATM    3  N1  UNL     1      -2.406  -5.480  -6.434  1.00  0.00    -0.384 N 
HETATM    4  C5  UNL     1      -3.168  -5.360  -5.232  1.00  0.00     0.086 C 
HETATM    5  C4  UNL     1      -2.883  -4.203  -4.363  1.00  0.00     0.057 C 
HETATM    6  C6  UNL     1      -2.890  -6.658  -4.456  1.00  0.00     0.025 C 
HETATM    7  C3  UNL     1      -1.512  -3.625  -4.457  1.00  0.00     0.125 C 
HETATM    8  C10 UNL     1      -0.771  -3.933  -5.699  1.00  0.00     0.057 C 
HETATM    9  C9  UNL     1      -1.028  -5.318  -6.273  1.00  0.00     0.086 C 
HETATM   10  C8  UNL     1      -0.534  -6.392  -5.326  1.00  0.00     0.025 C 
HETATM   11  C7  UNL     1      -1.600  -7.293  -4.825  1.00  0.00     0.004 C 
BRANCH   7  12
HETATM   12  O1  UNL     1      -0.698  -3.941  -3.371  1.00  0.00    -0.386 OA
BRANCH  12  13
HETATM   13  C2  UNL     1      -1.438  -4.131  -2.197  1.00  0.00     0.163 C 
HETATM   14  C1  UNL     1      -0.992  -5.328  -1.427  1.00  0.00     0.033 C 
ENDBRANCH  12  13
ENDBRANCH   7  12
ENDBRANCH   2   3
ENDBRANCH   1   2
BRANCH   1  15
HETATM   15  C13 UNL     1      -5.122  -6.576  -8.712  1.00  0.00     0.129 C 
BRANCH  15  16
HETATM   16  N2  UNL     1      -6.544  -6.504  -8.577  1.00  0.00    -0.343 N 
HETATM   17  C14 UNL     1      -7.417  -7.588  -8.871  1.00  0.00     0.316 C 
HETATM   18  O2  UNL     1      -6.954  -8.682  -9.274  1.00  0.00    -0.247 OA
HETATM   19  N3  UNL     1      -8.818  -7.456  -8.716  1.00  0.00    -0.339 N 
ATOM     20  H3  UNL     1      -9.201  -6.570  -8.388  1.00  0.00     0.164 HD
ATOM     21  H2  UNL     1      -6.954  -5.629  -8.251  1.00  0.00     0.164 HD
BRANCH  19  22
HETATM   22  C15 UNL     1      -9.726  -8.553  -9.015  1.00  0.00     0.086 C 
HETATM   23  C16 UNL     1     -10.447  -8.901  -7.734  1.00  0.00     0.025 C 
HETATM   24  C17 UNL     1     -11.514  -9.947  -7.949  1.00  0.00     0.002 C 
HETATM   25  C18 UNL     1     -11.751 -10.210  -9.423  1.00  0.00     0.000 C 
HETATM   26  C19 UNL     1     -11.955  -8.892 -10.138  1.00  0.00     0.002 C 
HETATM   27  C20 UNL     1     -10.660  -8.133 -10.110  1.00  0.00     0.025 C 
ENDBRANCH  19  22
ENDBRANCH  15  16
ENDBRANCH   1  15
TORSDOF 7
ENDMDL
MODEL 4
REMARK VINA RESULT: -8.195952379      1.601      2.474
REMARK  7 active torsions:
REMARK  status: ('A' for Active; 'I' for Inactive)
REMARK    1  A    between atoms: C2_2  and  O1_3 
REMARK    2  A    between atoms: O1_3  and  C3_4 
REMARK    3  A    between atoms: N1_12  and  C11_13 
REMARK    4  A    between atoms: C11_13  and  C12_14 
REMARK    5  A    between atoms: C12_14  and  C13_15 
REMARK    6  A    between atoms: C13_15  and  N2_16 
REMARK       I    between atoms: N2_16  and  C14_18 
REMARK       I    between atoms: C14_18  and  N3_20 
REMARK    7  A    between atoms: N3_20  and  C15_22 
ROOT
HETATM    1  C12 UNL     1      -4.456  -6.169  -7.360  1.00  0.00     0.064 C 
ENDROOT
BRANCH   1   2
HETATM    2  C11 UNL     1      -2.968  -5.953  -7.474  1.00  0.00     0.060 C 
BRANCH   2   3
HETATM    3  N1  UNL     1      -2.355  -6.120  -6.241  1.00  0.00    -0.384 N 
HETATM    4  C5  UNL     1      -0.979  -5.757  -6.123  1.00  0.00     0.086 C 
HETATM    5  C4  UNL     1      -0.190  -6.427  -5.074  1.00  0.00     0.057 C 
HETATM    6  C6  UNL     1      -0.992  -4.242  -5.859  1.00  0.00     0.025 C 
HETATM    7  C3  UNL     1      -0.948  -6.931  -3.893  1.00  0.00     0.125 C 
HETATM    8  C10 UNL     1      -2.397  -7.142  -4.105  1.00  0.00     0.057 C 
HETATM    9  C9  UNL     1      -3.062  -6.140  -5.035  1.00  0.00     0.086 C 
HETATM   10  C8  UNL     1      -3.020  -4.747  -4.442  1.00  0.00     0.025 C 
HETATM   11  C7  UNL     1      -2.261  -3.766  -5.255  1.00  0.00     0.004 C 
BRANCH   7  12
HETATM   12  O1  UNL     1      -0.781  -6.152  -2.749  1.00  0.00    -0.386 OA
BRANCH  12  13
HETATM   13  C2  UNL     1      -0.862  -6.916  -1.578  1.00  0.00     0.163 C 
HETATM   14  C1  UNL     1       0.299  -7.838  -1.417  1.00  0.00     0.033 C 
ENDBRANCH  12  13
ENDBRANCH   7  12
ENDBRANCH   2   3
ENDBRANCH   1   2
BRANCH   1  15
HETATM   15  C13 UNL     1      -5.075  -6.614  -8.664  1.00  0.00     0.129 C 
BRANCH  15  16
HETATM   16  N2  UNL     1      -6.498  -6.518  -8.570  1.00  0.00    -0.343 N 
HETATM   17  C14 UNL     1      -7.382  -7.585  -8.894  1.00  0.00     0.316 C 
HETATM   18  O2  UNL     1      -6.925  -8.686  -9.288  1.00  0.00    -0.247 OA
HETATM   19  N3  UNL     1      -8.784  -7.429  -8.781  1.00  0.00    -0.339 N 
ATOM     20  H3  UNL     1      -9.160  -6.537  -8.461  1.00  0.00     0.164 HD
ATOM     21  H2  UNL     1      -6.902  -5.636  -8.254  1.00  0.00     0.164 HD
BRANCH  19  22
HETATM   22  C15 UNL     1      -9.701  -8.509  -9.110  1.00  0.00     0.086 C 
HETATM   23  C16 UNL     1     -10.397  -8.913  -7.832  1.00  0.00     0.025 C 
HETATM   24  C17 UNL     1     -11.472  -9.946  -8.073  1.00  0.00     0.002 C 
HETATM   25  C18 UNL     1     -11.740 -10.140  -9.553  1.00  0.00     0.000 C 
HETATM   26  C19 UNL     1     -11.954  -8.791 -10.202  1.00  0.00     0.002 C 
HETATM   27  C20 UNL     1     -10.656  -8.037 -10.166  1.00  0.00     0.025 C 
ENDBRANCH  19  22
ENDBRANCH  15  16
ENDBRANCH   1  15
TORSDOF 7
ENDMDL
MODEL 5
REMARK VINA RESULT: -8.151909695      1.599      2.580
REMARK  7 active torsions:
REMARK  status: ('A' for Active; 'I' for Inactive)
REMARK    1  A    between atoms: C2_2  and  O1_3 
REMARK    2  A    between atoms: O1_3  and  C3_4 
REMARK    3  A    between atoms: N1_12  and  C11_13 
REMARK    4  A    between atoms: C11_13  and  C12_14 
REMARK    5  A    between atoms: C12_14  and  C13_15 
REMARK    6  A    between atoms: C13_15  and  N2_16 
REMARK       I    between atoms: N2_16  and  C14_18 
REMARK       I    between atoms: C14_18  and  N3_20 
REMARK    7  A    between atoms: N3_20  and  C15_22 
ROOT
HETATM    1  C12 UNL     1      -3.213  -5.306  -7.768  1.00  0.00     0.064 C 
ENDROOT
BRANCH   1   2
HETATM    2  C11 UNL     1      -1.837  -5.801  -7.401  1.00  0.00     0.060 C 
BRANCH   2   3
HETATM    3  N1  UNL     1      -1.493  -5.383  -6.124  1.00  0.00    -0.384 N 
HETATM    4  C5  UNL     1      -2.544  -5.199  -5.175  1.00  0.00     0.086 C 
HETATM    5  C4  UNL     1      -2.301  -4.255  -4.070  1.00  0.00     0.057 C 
HETATM    6  C6  UNL     1      -2.803  -6.600  -4.596  1.00  0.00     0.025 C 
HETATM    7  C3  UNL     1      -0.878  -4.042  -3.681  1.00  0.00     0.125 C 
HETATM    8  C10 UNL     1       0.127  -4.396  -4.707  1.00  0.00     0.057 C 
HETATM    9  C9  UNL     1      -0.230  -5.599  -5.566  1.00  0.00     0.086 C 
HETATM   10  C8  UNL     1      -0.295  -6.858  -4.726  1.00  0.00     0.025 C 
HETATM   11  C7  UNL     1      -1.630  -7.503  -4.705  1.00  0.00     0.004 C 
BRANCH   7  12
HETATM   12  O1  UNL     1      -0.526  -4.670  -2.487  1.00  0.00    -0.386 OA
BRANCH  12  13
HETATM   13  C2  UNL     1      -1.592  -4.707  -1.579  1.00  0.00     0.163 C 
HETATM   14  C1  UNL     1      -1.513  -5.874  -0.654  1.00  0.00     0.033 C 
ENDBRANCH  12  13
ENDBRANCH   7  12
ENDBRANCH   2   3
ENDBRANCH   1   2
BRANCH   1  15
HETATM   15  C13 UNL     1      -3.876  -6.169  -8.815  1.00  0.00     0.129 C 
BRANCH  15  16
HETATM   16  N2  UNL     1      -5.060  -6.754  -8.267  1.00  0.00    -0.343 N 
HETATM   17  C14 UNL     1      -6.287  -6.861  -8.980  1.00  0.00     0.316 C 
HETATM   18  O2  UNL     1      -6.375  -6.428 -10.155  1.00  0.00    -0.247 OA
HETATM   19  N3  UNL     1      -7.426  -7.452  -8.383  1.00  0.00    -0.339 N 
ATOM     20  H3  UNL     1      -7.360  -7.806  -7.429  1.00  0.00     0.164 HD
ATOM     21  H2  UNL     1      -5.022  -7.116  -7.314  1.00  0.00     0.164 HD
BRANCH  19  22
HETATM   22  C15 UNL     1      -8.688  -7.566  -9.097  1.00  0.00     0.086 C 
HETATM   23  C16 UNL     1      -8.398  -8.240 -10.418  1.00  0.00     0.025 C 
HETATM   24  C17 UNL     1      -9.658  -8.530 -11.196  1.00  0.00     0.002 C 
HETATM   25  C18 UNL     1     -10.901  -8.290 -10.359  1.00  0.00     0.000 C 
HETATM   26  C19 UNL     1     -10.755  -9.005  -9.035  1.00  0.00     0.002 C 
HETATM   27  C20 UNL     1      -9.661  -8.338  -8.254  1.00  0.00     0.025 C 
ENDBRANCH  19  22
ENDBRANCH  15  16
ENDBRANCH   1  15
TORSDOF 7
ENDMDL
