MODEL 1
REMARK VINA RESULT: -7.255313533      0.000      0.000
REMARK  6 active torsions:
REMARK  status: ('A' for Active; 'I' for Inactive)
REMARK    1  A    between atoms: N1_2  and  C2_5 
REMARK    2  A    between atoms: C2_5  and  C3_6 
REMARK    3  A    between atoms: C7_10  and  N2_11 
REMARK    4  A    between atoms: N3_15  and  C11_16 
REMARK    5  A    between atoms: C11_16  and  C12_17 
REMARK    6  A    between atoms: C12_17  and  O1_18 
ROOT
HETATM    1  N2  UNL     1      -2.890  -5.305  -6.401  1.00  0.00     0.095 N 
HETATM    2  C8  UNL     1      -2.178  -5.259  -7.622  1.00  0.00     0.275 C 
HETATM    3  C9  UNL     1      -3.052  -5.240  -8.853  1.00  0.00     0.060 C 
HETATM    4  C10 UNL     1      -3.562  -6.636  -9.177  1.00  0.00     0.274 C 
HETATM    5  N3  UNL     1      -4.803  -6.918  -8.533  1.00  0.00     0.092 N 
HETATM    6  C13 UNL     1      -5.038  -6.100  -7.344  1.00  0.00     0.302 C 
HETATM    7  C14 UNL     1      -3.949  -6.290  -6.352  1.00  0.00     0.303 C 
ENDROOT
BRANCH   1   8
HETATM    8  C7  UNL     1      -2.051  -5.556  -5.276  1.00  0.00     0.228 C 
HETATM    9  C3  UNL     1      -0.944  -4.545  -5.097  1.00  0.00     0.045 C 
HETATM   10  C4  UNL     1      -0.229  -5.150  -3.902  1.00  0.00     0.008 C 
HETATM   11  C5  UNL     1      -0.104  -6.601  -4.352  1.00  0.00     0.003 C 
HETATM   12  C6  UNL     1      -1.317  -6.852  -5.262  1.00  0.00     0.036 C 
BRANCH   9  13
HETATM   13  C2  UNL     1      -1.488  -3.177  -4.793  1.00  0.00     0.238 C 
BRANCH  13  14
HETATM   14  N1  UNL     1      -0.678  -2.177  -5.447  1.00  0.00    -0.079 N 
HETATM   15  C1  UNL     1      -1.107  -0.874  -4.977  1.00  0.00     0.267 C 
ATOM     16  H12 UNL     1      -0.699  -2.257  -6.464  1.00  0.00     0.276 HD
ATOM     17  H11 UNL     1       0.322  -2.334  -5.318  1.00  0.00     0.276 HD
ENDBRANCH  13  14
ENDBRANCH   9  13
ENDBRANCH   1   8
BRANCH   5  18
HETATM   18  C11 UNL     1      -5.946  -6.859  -9.386  1.00  0.00     0.298 C 
BRANCH  18  19
HETATM   19  C12 UNL     1      -7.110  -7.668  -8.910  1.00  0.00     0.194 C 
BRANCH  19  20
HETATM   20  O1  UNL     1      -6.980  -8.962  -9.450  1.00  0.00    -0.399 OA
ATOM     21  H1  UNL     1      -7.010  -9.580  -8.728  1.00  0.00     0.209 HD
ENDBRANCH  19  20
ENDBRANCH  18  19
ENDBRANCH   5  18
TORSDOF 6
ENDMDL
MODEL 2
REMARK VINA RESULT: -6.838093337      3.042      7.034
REMARK  6 active torsions:
REMARK  status: ('A' for Active; 'I' for Inactive)
REMARK    1  A    between atoms: N1_2  and  C2_5 
REMARK    2  A    between atoms: C2_5  and  C3_6 
REMARK    3  A    between atoms: C7_10  and  N2_11 
REMARK    4  A    between atoms: N3_15  and  C11_16 
REMARK    5  A    between atoms: C11_16  and  C12_17 
REMARK    6  A    between atoms: C12_17  and  O1_18 
ROOT
HETATM    1  N2  UNL     1      -5.469  -6.124  -8.507  1.00  0.00     0.095 N 
HETATM    2  C8  UNL     1      -5.418  -6.539  -7.156  1.00  0.00     0.275 C 
HETATM    3  C9  UNL     1      -4.255  -5.978  -6.375  1.00  0.00     0.060 C 
HETATM    4  C10 UNL     1      -2.978  -6.744  -6.681  1.00  0.00     0.274 C 
HETATM    5  N3  UNL     1      -2.263  -6.181  -7.781  1.00  0.00     0.092 N 
HETATM    6  C13 UNL     1      -3.108  -5.394  -8.678  1.00  0.00     0.302 C 
HETATM    7  C14 UNL     1      -4.214  -6.224  -9.221  1.00  0.00     0.303 C 
ENDROOT
BRANCH   1   8
HETATM    8  C7  UNL     1      -6.430  -6.844  -9.276  1.00  0.00     0.228 C 
HETATM    9  C3  UNL     1      -7.172  -7.903  -8.496  1.00  0.00     0.045 C 
HETATM   10  C4  UNL     1      -8.018  -8.500  -9.606  1.00  0.00     0.008 C 
HETATM   11  C5  UNL     1      -6.963  -8.704 -10.687  1.00  0.00     0.003 C 
HETATM   12  C6  UNL     1      -5.919  -7.601 -10.452  1.00  0.00     0.036 C 
BRANCH   9  13
HETATM   13  C2  UNL     1      -8.017  -7.299  -7.409  1.00  0.00     0.238 C 
BRANCH  13  14
HETATM   14  N1  UNL     1      -9.399  -7.668  -7.609  1.00  0.00    -0.079 N 
HETATM   15  C1  UNL     1      -9.694  -8.791  -6.740  1.00  0.00     0.267 C 
ATOM     16  H12 UNL     1      -9.619  -7.858  -8.587  1.00  0.00     0.276 HD
ATOM     17  H11 UNL     1     -10.040  -6.886  -7.474  1.00  0.00     0.276 HD
ENDBRANCH  13  14
ENDBRANCH   9  13
ENDBRANCH   1   8
BRANCH   5  18
HETATM   18  C11 UNL     1      -1.113  -5.419  -7.419  1.00  0.00     0.298 C 
BRANCH  18  19
HETATM   19  C12 UNL     1      -0.611  -5.684  -6.036  1.00  0.00     0.194 C 
BRANCH  19  20
HETATM   20  O1  UNL     1       0.577  -4.948  -5.863  1.00  0.00    -0.399 OA
ATOM     21  H1  UNL     1       0.340  -4.092  -5.524  1.00  0.00     0.209 HD
ENDBRANCH  19  20
ENDBRANCH  18  19
ENDBRANCH   5  18
TORSDOF 6
ENDMDL
MODEL 3
REMARK VINA RESULT: -6.819387250      2.615      6.978
REMARK  6 active torsions:
REMARK  status: ('A' for Active; 'I' for Inactive)
REMARK    1  A    between atoms: N1_2  and  C2_5 
REMARK    2  A    between atoms: C2_5  and  C3_6 
REMARK    3  A    between atoms: C7_10  and  N2_11 
REMARK    4  A    between atoms: N3_15  and  C11_16 
REMARK    5  A    between atoms: C11_16  and  C12_17 
REMARK    6  A    between atoms: C12_17  and  O1_18 
ROOT
HETATM    1  N2  UNL     1      -5.170  -7.076  -8.439  1.00  0.00     0.095 N 
HETATM    2  C8  UNL     1      -4.084  -6.704  -9.266  1.00  0.00     0.275 C 
HETATM    3  C9  UNL     1      -2.794  -6.449  -8.525  1.00  0.00     0.060 C 
HETATM    4  C10 UNL     1      -2.804  -5.072  -7.879  1.00  0.00     0.274 C 
HETATM    5  N3  UNL     1      -3.336  -5.102  -6.555  1.00  0.00     0.092 N 
HETATM    6  C13 UNL     1      -4.213  -6.245  -6.310  1.00  0.00     0.302 C 
HETATM    7  C14 UNL     1      -5.351  -6.249  -7.266  1.00  0.00     0.303 C 
ENDROOT
BRANCH   1   8
HETATM    8  C7  UNL     1      -6.418  -7.082  -9.127  1.00  0.00     0.228 C 
HETATM    9  C3  UNL     1      -7.454  -7.993  -8.513  1.00  0.00     0.045 C 
HETATM   10  C4  UNL     1      -8.582  -7.818  -9.514  1.00  0.00     0.008 C 
HETATM   11  C5  UNL     1      -7.829  -8.011 -10.824  1.00  0.00     0.003 C 
HETATM   12  C6  UNL     1      -6.399  -7.522 -10.550  1.00  0.00     0.036 C 
BRANCH   9  13
HETATM   13  C2  UNL     1      -7.849  -7.533  -7.137  1.00  0.00     0.238 C 
BRANCH  13  14
HETATM   14  N1  UNL     1      -9.286  -7.569  -7.008  1.00  0.00    -0.079 N 
HETATM   15  C1  UNL     1      -9.672  -8.925  -6.666  1.00  0.00     0.267 C 
ATOM     16  H12 UNL     1      -9.766  -7.220  -7.837  1.00  0.00     0.276 HD
ATOM     17  H11 UNL     1      -9.640  -6.879  -6.344  1.00  0.00     0.276 HD
ENDBRANCH  13  14
ENDBRANCH   9  13
ENDBRANCH   1   8
BRANCH   5  18
HETATM   18  C11 UNL     1      -2.360  -5.019  -5.517  1.00  0.00     0.298 C 
BRANCH  18  19
HETATM   19  C12 UNL     1      -2.353  -3.716  -4.785  1.00  0.00     0.194 C 
BRANCH  19  20
HETATM   20  O1  UNL     1      -3.580  -3.601  -4.104  1.00  0.00    -0.399 OA
ATOM     21  H1  UNL     1      -3.783  -4.450  -3.728  1.00  0.00     0.209 HD
ENDBRANCH  19  20
ENDBRANCH  18  19
ENDBRANCH   5  18
TORSDOF 6
ENDMDL
MODEL 4
REMARK VINA RESULT: -6.425462364      2.269      3.546
REMARK  6 active torsions:
REMARK  status: ('A' for Active; 'I' for Inactive)
REMARK    1  A    between atoms: N1_2  and  C2_5 
REMARK    2  A    between atoms: C2_5  and  C3_6 
REMARK    3  A    between atoms: C7_10  and  N2_11 
REMARK    4  A    between atoms: N3_15  and  C11_16 
REMARK    5  A    between atoms: C11_16  and  C12_17 
REMARK    6  A    between atoms: C12_17  and  O1_18 
ROOT
HETATM    1  N2  UNL     1      -4.949  -6.257  -8.374  1.00  0.00     0.095 N 
HETATM    2  C8  UNL     1      -5.171  -6.654  -9.713  1.00  0.00     0.275 C 
HETATM    3  C9  UNL     1      -6.625  -6.831 -10.078  1.00  0.00     0.060 C 
HETATM    4  C10 UNL     1      -7.152  -8.164  -9.572  1.00  0.00     0.274 C 
HETATM    5  N3  UNL     1      -7.692  -8.064  -8.255  1.00  0.00     0.092 N 
HETATM    6  C13 UNL     1      -7.166  -6.930  -7.498  1.00  0.00     0.302 C 
HETATM    7  C14 UNL     1      -5.687  -7.014  -7.386  1.00  0.00     0.303 C 
ENDROOT
BRANCH   1   8
HETATM    8  C7  UNL     1      -3.577  -6.324  -7.993  1.00  0.00     0.228 C 
HETATM    9  C3  UNL     1      -3.152  -5.242  -7.029  1.00  0.00     0.045 C 
HETATM   10  C4  UNL     1      -1.673  -5.560  -6.914  1.00  0.00     0.008 C 
HETATM   11  C5  UNL     1      -1.298  -5.699  -8.385  1.00  0.00     0.003 C 
HETATM   12  C6  UNL     1      -2.570  -6.203  -9.084  1.00  0.00     0.036 C 
BRANCH   9  13
HETATM   13  C2  UNL     1      -3.859  -5.370  -5.708  1.00  0.00     0.238 C 
BRANCH  13  14
HETATM   14  N1  UNL     1      -2.903  -5.242  -4.634  1.00  0.00    -0.079 N 
HETATM   15  C1  UNL     1      -2.814  -3.838  -4.278  1.00  0.00     0.267 C 
ATOM     16  H12 UNL     1      -1.996  -5.649  -4.862  1.00  0.00     0.276 HD
ATOM     17  H11 UNL     1      -3.124  -5.838  -3.836  1.00  0.00     0.276 HD
ENDBRANCH  13  14
ENDBRANCH   9  13
ENDBRANCH   1   8
BRANCH   5  18
HETATM   18  C11 UNL     1      -9.118  -8.059  -8.193  1.00  0.00     0.298 C 
BRANCH  18  19
HETATM   19  C12 UNL     1      -9.689  -8.933  -7.123  1.00  0.00     0.194 C 
BRANCH  19  20
HETATM   20  O1  UNL     1     -11.089  -8.945  -7.282  1.00  0.00    -0.399 OA
ATOM     21  H1  UNL     1     -11.312  -9.697  -7.819  1.00  0.00     0.209 HD
ENDBRANCH  19  20
ENDBRANCH  18  19
ENDBRANCH   5  18
TORSDOF 6
ENDMDL
MODEL 5
REMARK VINA RESULT: -6.228468375      3.137      6.659
REMARK  6 active torsions:
REMARK  status: ('A' for Active; 'I' for Inactive)
REMARK    1  A    between atoms: N1_2  and  C2_5 
REMARK    2  A    between atoms: C2_5  and  C3_6 
REMARK    3  A    between atoms: C7_10  and  N2_11 
REMARK    4  A    between atoms: N3_15  and  C11_16 
REMARK    5  A    between atoms: C11_16  and  C12_17 
REMARK    6  A    between atoms: C12_17  and  O1_18 
ROOT
HETATM    1  N2  UNL     1      -3.188  -5.604  -5.958  1.00  0.00     0.095 N 
HETATM    2  C8  UNL     1      -2.490  -6.763  -5.544  1.00  0.00     0.275 C 
HETATM    3  C9  UNL     1      -1.912  -6.679  -4.152  1.00  0.00     0.060 C 
HETATM    4  C10 UNL     1      -0.622  -5.874  -4.150  1.00  0.00     0.274 C 
HETATM    5  N3  UNL     1      -0.854  -4.484  -3.931  1.00  0.00     0.092 N 
HETATM    6  C13 UNL     1      -2.208  -4.061  -4.286  1.00  0.00     0.302 C 
HETATM    7  C14 UNL     1      -2.494  -4.358  -5.714  1.00  0.00     0.303 C 
ENDROOT
BRANCH   1   8
HETATM    8  C7  UNL     1      -3.518  -5.618  -7.344  1.00  0.00     0.228 C 
HETATM    9  C3  UNL     1      -4.508  -6.692  -7.730  1.00  0.00     0.045 C 
HETATM   10  C4  UNL     1      -4.560  -6.472  -9.231  1.00  0.00     0.008 C 
HETATM   11  C5  UNL     1      -3.073  -6.412  -9.559  1.00  0.00     0.003 C 
HETATM   12  C6  UNL     1      -2.399  -5.847  -8.300  1.00  0.00     0.036 C 
BRANCH   9  13
HETATM   13  C2  UNL     1      -5.846  -6.468  -7.083  1.00  0.00     0.238 C 
BRANCH  13  14
HETATM   14  N1  UNL     1      -6.891  -6.617  -8.068  1.00  0.00    -0.079 N 
HETATM   15  C1  UNL     1      -7.825  -7.616  -7.585  1.00  0.00     0.267 C 
ATOM     16  H12 UNL     1      -6.530  -6.832  -8.997  1.00  0.00     0.276 HD
ATOM     17  H11 UNL     1      -7.345  -5.732  -8.299  1.00  0.00     0.276 HD
ENDBRANCH  13  14
ENDBRANCH   9  13
ENDBRANCH   1   8
BRANCH   5  18
HETATM   18  C11 UNL     1      -0.541  -4.026  -2.616  1.00  0.00     0.298 C 
BRANCH  18  19
HETATM   19  C12 UNL     1       0.102  -2.677  -2.573  1.00  0.00     0.194 C 
BRANCH  19  20
HETATM   20  O1  UNL     1       0.899  -2.546  -3.727  1.00  0.00    -0.399 OA
ATOM     21  H1  UNL     1       1.431  -1.765  -3.624  1.00  0.00     0.209 HD
ENDBRANCH  19  20
ENDBRANCH  18  19
ENDBRANCH   5  18
TORSDOF 6
ENDMDL
