MODEL 1
REMARK VINA RESULT: -6.891770710      0.000      0.000
REMARK  6 active torsions:
REMARK  status: ('A' for Active; 'I' for Inactive)
REMARK    1  A    between atoms: C2_2  and  C3_3 
REMARK    2  A    between atoms: C3_3  and  N1_4 
REMARK    3  A    between atoms: N1_4  and  C4_6 
REMARK    4  A    between atoms: C5_9  and  N3_10 
REMARK    5  A    between atoms: C10_17  and  N5_18 
REMARK    6  A    between atoms: N5_18  and  C11_20 
ROOT
HETATM    1  C4  UNL     1      -1.238  -3.122  -5.100  1.00  0.00     0.707 A 
HETATM    2  N2  UNL     1      -1.907  -3.813  -6.034  1.00  0.00    -0.021 N 
ATOM      3  H2  UNL     1      -2.036  -3.410  -6.963  1.00  0.00     0.203 HD
HETATM    4  C5  UNL     1      -2.410  -5.028  -5.765  1.00  0.00     0.709 A 
HETATM    5  N4  UNL     1      -2.222  -5.531  -4.532  1.00  0.00    -0.021 N 
ATOM      6  H4  UNL     1      -2.601  -6.454  -4.320  1.00  0.00     0.203 HD
HETATM    7  C10 UNL     1      -1.566  -4.880  -3.577  1.00  0.00     0.707 A 
HETATM    8  N6  UNL     1      -1.066  -3.663  -3.859  1.00  0.00    -0.021 N 
ATOM      9  H6  UNL     1      -0.558  -3.143  -3.144  1.00  0.00     0.203 HD
ENDROOT
BRANCH   1  10
HETATM   10  N1  UNL     1      -0.738  -1.954  -5.311  1.00  0.00    -0.222 N 
ATOM     11  H1  UNL     1      -0.663  -1.614  -6.270  1.00  0.00     0.178 HD
BRANCH  10  12
HETATM   12  C3  UNL     1      -0.280  -1.112  -4.230  1.00  0.00     0.164 C 
BRANCH  12  13
HETATM   13  C2  UNL     1      -1.127   0.109  -4.156  1.00  0.00    -0.017 C 
HETATM   14  C1  UNL     1      -0.676   1.285  -4.561  1.00  0.00     0.008 C 
ENDBRANCH  12  13
ENDBRANCH  10  12
ENDBRANCH   1  10
BRANCH   4  15
HETATM   15  N3  UNL     1      -3.128  -5.781  -6.749  1.00  0.00    -0.217 N 
HETATM   16  C6  UNL     1      -2.558  -6.301  -7.975  1.00  0.00     0.141 C 
HETATM   17  C7  UNL     1      -3.707  -6.019  -8.954  1.00  0.00     0.022 C 
HETATM   18  C8  UNL     1      -4.887  -6.508  -8.154  1.00  0.00     0.022 C 
HETATM   19  C9  UNL     1      -4.522  -6.161  -6.724  1.00  0.00     0.141 C 
ENDBRANCH   4  15
BRANCH   7  20
HETATM   20  N5  UNL     1      -1.380  -5.356  -2.386  1.00  0.00    -0.220 N 
ATOM     21  H5  UNL     1      -1.316  -4.694  -1.613  1.00  0.00     0.178 HD
BRANCH  20  22
HETATM   22  C11 UNL     1      -1.259  -6.747  -2.085  1.00  0.00     0.099 A 
HETATM   23  C12 UNL     1      -0.003  -7.499  -2.271  1.00  0.00     0.028 A 
HETATM   24  C13 UNL     1      -0.323  -7.040  -0.899  1.00  0.00     0.028 A 
ENDBRANCH  20  22
ENDBRANCH   7  20
TORSDOF 6
ENDMDL
MODEL 2
REMARK VINA RESULT: -6.796466583      0.516      4.775
REMARK  6 active torsions:
REMARK  status: ('A' for Active; 'I' for Inactive)
REMARK    1  A    between atoms: C2_2  and  C3_3 
REMARK    2  A    between atoms: C3_3  and  N1_4 
REMARK    3  A    between atoms: N1_4  and  C4_6 
REMARK    4  A    between atoms: C5_9  and  N3_10 
REMARK    5  A    between atoms: C10_17  and  N5_18 
REMARK    6  A    between atoms: N5_18  and  C11_20 
ROOT
HETATM    1  C4  UNL     1      -1.578  -4.916  -3.603  1.00  0.00     0.707 A 
HETATM    2  N2  UNL     1      -2.205  -5.609  -4.565  1.00  0.00    -0.021 N 
ATOM      3  H2  UNL     1      -2.503  -6.568  -4.381  1.00  0.00     0.203 HD
HETATM    4  C5  UNL     1      -2.446  -5.059  -5.765  1.00  0.00     0.709 A 
HETATM    5  N4  UNL     1      -2.043  -3.794  -5.974  1.00  0.00    -0.021 N 
ATOM      6  H4  UNL     1      -2.223  -3.370  -6.884  1.00  0.00     0.203 HD
HETATM    7  C10 UNL     1      -1.419  -3.072  -5.049  1.00  0.00     0.707 A 
HETATM    8  N6  UNL     1      -1.182  -3.634  -3.849  1.00  0.00    -0.021 N 
ATOM      9  H6  UNL     1      -0.705  -3.100  -3.123  1.00  0.00     0.203 HD
ENDROOT
BRANCH   1  10
HETATM   10  N1  UNL     1      -1.325  -5.401  -2.437  1.00  0.00    -0.222 N 
ATOM     11  H1  UNL     1      -1.129  -4.761  -1.667  1.00  0.00     0.178 HD
BRANCH  10  12
HETATM   12  C3  UNL     1      -1.311  -6.824  -2.187  1.00  0.00     0.164 C 
BRANCH  12  13
HETATM   13  C2  UNL     1       0.083  -7.334  -2.283  1.00  0.00    -0.017 C 
HETATM   14  C1  UNL     1       0.609  -8.083  -1.327  1.00  0.00     0.008 C 
ENDBRANCH  12  13
ENDBRANCH  10  12
ENDBRANCH   1  10
BRANCH   4  15
HETATM   15  N3  UNL     1      -3.113  -5.784  -6.805  1.00  0.00    -0.217 N 
HETATM   16  C6  UNL     1      -2.491  -6.242  -8.029  1.00  0.00     0.141 C 
HETATM   17  C7  UNL     1      -3.610  -5.943  -9.036  1.00  0.00     0.022 C 
HETATM   18  C8  UNL     1      -4.807  -6.487  -8.299  1.00  0.00     0.022 C 
HETATM   19  C9  UNL     1      -4.499  -6.192  -6.844  1.00  0.00     0.141 C 
ENDBRANCH   4  15
BRANCH   7  20
HETATM   20  N5  UNL     1      -1.025  -1.851  -5.240  1.00  0.00    -0.220 N 
ATOM     21  H5  UNL     1      -0.482  -1.653  -6.080  1.00  0.00     0.178 HD
BRANCH  20  22
HETATM   22  C11 UNL     1      -1.302  -0.767  -4.353  1.00  0.00     0.099 A 
HETATM   23  C12 UNL     1      -0.244  -0.046  -3.618  1.00  0.00     0.028 A 
HETATM   24  C13 UNL     1      -0.768   0.587  -4.852  1.00  0.00     0.028 A 
ENDBRANCH  20  22
ENDBRANCH   7  20
TORSDOF 6
ENDMDL
MODEL 3
REMARK VINA RESULT: -6.796172525      1.799      5.274
REMARK  6 active torsions:
REMARK  status: ('A' for Active; 'I' for Inactive)
REMARK    1  A    between atoms: C2_2  and  C3_3 
REMARK    2  A    between atoms: C3_3  and  N1_4 
REMARK    3  A    between atoms: N1_4  and  C4_6 
REMARK    4  A    between atoms: C5_9  and  N3_10 
REMARK    5  A    between atoms: C10_17  and  N5_18 
REMARK    6  A    between atoms: N5_18  and  C11_20 
ROOT
HETATM    1  C4  UNL     1      -1.481  -6.802  -5.330  1.00  0.00     0.707 A 
HETATM    2  N2  UNL     1      -2.506  -6.969  -6.178  1.00  0.00    -0.021 N 
ATOM      3  H2  UNL     1      -2.920  -7.894  -6.291  1.00  0.00     0.203 HD
HETATM    4  C5  UNL     1      -2.995  -5.934  -6.880  1.00  0.00     0.709 A 
HETATM    5  N4  UNL     1      -2.427  -4.728  -6.707  1.00  0.00    -0.021 N 
ATOM      6  H4  UNL     1      -2.794  -3.937  -7.237  1.00  0.00     0.203 HD
HETATM    7  C10 UNL     1      -1.410  -4.519  -5.877  1.00  0.00     0.707 A 
HETATM    8  N6  UNL     1      -0.928  -5.563  -5.179  1.00  0.00    -0.021 N 
ATOM      9  H6  UNL     1      -0.149  -5.429  -4.535  1.00  0.00     0.203 HD
ENDROOT
BRANCH   1  10
HETATM   10  N1  UNL     1      -0.978  -7.763  -4.635  1.00  0.00    -0.222 N 
ATOM     11  H1  UNL     1      -0.046  -8.107  -4.868  1.00  0.00     0.178 HD
BRANCH  10  12
HETATM   12  C3  UNL     1      -1.695  -8.367  -3.535  1.00  0.00     0.164 C 
BRANCH  12  13
HETATM   13  C2  UNL     1      -1.660  -9.848  -3.670  1.00  0.00    -0.017 C 
HETATM   14  C1  UNL     1      -1.090 -10.432  -4.713  1.00  0.00     0.008 C 
ENDBRANCH  12  13
ENDBRANCH  10  12
ENDBRANCH   1  10
BRANCH   4  15
HETATM   15  N3  UNL     1      -4.088  -6.093  -7.791  1.00  0.00    -0.217 N 
HETATM   16  C6  UNL     1      -5.469  -6.297  -7.404  1.00  0.00     0.141 C 
HETATM   17  C7  UNL     1      -5.894  -7.346  -8.441  1.00  0.00     0.022 C 
HETATM   18  C8  UNL     1      -5.322  -6.747  -9.700  1.00  0.00     0.022 C 
HETATM   19  C9  UNL     1      -4.040  -6.085  -9.235  1.00  0.00     0.141 C 
ENDBRANCH   4  15
BRANCH   7  20
HETATM   20  N5  UNL     1      -0.856  -3.360  -5.704  1.00  0.00    -0.220 N 
ATOM     21  H5  UNL     1      -0.106  -3.090  -6.341  1.00  0.00     0.178 HD
BRANCH  20  22
HETATM   22  C11 UNL     1      -1.225  -2.436  -4.679  1.00  0.00     0.099 A 
HETATM   23  C12 UNL     1      -0.238  -1.623  -3.943  1.00  0.00     0.028 A 
HETATM   24  C13 UNL     1      -0.965  -0.966  -5.055  1.00  0.00     0.028 A 
ENDBRANCH  20  22
ENDBRANCH   7  20
TORSDOF 6
ENDMDL
MODEL 4
REMARK VINA RESULT: -6.765483980      1.131      1.281
REMARK  6 active torsions:
REMARK  status: ('A' for Active; 'I' for Inactive)
REMARK    1  A    between atoms: C2_2  and  C3_3 
REMARK    2  A    between atoms: C3_3  and  N1_4 
REMARK    3  A    between atoms: N1_4  and  C4_6 
REMARK    4  A    between atoms: C5_9  and  N3_10 
REMARK    5  A    between atoms: C10_17  and  N5_18 
REMARK    6  A    between atoms: N5_18  and  C11_20 
ROOT
HETATM    1  C4  UNL     1      -1.331  -2.468  -4.970  1.00  0.00     0.707 A 
HETATM    2  N2  UNL     1      -1.821  -3.309  -5.891  1.00  0.00    -0.021 N 
ATOM      3  H2  UNL     1      -1.761  -3.063  -6.880  1.00  0.00     0.203 HD
HETATM    4  C5  UNL     1      -2.389  -4.471  -5.531  1.00  0.00     0.709 A 
HETATM    5  N4  UNL     1      -2.450  -4.765  -4.221  1.00  0.00    -0.021 N 
ATOM      6  H4  UNL     1      -2.880  -5.647  -3.940  1.00  0.00     0.203 HD
HETATM    7  C10 UNL     1      -1.977  -3.960  -3.275  1.00  0.00     0.707 A 
HETATM    8  N6  UNL     1      -1.410  -2.798  -3.648  1.00  0.00    -0.021 N 
ATOM      9  H6  UNL     1      -1.039  -2.163  -2.942  1.00  0.00     0.203 HD
ENDROOT
BRANCH   1  10
HETATM   10  N1  UNL     1      -0.778  -1.343  -5.267  1.00  0.00    -0.222 N 
ATOM     11  H1  UNL     1      -0.524  -1.157  -6.237  1.00  0.00     0.178 HD
BRANCH  10  12
HETATM   12  C3  UNL     1      -0.506  -0.337  -4.265  1.00  0.00     0.164 C 
BRANCH  12  13
HETATM   13  C2  UNL     1      -0.817   1.011  -4.814  1.00  0.00    -0.017 C 
HETATM   14  C1  UNL     1      -1.183   2.008  -4.026  1.00  0.00     0.008 C 
ENDBRANCH  12  13
ENDBRANCH  10  12
ENDBRANCH   1  10
BRANCH   4  15
HETATM   15  N3  UNL     1      -2.918  -5.382  -6.501  1.00  0.00    -0.217 N 
HETATM   16  C6  UNL     1      -2.182  -5.916  -7.628  1.00  0.00     0.141 C 
HETATM   17  C7  UNL     1      -3.264  -5.860  -8.715  1.00  0.00     0.022 C 
HETATM   18  C8  UNL     1      -4.443  -6.434  -7.972  1.00  0.00     0.022 C 
HETATM   19  C9  UNL     1      -4.252  -5.936  -6.553  1.00  0.00     0.141 C 
ENDBRANCH   4  15
BRANCH   7  20
HETATM   20  N5  UNL     1      -2.032  -4.235  -2.009  1.00  0.00    -0.220 N 
ATOM     21  H5  UNL     1      -2.800  -3.838  -1.469  1.00  0.00     0.178 HD
BRANCH  20  22
HETATM   22  C11 UNL     1      -1.086  -5.056  -1.322  1.00  0.00     0.099 A 
HETATM   23  C12 UNL     1      -0.635  -4.773   0.054  1.00  0.00     0.028 A 
HETATM   24  C13 UNL     1      -1.685  -5.805  -0.118  1.00  0.00     0.028 A 
ENDBRANCH  20  22
ENDBRANCH   7  20
TORSDOF 6
ENDMDL
MODEL 5
REMARK VINA RESULT: -6.634163707      1.614      5.956
REMARK  6 active torsions:
REMARK  status: ('A' for Active; 'I' for Inactive)
REMARK    1  A    between atoms: C2_2  and  C3_3 
REMARK    2  A    between atoms: C3_3  and  N1_4 
REMARK    3  A    between atoms: N1_4  and  C4_6 
REMARK    4  A    between atoms: C5_9  and  N3_10 
REMARK    5  A    between atoms: C10_17  and  N5_18 
REMARK    6  A    between atoms: N5_18  and  C11_20 
ROOT
HETATM    1  C4  UNL     1      -2.775  -5.730  -7.109  1.00  0.00     0.707 A 
HETATM    2  N2  UNL     1      -2.627  -6.763  -6.267  1.00  0.00    -0.021 N 
ATOM      3  H2  UNL     1      -3.093  -7.648  -6.469  1.00  0.00     0.203 HD
HETATM    4  C5  UNL     1      -1.874  -6.649  -5.162  1.00  0.00     0.709 A 
HETATM    5  N4  UNL     1      -1.273  -5.470  -4.926  1.00  0.00    -0.021 N 
ATOM      6  H4  UNL     1      -0.698  -5.376  -4.088  1.00  0.00     0.203 HD
HETATM    7  C10 UNL     1      -1.393  -4.421  -5.734  1.00  0.00     0.707 A 
HETATM    8  N6  UNL     1      -2.150  -4.547  -6.838  1.00  0.00    -0.021 N 
ATOM      9  H6  UNL     1      -2.258  -3.758  -7.474  1.00  0.00     0.203 HD
ENDROOT
BRANCH   1  10
HETATM   10  N1  UNL     1      -3.486  -5.792  -8.181  1.00  0.00    -0.222 N 
ATOM     11  H1  UNL     1      -3.144  -5.340  -9.029  1.00  0.00     0.178 HD
BRANCH  10  12
HETATM   12  C3  UNL     1      -4.755  -6.482  -8.217  1.00  0.00     0.164 C 
BRANCH  12  13
HETATM   13  C2  UNL     1      -5.166  -6.699  -9.631  1.00  0.00    -0.017 C 
HETATM   14  C1  UNL     1      -6.348  -7.209  -9.935  1.00  0.00     0.008 C 
ENDBRANCH  12  13
ENDBRANCH  10  12
ENDBRANCH   1  10
BRANCH   4  15
HETATM   15  N3  UNL     1      -1.705  -7.740  -4.251  1.00  0.00    -0.217 N 
HETATM   16  C6  UNL     1      -1.757  -7.633  -2.807  1.00  0.00     0.141 C 
HETATM   17  C7  UNL     1      -0.608  -8.575  -2.419  1.00  0.00     0.022 C 
HETATM   18  C8  UNL     1      -0.897  -9.755  -3.311  1.00  0.00     0.022 C 
HETATM   19  C9  UNL     1      -1.454  -9.126  -4.573  1.00  0.00     0.141 C 
ENDBRANCH   4  15
BRANCH   7  20
HETATM   20  N5  UNL     1      -0.817  -3.280  -5.514  1.00  0.00    -0.220 N 
ATOM     21  H5  UNL     1       0.071  -3.097  -5.980  1.00  0.00     0.178 HD
BRANCH  20  22
HETATM   22  C11 UNL     1      -1.345  -2.263  -4.661  1.00  0.00     0.099 A 
HETATM   23  C12 UNL     1      -0.490  -1.399  -3.824  1.00  0.00     0.028 A 
HETATM   24  C13 UNL     1      -0.977  -0.837  -5.106  1.00  0.00     0.028 A 
ENDBRANCH  20  22
ENDBRANCH   7  20
TORSDOF 6
ENDMDL
