MODEL 1
REMARK VINA RESULT: -8.057878976      0.000      0.000
REMARK  5 active torsions:
REMARK  status: ('A' for Active; 'I' for Inactive)
REMARK    1  A    between atoms: C2_2  and  C3_3 
REMARK       I    between atoms: C3_3  and  N1_5 
REMARK    2  A    between atoms: C5_10  and  C6_11 
REMARK    3  A    between atoms: C6_11  and  N4_15 
REMARK    4  A    between atoms: N4_15  and  C7_17 
REMARK    5  A    between atoms: C7_17  and  C8_18 
ROOT
HETATM    1  C8  UNL     1      25.568  63.735  11.162  1.00  0.00    -0.087 C 
HETATM    2  C9  UNL     1      25.219  63.797  10.008  1.00  0.00    -0.109 C 
HETATM    3  C10 UNL     1      24.795  63.898   8.606  1.00  0.00     0.112 C 
ENDROOT
BRANCH   1   4
HETATM    4  C7  UNL     1      26.002  63.683  12.558  1.00  0.00     0.215 C 
BRANCH   4   5
HETATM    5  N4  UNL     1      27.408  63.279  12.654  1.00  0.00    -0.364 N 
ATOM      6  H4  UNL     1      27.637  62.299  12.822  1.00  0.00     0.162 HD
BRANCH   5   7
HETATM    7  C6  UNL     1      28.447  64.215  12.518  1.00  0.00     0.123 C 
HETATM    8  N3  UNL     1      29.419  64.105  13.385  1.00  0.00    -0.384 N 
ATOM      9  H32 UNL     1      30.172  64.785  13.286  1.00  0.00     0.157 HD
ATOM     10  H31 UNL     1      29.379  63.399  14.120  1.00  0.00     0.157 HD
BRANCH   7  11
HETATM   11  C5  UNL     1      28.501  65.213  11.478  1.00  0.00     0.089 C 
HETATM   12  N2  UNL     1      29.083  64.796  10.303  1.00  0.00    -0.334 N 
HETATM   13  C4  UNL     1      28.880  65.379   9.080  1.00  0.00     0.178 C 
ATOM     14  H2  UNL     1      29.711  63.994  10.345  1.00  0.00     0.168 HD
HETATM   15  N1  UNL     1      29.742  65.101   8.186  1.00  0.00    -0.305 N 
HETATM   16  C14 UNL     1      27.850  66.227   8.725  1.00  0.00     0.292 C 
HETATM   17  C3  UNL     1      29.793  65.547   6.856  1.00  0.00     0.246 C 
ATOM     18  H1  UNL     1      30.494  64.473   8.473  1.00  0.00     0.170 HD
HETATM   19  O1  UNL     1      29.420  64.782   5.910  1.00  0.00    -0.268 OA
HETATM   20  N5  UNL     1      27.205  67.149   9.501  1.00  0.00    -0.287 N 
HETATM   21  O3  UNL     1      27.477  66.119   7.536  1.00  0.00    -0.264 OA
HETATM   22  C13 UNL     1      27.208  67.218  10.867  1.00  0.00     0.256 C 
ATOM     23  H5  UNL     1      26.664  67.860   9.010  1.00  0.00     0.172 HD
HETATM   24  C11 UNL     1      27.959  66.441  11.761  1.00  0.00     0.037 C 
HETATM   25  O2  UNL     1      26.467  68.062  11.401  1.00  0.00    -0.267 OA
HETATM   26  C12 UNL     1      28.217  66.983  13.094  1.00  0.00     0.056 C 
BRANCH  17  27
HETATM   27  C2  UNL     1      30.262  66.874   6.466  1.00  0.00     0.064 C 
HETATM   28  C1  UNL     1      31.526  67.227   6.503  1.00  0.00     0.017 C 
ENDBRANCH  17  27
ENDBRANCH   7  11
ENDBRANCH   5   7
ENDBRANCH   4   5
ENDBRANCH   1   4
TORSDOF 5
ENDMDL
MODEL 2
REMARK VINA RESULT: -7.607366670      1.325      2.421
REMARK  5 active torsions:
REMARK  status: ('A' for Active; 'I' for Inactive)
REMARK    1  A    between atoms: C2_2  and  C3_3 
REMARK       I    between atoms: C3_3  and  N1_5 
REMARK    2  A    between atoms: C5_10  and  C6_11 
REMARK    3  A    between atoms: C6_11  and  N4_15 
REMARK    4  A    between atoms: N4_15  and  C7_17 
REMARK    5  A    between atoms: C7_17  and  C8_18 
ROOT
HETATM    1  C8  UNL     1      26.421  64.584  14.621  1.00  0.00    -0.087 C 
HETATM    2  C9  UNL     1      26.553  65.084  15.711  1.00  0.00    -0.109 C 
HETATM    3  C10 UNL     1      26.696  65.676  17.048  1.00  0.00     0.112 C 
ENDROOT
BRANCH   1   4
HETATM    4  C7  UNL     1      26.252  63.957  13.310  1.00  0.00     0.215 C 
BRANCH   4   5
HETATM    5  N4  UNL     1      27.530  63.442  12.809  1.00  0.00    -0.364 N 
ATOM      6  H4  UNL     1      27.630  62.443  12.628  1.00  0.00     0.162 HD
BRANCH   5   7
HETATM    7  C6  UNL     1      28.619  64.297  12.573  1.00  0.00     0.123 C 
HETATM    8  N3  UNL     1      29.639  64.143  13.377  1.00  0.00    -0.384 N 
ATOM      9  H32 UNL     1      30.429  64.763  13.206  1.00  0.00     0.157 HD
ATOM     10  H31 UNL     1      29.601  63.461  14.136  1.00  0.00     0.157 HD
BRANCH   7  11
HETATM   11  C5  UNL     1      28.671  65.261  11.501  1.00  0.00     0.089 C 
HETATM   12  N2  UNL     1      29.168  64.779  10.312  1.00  0.00    -0.334 N 
HETATM   13  C4  UNL     1      28.933  65.336   9.084  1.00  0.00     0.178 C 
ATOM     14  H2  UNL     1      29.756  63.947  10.348  1.00  0.00     0.168 HD
HETATM   15  N1  UNL     1      29.733  64.988   8.157  1.00  0.00    -0.305 N 
HETATM   16  C14 UNL     1      27.931  66.227   8.754  1.00  0.00     0.292 C 
HETATM   17  C3  UNL     1      29.737  65.391   6.812  1.00  0.00     0.246 C 
ATOM     18  H1  UNL     1      30.465  64.330   8.425  1.00  0.00     0.170 HD
HETATM   19  O1  UNL     1      29.277  64.620   5.911  1.00  0.00    -0.268 OA
HETATM   20  N5  UNL     1      27.375  67.204   9.531  1.00  0.00    -0.287 N 
HETATM   21  O3  UNL     1      27.492  66.104   7.589  1.00  0.00    -0.264 OA
HETATM   22  C13 UNL     1      27.452  67.312  10.892  1.00  0.00     0.256 C 
ATOM     23  H5  UNL     1      26.846  67.928   9.045  1.00  0.00     0.172 HD
HETATM   24  C11 UNL     1      28.207  66.523  11.772  1.00  0.00     0.037 C 
HETATM   25  O2  UNL     1      26.783  68.209  11.435  1.00  0.00    -0.267 OA
HETATM   26  C12 UNL     1      28.562  67.089  13.072  1.00  0.00     0.056 C 
BRANCH  17  27
HETATM   27  C2  UNL     1      30.253  66.680   6.357  1.00  0.00     0.064 C 
HETATM   28  C1  UNL     1      31.447  67.125   6.671  1.00  0.00     0.017 C 
ENDBRANCH  17  27
ENDBRANCH   7  11
ENDBRANCH   5   7
ENDBRANCH   4   5
ENDBRANCH   1   4
TORSDOF 5
ENDMDL
MODEL 3
REMARK VINA RESULT: -7.590085073      1.033      1.190
REMARK  5 active torsions:
REMARK  status: ('A' for Active; 'I' for Inactive)
REMARK    1  A    between atoms: C2_2  and  C3_3 
REMARK       I    between atoms: C3_3  and  N1_5 
REMARK    2  A    between atoms: C5_10  and  C6_11 
REMARK    3  A    between atoms: C6_11  and  N4_15 
REMARK    4  A    between atoms: N4_15  and  C7_17 
REMARK    5  A    between atoms: C7_17  and  C8_18 
ROOT
HETATM    1  C8  UNL     1      25.064  64.635  12.134  1.00  0.00    -0.087 C 
HETATM    2  C9  UNL     1      24.237  65.492  11.944  1.00  0.00    -0.109 C 
HETATM    3  C10 UNL     1      23.244  66.553  11.727  1.00  0.00     0.112 C 
ENDROOT
BRANCH   1   4
HETATM    4  C7  UNL     1      26.086  63.613  12.367  1.00  0.00     0.215 C 
BRANCH   4   5
HETATM    5  N4  UNL     1      27.150  64.126  13.234  1.00  0.00    -0.364 N 
ATOM      6  H4  UNL     1      27.015  64.125  14.245  1.00  0.00     0.162 HD
BRANCH   5   7
HETATM    7  C6  UNL     1      28.352  64.618  12.700  1.00  0.00     0.123 C 
HETATM    8  N3  UNL     1      29.443  64.172  13.267  1.00  0.00    -0.384 N 
ATOM      9  H32 UNL     1      30.315  64.530  12.879  1.00  0.00     0.157 HD
ATOM     10  H31 UNL     1      29.390  63.537  14.063  1.00  0.00     0.157 HD
BRANCH   7  11
HETATM   11  C5  UNL     1      28.426  65.517  11.574  1.00  0.00     0.089 C 
HETATM   12  N2  UNL     1      28.999  64.983  10.443  1.00  0.00    -0.334 N 
HETATM   13  C4  UNL     1      28.807  65.456   9.172  1.00  0.00     0.178 C 
ATOM     14  H2  UNL     1      29.612  64.176  10.559  1.00  0.00     0.168 HD
HETATM   15  N1  UNL     1      29.665  65.082   8.308  1.00  0.00    -0.305 N 
HETATM   16  C14 UNL     1      27.794  66.289   8.740  1.00  0.00     0.292 C 
HETATM   17  C3  UNL     1      29.724  65.404   6.943  1.00  0.00     0.246 C 
ATOM     18  H1  UNL     1      30.404  64.469   8.652  1.00  0.00     0.170 HD
HETATM   19  O1  UNL     1      29.336  64.564   6.070  1.00  0.00    -0.268 OA
HETATM   20  N5  UNL     1      27.167  67.289   9.427  1.00  0.00    -0.287 N 
HETATM   21  O3  UNL     1      27.419  66.080   7.565  1.00  0.00    -0.264 OA
HETATM   22  C13 UNL     1      27.172  67.482  10.781  1.00  0.00     0.256 C 
ATOM     23  H5  UNL     1      26.640  67.963   8.872  1.00  0.00     0.172 HD
HETATM   24  C11 UNL     1      27.907  66.775  11.743  1.00  0.00     0.037 C 
HETATM   25  O2  UNL     1      26.447  68.385  11.235  1.00  0.00    -0.267 OA
HETATM   26  C12 UNL     1      28.176  67.431  13.022  1.00  0.00     0.056 C 
BRANCH  17  27
HETATM   27  C2  UNL     1      30.219  66.681   6.435  1.00  0.00     0.064 C 
HETATM   28  C1  UNL     1      31.491  66.999   6.414  1.00  0.00     0.017 C 
ENDBRANCH  17  27
ENDBRANCH   7  11
ENDBRANCH   5   7
ENDBRANCH   4   5
ENDBRANCH   1   4
TORSDOF 5
ENDMDL
MODEL 4
REMARK VINA RESULT: -7.472038755      1.753      1.963
REMARK  5 active torsions:
REMARK  status: ('A' for Active; 'I' for Inactive)
REMARK    1  A    between atoms: C2_2  and  C3_3 
REMARK       I    between atoms: C3_3  and  N1_5 
REMARK    2  A    between atoms: C5_10  and  C6_11 
REMARK    3  A    between atoms: C6_11  and  N4_15 
REMARK    4  A    between atoms: N4_15  and  C7_17 
REMARK    5  A    between atoms: C7_17  and  C8_18 
ROOT
HETATM    1  C8  UNL     1      25.240  63.743  11.899  1.00  0.00    -0.087 C 
HETATM    2  C9  UNL     1      25.114  63.105  10.882  1.00  0.00    -0.109 C 
HETATM    3  C10 UNL     1      24.938  62.316   9.656  1.00  0.00     0.112 C 
ENDROOT
BRANCH   1   4
HETATM    4  C7  UNL     1      25.369  64.514  13.136  1.00  0.00     0.215 C 
BRANCH   4   5
HETATM    5  N4  UNL     1      26.402  63.941  14.004  1.00  0.00    -0.364 N 
ATOM      6  H4  UNL     1      26.153  63.640  14.947  1.00  0.00     0.162 HD
BRANCH   5   7
HETATM    7  C6  UNL     1      27.728  63.797  13.563  1.00  0.00     0.123 C 
HETATM    8  N3  UNL     1      28.257  62.616  13.749  1.00  0.00    -0.384 N 
ATOM      9  H32 UNL     1      29.219  62.511  13.428  1.00  0.00     0.157 HD
ATOM     10  H31 UNL     1      27.728  61.879  14.216  1.00  0.00     0.157 HD
BRANCH   7  11
HETATM   11  C5  UNL     1      28.475  64.839  12.903  1.00  0.00     0.089 C 
HETATM   12  N2  UNL     1      28.909  64.527  11.634  1.00  0.00    -0.334 N 
HETATM   13  C4  UNL     1      29.246  65.445  10.676  1.00  0.00     0.178 C 
ATOM     14  H2  UNL     1      28.984  63.540  11.390  1.00  0.00     0.168 HD
HETATM   15  N1  UNL     1      29.944  65.002   9.708  1.00  0.00    -0.305 N 
HETATM   16  C14 UNL     1      28.912  66.785  10.655  1.00  0.00     0.292 C 
HETATM   17  C3  UNL     1      30.433  65.702   8.593  1.00  0.00     0.246 C 
ATOM     18  H1  UNL     1      30.179  64.010   9.747  1.00  0.00     0.170 HD
HETATM   19  O1  UNL     1      29.855  65.594   7.465  1.00  0.00    -0.268 OA
HETATM   20  N5  UNL     1      28.762  67.638  11.711  1.00  0.00    -0.287 N 
HETATM   21  O3  UNL     1      28.728  67.254   9.510  1.00  0.00    -0.264 OA
HETATM   22  C13 UNL     1      28.592  67.295  13.025  1.00  0.00     0.256 C 
ATOM     23  H5  UNL     1      28.778  68.635  11.499  1.00  0.00     0.172 HD
HETATM   24  C11 UNL     1      28.651  66.013  13.589  1.00  0.00     0.037 C 
HETATM   25  O2  UNL     1      28.357  68.213  13.831  1.00  0.00    -0.267 OA
HETATM   26  C12 UNL     1      28.955  65.903  15.015  1.00  0.00     0.056 C 
BRANCH  17  27
HETATM   27  C2  UNL     1      31.601  66.577   8.638  1.00  0.00     0.064 C 
HETATM   28  C1  UNL     1      32.249  66.964   7.564  1.00  0.00     0.017 C 
ENDBRANCH  17  27
ENDBRANCH   7  11
ENDBRANCH   5   7
ENDBRANCH   4   5
ENDBRANCH   1   4
TORSDOF 5
ENDMDL
MODEL 5
REMARK VINA RESULT: -6.903170287      2.270      2.843
REMARK  5 active torsions:
REMARK  status: ('A' for Active; 'I' for Inactive)
REMARK    1  A    between atoms: C2_2  and  C3_3 
REMARK       I    between atoms: C3_3  and  N1_5 
REMARK    2  A    between atoms: C5_10  and  C6_11 
REMARK    3  A    between atoms: C6_11  and  N4_15 
REMARK    4  A    between atoms: N4_15  and  C7_17 
REMARK    5  A    between atoms: C7_17  and  C8_18 
ROOT
HETATM    1  C8  UNL     1      25.459  63.790  11.890  1.00  0.00    -0.087 C 
HETATM    2  C9  UNL     1      25.230  63.201  10.862  1.00  0.00    -0.109 C 
HETATM    3  C10 UNL     1      24.927  62.489   9.614  1.00  0.00     0.112 C 
ENDROOT
BRANCH   1   4
HETATM    4  C7  UNL     1      25.715  64.519  13.133  1.00  0.00     0.215 C 
BRANCH   4   5
HETATM    5  N4  UNL     1      25.293  65.918  13.015  1.00  0.00    -0.364 N 
ATOM      6  H4  UNL     1      24.337  66.175  13.265  1.00  0.00     0.162 HD
BRANCH   5   7
HETATM    7  C6  UNL     1      26.178  66.912  12.565  1.00  0.00     0.123 C 
HETATM    8  N3  UNL     1      26.379  67.902  13.394  1.00  0.00    -0.384 N 
ATOM      9  H32 UNL     1      27.022  68.623  13.068  1.00  0.00     0.157 HD
ATOM     10  H31 UNL     1      25.886  67.938  14.287  1.00  0.00     0.157 HD
BRANCH   7  11
HETATM   11  C5  UNL     1      26.874  66.859  11.303  1.00  0.00     0.089 C 
HETATM   12  N2  UNL     1      28.239  66.717  11.399  1.00  0.00    -0.334 N 
HETATM   13  C4  UNL     1      29.046  66.230  10.406  1.00  0.00     0.178 C 
ATOM     14  H2  UNL     1      28.683  66.993  12.275  1.00  0.00     0.168 HD
HETATM   15  N1  UNL     1      30.287  66.490  10.526  1.00  0.00    -0.305 N 
HETATM   16  C14 UNL     1      28.656  65.500   9.301  1.00  0.00     0.292 C 
HETATM   17  C3  UNL     1      31.340  66.126   9.672  1.00  0.00     0.246 C 
ATOM     18  H1  UNL     1      30.551  67.031  11.349  1.00  0.00     0.170 HD
HETATM   19  O1  UNL     1      32.106  65.157   9.976  1.00  0.00    -0.268 OA
HETATM   20  N5  UNL     1      27.492  65.592   8.592  1.00  0.00    -0.287 N 
HETATM   21  O3  UNL     1      29.492  64.651   8.920  1.00  0.00    -0.264 OA
HETATM   22  C13 UNL     1      26.330  66.190   8.997  1.00  0.00     0.256 C 
ATOM     23  H5  UNL     1      27.488  65.170   7.663  1.00  0.00     0.172 HD
HETATM   24  C11 UNL     1      26.113  66.934  10.165  1.00  0.00     0.037 C 
HETATM   25  O2  UNL     1      25.337  66.073   8.257  1.00  0.00    -0.267 OA
HETATM   26  C12 UNL     1      25.009  67.894  10.174  1.00  0.00     0.056 C 
BRANCH  17  27
HETATM   27  C2  UNL     1      31.630  66.806   8.412  1.00  0.00     0.064 C 
HETATM   28  C1  UNL     1      32.836  66.888   7.902  1.00  0.00     0.017 C 
ENDBRANCH  17  27
ENDBRANCH   7  11
ENDBRANCH   5   7
ENDBRANCH   4   5
ENDBRANCH   1   4
TORSDOF 5
ENDMDL
