MODEL 1
REMARK VINA RESULT: -7.316017432      0.000      0.000
REMARK  4 active torsions:
REMARK  status: ('A' for Active; 'I' for Inactive)
REMARK    1  A    between atoms: C2_2  and  C3_3 
REMARK    2  A    between atoms: C3_3  and  C4_4 
REMARK    3  A    between atoms: C4_4  and  N1_5 
REMARK       I    between atoms: C5_7  and  N2_8 
REMARK       I    between atoms: C5_7  and  N7_25 
REMARK    4  A    between atoms: N2_8  and  C6_10 
ROOT
HETATM    1  C6  UNL     1      28.420  64.236  12.302  1.00  0.00     0.165 A 
HETATM    2  N3  UNL     1      29.252  64.431  13.340  1.00  0.00    -0.282 N 
ATOM      3  H3  UNL     1      30.269  64.377  13.278  1.00  0.00     0.188 HD
HETATM    4  N4  UNL     1      28.595  64.698  14.437  1.00  0.00    -0.292 N 
ATOM      5  H4  UNL     1      29.015  64.881  15.348  1.00  0.00     0.187 HD
HETATM    6  C7  UNL     1      27.279  64.692  14.173  1.00  0.00     0.147 A 
HETATM    7  C8  UNL     1      26.135  64.902  14.928  1.00  0.00     0.281 A 
HETATM    8  O1  UNL     1      26.284  65.167  16.161  1.00  0.00    -0.265 OA
HETATM    9  N5  UNL     1      24.904  64.833  14.389  1.00  0.00    -0.269 N 
HETATM   10  C9  UNL     1      23.719  65.052  15.180  1.00  0.00     0.164 C 
HETATM   11  C10 UNL     1      24.802  64.548  13.072  1.00  0.00     0.329 A 
HETATM   12  O2  UNL     1      23.662  64.475  12.534  1.00  0.00    -0.246 OA
HETATM   13  N6  UNL     1      25.901  64.339  12.321  1.00  0.00    -0.303 N 
ATOM     14  H6  UNL     1      25.781  64.126  11.331  1.00  0.00     0.171 HD
HETATM   15  C11 UNL     1      27.150  64.399  12.817  1.00  0.00     0.116 A 
ENDROOT
BRANCH   1  16
HETATM   16  N2  UNL     1      28.665  63.958  11.080  1.00  0.00    -0.173 N 
HETATM   17  C5  UNL     1      28.878  64.897  10.060  1.00  0.00     0.675 C 
HETATM   18  N1  UNL     1      30.043  65.264   9.721  1.00  0.00    -0.226 N 
HETATM   19  N7  UNL     1      27.755  65.445   9.395  1.00  0.00    -0.231 N 
ATOM     20  H1  UNL     1      30.819  64.841  10.230  1.00  0.00     0.177 HD
HETATM   21  C12 UNL     1      27.314  66.815   9.545  1.00  0.00     0.165 C 
ATOM     22  H7  UNL     1      27.225  64.838   8.771  1.00  0.00     0.177 HD
ATOM     23  H2  UNL     1      28.709  62.972  10.824  1.00  0.00     0.186 HD
BRANCH  18  24
HETATM   24  C4  UNL     1      30.385  66.204   8.707  1.00  0.00     0.138 C 
BRANCH  24  25
HETATM   25  C3  UNL     1      31.833  66.612   8.721  1.00  0.00     0.020 C 
BRANCH  25  26
HETATM   26  C2  UNL     1      32.336  67.027   7.367  1.00  0.00    -0.003 C 
HETATM   27  C1  UNL     1      31.281  67.061   6.317  1.00  0.00     0.005 C 
ENDBRANCH  25  26
ENDBRANCH  24  25
ENDBRANCH  18  24
ENDBRANCH   1  16
TORSDOF 4
ENDMDL
MODEL 2
REMARK VINA RESULT: -7.254103393      3.126      7.228
REMARK  4 active torsions:
REMARK  status: ('A' for Active; 'I' for Inactive)
REMARK    1  A    between atoms: C2_2  and  C3_3 
REMARK    2  A    between atoms: C3_3  and  C4_4 
REMARK    3  A    between atoms: C4_4  and  N1_5 
REMARK       I    between atoms: C5_7  and  N2_8 
REMARK       I    between atoms: C5_7  and  N7_25 
REMARK    4  A    between atoms: N2_8  and  C6_10 
ROOT
HETATM    1  C6  UNL     1      29.001  65.089  11.010  1.00  0.00     0.165 A 
HETATM    2  N3  UNL     1      27.774  65.055  10.464  1.00  0.00    -0.282 N 
ATOM      3  H3  UNL     1      26.940  64.719  10.945  1.00  0.00     0.188 HD
HETATM    4  N4  UNL     1      27.783  65.508   9.238  1.00  0.00    -0.292 N 
ATOM      5  H4  UNL     1      26.969  65.577   8.627  1.00  0.00     0.187 HD
HETATM    6  C7  UNL     1      29.034  65.867   8.913  1.00  0.00     0.147 A 
HETATM    7  C8  UNL     1      29.629  66.398   7.778  1.00  0.00     0.281 A 
HETATM    8  O1  UNL     1      28.884  66.625   6.774  1.00  0.00    -0.265 OA
HETATM    9  N5  UNL     1      30.946  66.670   7.726  1.00  0.00    -0.269 N 
HETATM   10  C9  UNL     1      31.558  67.222   6.542  1.00  0.00     0.164 C 
HETATM   11  C10 UNL     1      31.693  66.409   8.821  1.00  0.00     0.329 A 
HETATM   12  O2  UNL     1      32.932  66.652   8.806  1.00  0.00    -0.246 OA
HETATM   13  N6  UNL     1      31.134  65.893   9.933  1.00  0.00    -0.303 N 
ATOM     14  H6  UNL     1      31.733  65.710  10.739  1.00  0.00     0.171 HD
HETATM   15  C11 UNL     1      29.824  65.607  10.031  1.00  0.00     0.116 A 
ENDROOT
BRANCH   1  16
HETATM   16  N2  UNL     1      29.406  64.739  12.170  1.00  0.00    -0.173 N 
HETATM   17  C5  UNL     1      28.809  65.109  13.385  1.00  0.00     0.675 C 
HETATM   18  N1  UNL     1      27.966  64.365  13.970  1.00  0.00    -0.226 N 
HETATM   19  N7  UNL     1      29.165  66.349  13.967  1.00  0.00    -0.231 N 
ATOM     20  H1  UNL     1      27.742  63.482  13.510  1.00  0.00     0.177 HD
HETATM   21  C12 UNL     1      28.282  67.492  14.040  1.00  0.00     0.165 C 
ATOM     22  H7  UNL     1      30.101  66.442  14.359  1.00  0.00     0.177 HD
ATOM     23  H2  UNL     1      30.231  64.141  12.217  1.00  0.00     0.186 HD
BRANCH  18  24
HETATM   24  C4  UNL     1      27.296  64.630  15.199  1.00  0.00     0.138 C 
BRANCH  24  25
HETATM   25  C3  UNL     1      25.827  64.913  15.040  1.00  0.00     0.020 C 
BRANCH  25  26
HETATM   26  C2  UNL     1      25.393  64.954  13.601  1.00  0.00    -0.003 C 
HETATM   27  C1  UNL     1      24.517  63.817  13.203  1.00  0.00     0.005 C 
ENDBRANCH  25  26
ENDBRANCH  24  25
ENDBRANCH  18  24
ENDBRANCH   1  16
TORSDOF 4
ENDMDL
MODEL 3
REMARK VINA RESULT: -7.229701156      2.780      6.844
REMARK  4 active torsions:
REMARK  status: ('A' for Active; 'I' for Inactive)
REMARK    1  A    between atoms: C2_2  and  C3_3 
REMARK    2  A    between atoms: C3_3  and  C4_4 
REMARK    3  A    between atoms: C4_4  and  N1_5 
REMARK       I    between atoms: C5_7  and  N2_8 
REMARK       I    between atoms: C5_7  and  N7_25 
REMARK    4  A    between atoms: N2_8  and  C6_10 
ROOT
HETATM    1  C6  UNL     1      28.104  64.072  13.300  1.00  0.00     0.165 A 
HETATM    2  N3  UNL     1      29.389  64.362  13.034  1.00  0.00    -0.282 N 
ATOM      3  H3  UNL     1      30.150  64.273  13.707  1.00  0.00     0.188 HD
HETATM    4  N4  UNL     1      29.541  64.772  11.803  1.00  0.00    -0.292 N 
ATOM      5  H4  UNL     1      30.426  65.047  11.376  1.00  0.00     0.187 HD
HETATM    6  C7  UNL     1      28.348  64.773  11.189  1.00  0.00     0.147 A 
HETATM    7  C8  UNL     1      27.909  65.102   9.916  1.00  0.00     0.281 A 
HETATM    8  O1  UNL     1      28.778  65.503   9.079  1.00  0.00    -0.265 OA
HETATM    9  N5  UNL     1      26.614  65.005   9.561  1.00  0.00    -0.269 N 
HETATM   10  C9  UNL     1      26.166  65.350   8.235  1.00  0.00     0.164 C 
HETATM   11  C10 UNL     1      25.732  64.574  10.489  1.00  0.00     0.329 A 
HETATM   12  O2  UNL     1      24.510  64.471  10.190  1.00  0.00    -0.246 OA
HETATM   13  N6  UNL     1      26.138  64.249  11.733  1.00  0.00    -0.303 N 
ATOM     14  H6  UNL     1      25.440  63.928  12.403  1.00  0.00     0.171 HD
HETATM   15  C11 UNL     1      27.420  64.330  12.130  1.00  0.00     0.116 A 
ENDROOT
BRANCH   1  16
HETATM   16  N2  UNL     1      27.551  63.648  14.372  1.00  0.00    -0.173 N 
HETATM   17  C5  UNL     1      26.894  64.448  15.318  1.00  0.00     0.675 C 
HETATM   18  N1  UNL     1      25.638  64.617  15.295  1.00  0.00    -0.226 N 
HETATM   19  N7  UNL     1      27.663  65.079  16.325  1.00  0.00    -0.231 N 
ATOM     20  H1  UNL     1      25.129  64.142  14.550  1.00  0.00     0.177 HD
HETATM   21  C12 UNL     1      27.904  66.504  16.386  1.00  0.00     0.165 C 
ATOM     22  H7  UNL     1      28.071  64.493  17.053  1.00  0.00     0.177 HD
ATOM     23  H2  UNL     1      27.591  62.645  14.553  1.00  0.00     0.186 HD
BRANCH  18  24
HETATM   24  C4  UNL     1      24.862  65.401  16.196  1.00  0.00     0.138 C 
BRANCH  24  25
HETATM   25  C3  UNL     1      23.932  64.591  17.058  1.00  0.00     0.020 C 
BRANCH  25  26
HETATM   26  C2  UNL     1      22.511  64.617  16.569  1.00  0.00    -0.003 C 
HETATM   27  C1  UNL     1      22.158  63.473  15.682  1.00  0.00     0.005 C 
ENDBRANCH  25  26
ENDBRANCH  24  25
ENDBRANCH  18  24
ENDBRANCH   1  16
TORSDOF 4
ENDMDL
MODEL 4
REMARK VINA RESULT: -7.180762681      3.274      7.427
REMARK  4 active torsions:
REMARK  status: ('A' for Active; 'I' for Inactive)
REMARK    1  A    between atoms: C2_2  and  C3_3 
REMARK    2  A    between atoms: C3_3  and  C4_4 
REMARK    3  A    between atoms: C4_4  and  N1_5 
REMARK       I    between atoms: C5_7  and  N2_8 
REMARK       I    between atoms: C5_7  and  N7_25 
REMARK    4  A    between atoms: N2_8  and  C6_10 
ROOT
HETATM    1  C6  UNL     1      28.544  65.079  10.317  1.00  0.00     0.165 A 
HETATM    2  N3  UNL     1      29.565  65.076  11.191  1.00  0.00    -0.282 N 
ATOM      3  H3  UNL     1      29.500  64.730  12.149  1.00  0.00     0.188 HD
HETATM    4  N4  UNL     1      30.651  65.570  10.661  1.00  0.00    -0.292 N 
ATOM      5  H4  UNL     1      31.550  65.668  11.134  1.00  0.00     0.187 HD
HETATM    6  C7  UNL     1      30.397  65.928   9.393  1.00  0.00     0.147 A 
HETATM    7  C8  UNL     1      31.147  66.493   8.372  1.00  0.00     0.281 A 
HETATM    8  O1  UNL     1      32.365  66.761   8.616  1.00  0.00    -0.265 OA
HETATM    9  N5  UNL     1      30.621  66.753   7.161  1.00  0.00    -0.269 N 
HETATM   10  C9  UNL     1      31.408  67.341   6.105  1.00  0.00     0.164 C 
HETATM   11  C10 UNL     1      29.321  66.448   6.955  1.00  0.00     0.329 A 
HETATM   12  O2  UNL     1      28.795  66.679   5.830  1.00  0.00    -0.246 OA
HETATM   13  N6  UNL     1      28.574  65.900   7.933  1.00  0.00    -0.303 N 
ATOM     14  H6  UNL     1      27.597  65.685   7.736  1.00  0.00     0.171 HD
HETATM   15  C11 UNL     1      29.058  65.622   9.157  1.00  0.00     0.116 A 
ENDROOT
BRANCH   1  16
HETATM   16  N2  UNL     1      27.336  64.686  10.446  1.00  0.00    -0.173 N 
HETATM   17  C5  UNL     1      26.644  64.571  11.661  1.00  0.00     0.675 C 
HETATM   18  N1  UNL     1      25.895  65.497  12.095  1.00  0.00    -0.226 N 
HETATM   19  N7  UNL     1      26.792  63.384  12.417  1.00  0.00    -0.231 N 
ATOM     20  H1  UNL     1      25.822  66.332  11.514  1.00  0.00     0.177 HD
HETATM   21  C12 UNL     1      27.507  63.307  13.672  1.00  0.00     0.165 C 
ATOM     22  H7  UNL     1      26.368  62.530  12.056  1.00  0.00     0.177 HD
ATOM     23  H2  UNL     1      26.832  64.435   9.595  1.00  0.00     0.186 HD
BRANCH  18  24
HETATM   24  C4  UNL     1      25.146  65.497  13.307  1.00  0.00     0.138 C 
BRANCH  24  25
HETATM   25  C3  UNL     1      23.708  65.093  13.130  1.00  0.00     0.020 C 
BRANCH  25  26
HETATM   26  C2  UNL     1      23.394  63.765  13.760  1.00  0.00    -0.003 C 
HETATM   27  C1  UNL     1      22.235  63.801  14.696  1.00  0.00     0.005 C 
ENDBRANCH  25  26
ENDBRANCH  24  25
ENDBRANCH  18  24
ENDBRANCH   1  16
TORSDOF 4
ENDMDL
MODEL 5
REMARK VINA RESULT: -7.139149716      2.021      3.234
REMARK  4 active torsions:
REMARK  status: ('A' for Active; 'I' for Inactive)
REMARK    1  A    between atoms: C2_2  and  C3_3 
REMARK    2  A    between atoms: C3_3  and  C4_4 
REMARK    3  A    between atoms: C4_4  and  N1_5 
REMARK       I    between atoms: C5_7  and  N2_8 
REMARK       I    between atoms: C5_7  and  N7_25 
REMARK    4  A    between atoms: N2_8  and  C6_10 
ROOT
HETATM    1  C6  UNL     1      25.932  65.101   9.244  1.00  0.00     0.165 A 
HETATM    2  N3  UNL     1      25.292  63.949   8.980  1.00  0.00    -0.282 N 
ATOM      3  H3  UNL     1      25.133  63.582   8.042  1.00  0.00     0.188 HD
HETATM    4  N4  UNL     1      24.900  63.357  10.077  1.00  0.00    -0.292 N 
ATOM      5  H4  UNL     1      24.396  62.472  10.124  1.00  0.00     0.187 HD
HETATM    6  C7  UNL     1      25.268  64.101  11.132  1.00  0.00     0.147 A 
HETATM    7  C8  UNL     1      25.126  63.976  12.506  1.00  0.00     0.281 A 
HETATM    8  O1  UNL     1      24.521  62.949  12.945  1.00  0.00    -0.265 OA
HETATM    9  N5  UNL     1      25.607  64.901  13.358  1.00  0.00    -0.269 N 
HETATM   10  C9  UNL     1      25.455  64.765  14.785  1.00  0.00     0.164 C 
HETATM   11  C10 UNL     1      26.242  65.974  12.839  1.00  0.00     0.329 A 
HETATM   12  O2  UNL     1      26.705  66.860  13.610  1.00  0.00    -0.246 OA
HETATM   13  N6  UNL     1      26.390  66.114  11.507  1.00  0.00    -0.303 N 
ATOM     14  H6  UNL     1      26.875  66.940  11.155  1.00  0.00     0.171 HD
HETATM   15  C11 UNL     1      25.926  65.216  10.619  1.00  0.00     0.116 A 
ENDROOT
BRANCH   1  16
HETATM   16  N2  UNL     1      26.459  65.959   8.458  1.00  0.00    -0.173 N 
HETATM   17  C5  UNL     1      27.829  66.072   8.179  1.00  0.00     0.675 C 
HETATM   18  N1  UNL     1      28.353  65.518   7.166  1.00  0.00    -0.226 N 
HETATM   19  N7  UNL     1      28.642  66.827   9.057  1.00  0.00    -0.231 N 
ATOM     20  H1  UNL     1      27.726  64.985   6.564  1.00  0.00     0.177 HD
HETATM   21  C12 UNL     1      29.628  66.250   9.945  1.00  0.00     0.165 C 
ATOM     22  H7  UNL     1      28.526  67.840   9.065  1.00  0.00     0.177 HD
ATOM     23  H2  UNL     1      25.832  66.617   7.995  1.00  0.00     0.186 HD
BRANCH  18  24
HETATM   24  C4  UNL     1      29.724  65.560   6.779  1.00  0.00     0.138 C 
BRANCH  24  25
HETATM   25  C3  UNL     1      30.145  66.874   6.181  1.00  0.00     0.020 C 
BRANCH  25  26
HETATM   26  C2  UNL     1      31.635  67.068   6.189  1.00  0.00    -0.003 C 
HETATM   27  C1  UNL     1      32.242  67.016   7.549  1.00  0.00     0.005 C 
ENDBRANCH  25  26
ENDBRANCH  24  25
ENDBRANCH  18  24
ENDBRANCH   1  16
TORSDOF 4
ENDMDL
