MODEL 1
REMARK VINA RESULT: -7.499650887      0.000      0.000
REMARK  3 active torsions:
REMARK  status: ('A' for Active; 'I' for Inactive)
REMARK    1  A    between atoms: C2_2  and  C3_3 
REMARK    2  A    between atoms: C3_3  and  N1_4 
REMARK       I    between atoms: N1_4  and  C5_6 
REMARK       I    between atoms: C5_6  and  N2_8 
REMARK       I    between atoms: N2_8  and  C6_10 
REMARK       I    between atoms: N4_12  and  C7_14 
REMARK       I    between atoms: C7_14  and  N5_16 
REMARK    3  A    between atoms: N5_16  and  N6_17 
ROOT
HETATM    1  N1  UNL     1      29.232  65.704   7.611  1.00  0.00    -0.335 N 
HETATM    2  C4  UNL     1      28.146  66.357   6.880  1.00  0.00     0.154 C 
HETATM    3  C5  UNL     1      28.889  65.043   8.816  1.00  0.00     0.324 C 
HETATM    4  O1  UNL     1      29.766  64.436   9.444  1.00  0.00    -0.247 OA
HETATM    5  N2  UNL     1      27.559  65.066   9.309  1.00  0.00    -0.282 N 
ATOM      6  H2  UNL     1      26.850  65.578   8.785  1.00  0.00     0.173 HD
HETATM    7  C6  UNL     1      27.184  64.415  10.488  1.00  0.00     0.201 C 
HETATM    8  N3  UNL     1      28.253  63.693  11.180  1.00  0.00    -0.063 NA
HETATM    9  N4  UNL     1      26.069  64.355  11.050  1.00  0.00    -0.269 N 
ATOM     10  H4  UNL     1      26.046  63.811  11.913  1.00  0.00     0.174 HD
HETATM   11  C7  UNL     1      24.810  64.941  10.661  1.00  0.00     0.418 C 
HETATM   12  O2  UNL     1      24.752  65.347   9.461  1.00  0.00    -0.228 OA
HETATM   13  N5  UNL     1      23.824  64.992  11.628  1.00  0.00    -0.262 NA
ENDROOT
BRANCH  13  14
HETATM   14  N6  UNL     1      22.927  65.037  12.508  1.00  0.00    -0.193 N 
HETATM   15  C8  UNL     1      22.561  64.565  13.610  1.00  0.00     0.245 C 
HETATM   16  N7  UNL     1      21.327  65.013  14.226  1.00  0.00    -0.344 N 
HETATM   17  O3  UNL     1      23.081  63.633  14.485  1.00  0.00    -0.318 OA
HETATM   18  C9  UNL     1      20.844  63.921  15.053  1.00  0.00     0.048 C 
ATOM     19  H7  UNL     1      20.883  65.922  14.102  1.00  0.00     0.164 HD
HETATM   20  C10 UNL     1      20.148  64.551  16.242  1.00  0.00     0.040 C 
HETATM   21  C11 UNL     1      19.963  62.997  14.275  1.00  0.00     0.040 C 
HETATM   22  C12 UNL     1      22.124  63.223  15.438  1.00  0.00     0.209 C 
ATOM     23  H6  UNL     1      22.228  65.720  12.211  1.00  0.00     0.206 HD
ENDBRANCH  13  14
BRANCH   1  24
HETATM   24  C3  UNL     1      30.580  65.703   7.159  1.00  0.00     0.153 C 
BRANCH  24  25
HETATM   25  C2  UNL     1      31.427  66.791   7.678  1.00  0.00    -0.017 C 
HETATM   26  C1  UNL     1      32.622  66.705   8.183  1.00  0.00     0.008 C 
ENDBRANCH  24  25
ENDBRANCH   1  24
TORSDOF 3
ENDMDL
MODEL 2
REMARK VINA RESULT: -7.154813494      1.699      1.981
REMARK  3 active torsions:
REMARK  status: ('A' for Active; 'I' for Inactive)
REMARK    1  A    between atoms: C2_2  and  C3_3 
REMARK    2  A    between atoms: C3_3  and  N1_4 
REMARK       I    between atoms: N1_4  and  C5_6 
REMARK       I    between atoms: C5_6  and  N2_8 
REMARK       I    between atoms: N2_8  and  C6_10 
REMARK       I    between atoms: N4_12  and  C7_14 
REMARK       I    between atoms: C7_14  and  N5_16 
REMARK    3  A    between atoms: N5_16  and  N6_17 
ROOT
HETATM    1  N1  UNL     1      28.735  65.741   8.527  1.00  0.00    -0.335 N 
HETATM    2  C4  UNL     1      28.978  66.597   9.689  1.00  0.00     0.154 C 
HETATM    3  C5  UNL     1      27.414  65.258   8.351  1.00  0.00     0.324 C 
HETATM    4  O1  UNL     1      27.149  64.571   7.358  1.00  0.00    -0.247 OA
HETATM    5  N2  UNL     1      26.397  65.552   9.295  1.00  0.00    -0.282 N 
ATOM      6  H2  UNL     1      26.633  66.112  10.113  1.00  0.00     0.173 HD
HETATM    7  C6  UNL     1      25.082  65.101   9.146  1.00  0.00     0.201 C 
HETATM    8  N3  UNL     1      24.816  64.311   7.942  1.00  0.00    -0.063 NA
HETATM    9  N4  UNL     1      24.090  65.265   9.889  1.00  0.00    -0.269 N 
ATOM     10  H4  UNL     1      23.226  64.833   9.562  1.00  0.00     0.174 HD
HETATM   11  C7  UNL     1      23.985  65.974  11.141  1.00  0.00     0.418 C 
HETATM   12  O2  UNL     1      24.947  66.759  11.397  1.00  0.00    -0.228 OA
HETATM   13  N5  UNL     1      22.862  65.720  11.906  1.00  0.00    -0.262 NA
ENDROOT
BRANCH  13  14
HETATM   14  N6  UNL     1      21.841  65.489  12.602  1.00  0.00    -0.193 N 
HETATM   15  C8  UNL     1      21.426  64.915  13.636  1.00  0.00     0.245 C 
HETATM   16  N7  UNL     1      20.022  64.975  13.994  1.00  0.00    -0.344 N 
HETATM   17  O3  UNL     1      22.018  64.162  14.630  1.00  0.00    -0.318 OA
HETATM   18  C9  UNL     1      19.728  63.777  14.761  1.00  0.00     0.048 C 
ATOM     19  H7  UNL     1      19.366  65.717  13.752  1.00  0.00     0.164 HD
HETATM   20  C10 UNL     1      18.668  64.160  15.775  1.00  0.00     0.040 C 
HETATM   21  C11 UNL     1      19.315  62.648  13.873  1.00  0.00     0.040 C 
HETATM   22  C12 UNL     1      21.058  63.478  15.405  1.00  0.00     0.209 C 
ATOM     23  H6  UNL     1      21.045  65.943  12.152  1.00  0.00     0.206 HD
ENDBRANCH  13  14
BRANCH   1  24
HETATM   24  C3  UNL     1      29.747  65.398   7.590  1.00  0.00     0.153 C 
BRANCH  24  25
HETATM   25  C2  UNL     1      30.429  66.535   6.945  1.00  0.00    -0.017 C 
HETATM   26  C1  UNL     1      31.673  66.893   7.062  1.00  0.00     0.008 C 
ENDBRANCH  24  25
ENDBRANCH   1  24
TORSDOF 3
ENDMDL
MODEL 3
REMARK VINA RESULT: -7.106610908      1.722      2.091
REMARK  3 active torsions:
REMARK  status: ('A' for Active; 'I' for Inactive)
REMARK    1  A    between atoms: C2_2  and  C3_3 
REMARK    2  A    between atoms: C3_3  and  N1_4 
REMARK       I    between atoms: N1_4  and  C5_6 
REMARK       I    between atoms: C5_6  and  N2_8 
REMARK       I    between atoms: N2_8  and  C6_10 
REMARK       I    between atoms: N4_12  and  C7_14 
REMARK       I    between atoms: C7_14  and  N5_16 
REMARK    3  A    between atoms: N5_16  and  N6_17 
ROOT
HETATM    1  N1  UNL     1      29.069  65.874   8.334  1.00  0.00    -0.335 N 
HETATM    2  C4  UNL     1      29.300  66.681   9.532  1.00  0.00     0.154 C 
HETATM    3  C5  UNL     1      27.792  65.276   8.199  1.00  0.00     0.324 C 
HETATM    4  O1  UNL     1      27.534  64.624   7.179  1.00  0.00    -0.247 OA
HETATM    5  N2  UNL     1      26.809  65.414   9.213  1.00  0.00    -0.282 N 
ATOM      6  H2  UNL     1      27.040  65.946  10.051  1.00  0.00     0.173 HD
HETATM    7  C6  UNL     1      25.536  64.846   9.106  1.00  0.00     0.201 C 
HETATM    8  N3  UNL     1      25.274  64.105   7.871  1.00  0.00    -0.063 NA
HETATM    9  N4  UNL     1      24.579  64.869   9.911  1.00  0.00    -0.269 N 
ATOM     10  H4  UNL     1      23.741  64.375   9.603  1.00  0.00     0.174 HD
HETATM   11  C7  UNL     1      24.483  65.491  11.209  1.00  0.00     0.418 C 
HETATM   12  O2  UNL     1      25.380  66.350  11.462  1.00  0.00    -0.228 OA
HETATM   13  N5  UNL     1      23.436  65.085  12.015  1.00  0.00    -0.262 NA
ENDROOT
BRANCH  13  14
HETATM   14  N6  UNL     1      22.485  64.715  12.749  1.00  0.00    -0.193 N 
HETATM   15  C8  UNL     1      21.592  65.117  13.531  1.00  0.00     0.245 C 
HETATM   16  N7  UNL     1      20.688  64.173  14.159  1.00  0.00    -0.344 N 
HETATM   17  O3  UNL     1      21.200  66.354  14.002  1.00  0.00    -0.318 OA
HETATM   18  C9  UNL     1      20.259  64.764  15.414  1.00  0.00     0.048 C 
ATOM     19  H7  UNL     1      20.407  63.265  13.789  1.00  0.00     0.164 HD
HETATM   20  C10 UNL     1      18.836  64.299  15.650  1.00  0.00     0.040 C 
HETATM   21  C11 UNL     1      21.188  64.410  16.530  1.00  0.00     0.040 C 
HETATM   22  C12 UNL     1      20.339  66.240  15.113  1.00  0.00     0.209 C 
ATOM     23  H6  UNL     1      22.410  63.700  12.682  1.00  0.00     0.206 HD
ENDBRANCH  13  14
BRANCH   1  24
HETATM   24  C3  UNL     1      30.051  65.687   7.324  1.00  0.00     0.153 C 
BRANCH  24  25
HETATM   25  C2  UNL     1      31.007  66.796   7.151  1.00  0.00    -0.017 C 
HETATM   26  C1  UNL     1      32.267  66.823   7.468  1.00  0.00     0.008 C 
ENDBRANCH  24  25
ENDBRANCH   1  24
TORSDOF 3
ENDMDL
MODEL 4
REMARK VINA RESULT: -7.050091407      1.055      1.069
REMARK  3 active torsions:
REMARK  status: ('A' for Active; 'I' for Inactive)
REMARK    1  A    between atoms: C2_2  and  C3_3 
REMARK    2  A    between atoms: C3_3  and  N1_4 
REMARK       I    between atoms: N1_4  and  C5_6 
REMARK       I    between atoms: C5_6  and  N2_8 
REMARK       I    between atoms: N2_8  and  C6_10 
REMARK       I    between atoms: N4_12  and  C7_14 
REMARK       I    between atoms: C7_14  and  N5_16 
REMARK    3  A    between atoms: N5_16  and  N6_17 
ROOT
HETATM    1  N1  UNL     1      29.085  65.558   8.617  1.00  0.00    -0.335 N 
HETATM    2  C4  UNL     1      28.028  65.757   7.625  1.00  0.00     0.154 C 
HETATM    3  C5  UNL     1      28.680  65.167   9.917  1.00  0.00     0.324 C 
HETATM    4  O1  UNL     1      29.540  64.941  10.776  1.00  0.00    -0.247 OA
HETATM    5  N2  UNL     1      27.306  65.033  10.245  1.00  0.00    -0.282 N 
ATOM      6  H2  UNL     1      26.608  65.232   9.528  1.00  0.00     0.173 HD
HETATM    7  C6  UNL     1      26.873  64.639  11.514  1.00  0.00     0.201 C 
HETATM    8  N3  UNL     1      27.930  64.360  12.487  1.00  0.00    -0.063 NA
HETATM    9  N4  UNL     1      25.711  64.489  11.953  1.00  0.00    -0.269 N 
ATOM     10  H4  UNL     1      25.650  64.190  12.926  1.00  0.00     0.174 HD
HETATM   11  C7  UNL     1      24.445  64.676  11.288  1.00  0.00     0.418 C 
HETATM   12  O2  UNL     1      24.505  64.741  10.023  1.00  0.00    -0.228 OA
HETATM   13  N5  UNL     1      23.327  64.760  12.096  1.00  0.00    -0.262 NA
ENDROOT
BRANCH  13  14
HETATM   14  N6  UNL     1      22.309  64.836  12.830  1.00  0.00    -0.193 N 
HETATM   15  C8  UNL     1      21.824  64.486  13.932  1.00  0.00     0.245 C 
HETATM   16  N7  UNL     1      20.481  64.889  14.303  1.00  0.00    -0.344 N 
HETATM   17  O3  UNL     1      22.281  63.738  14.998  1.00  0.00    -0.318 OA
HETATM   18  C9  UNL     1      19.970  63.878  15.211  1.00  0.00     0.048 C 
ATOM     19  H7  UNL     1      19.990  65.724  13.986  1.00  0.00     0.164 HD
HETATM   20  C10 UNL     1      19.060  64.593  16.189  1.00  0.00     0.040 C 
HETATM   21  C11 UNL     1      19.289  62.773  14.470  1.00  0.00     0.040 C 
HETATM   22  C12 UNL     1      21.231  63.370  15.865  1.00  0.00     0.209 C 
ATOM     23  H6  UNL     1      21.610  65.399  12.343  1.00  0.00     0.206 HD
ENDBRANCH  13  14
BRANCH   1  24
HETATM   24  C3  UNL     1      30.465  65.727   8.324  1.00  0.00     0.153 C 
BRANCH  24  25
HETATM   25  C2  UNL     1      30.797  66.872   7.456  1.00  0.00    -0.017 C 
HETATM   26  C1  UNL     1      31.537  66.878   6.388  1.00  0.00     0.008 C 
ENDBRANCH  24  25
ENDBRANCH   1  24
TORSDOF 3
ENDMDL
MODEL 5
REMARK VINA RESULT: -6.969459597      2.554      9.512
REMARK  3 active torsions:
REMARK  status: ('A' for Active; 'I' for Inactive)
REMARK    1  A    between atoms: C2_2  and  C3_3 
REMARK    2  A    between atoms: C3_3  and  N1_4 
REMARK       I    between atoms: N1_4  and  C5_6 
REMARK       I    between atoms: C5_6  and  N2_8 
REMARK       I    between atoms: N2_8  and  C6_10 
REMARK       I    between atoms: N4_12  and  C7_14 
REMARK       I    between atoms: C7_14  and  N5_16 
REMARK    3  A    between atoms: N5_16  and  N6_17 
ROOT
HETATM    1  N1  UNL     1      24.434  64.597  16.750  1.00  0.00    -0.335 N 
HETATM    2  C4  UNL     1      25.737  64.910  17.336  1.00  0.00     0.154 C 
HETATM    3  C5  UNL     1      24.412  64.265  15.372  1.00  0.00     0.324 C 
HETATM    4  O1  UNL     1      23.340  63.947  14.844  1.00  0.00    -0.247 OA
HETATM    5  N2  UNL     1      25.598  64.294  14.595  1.00  0.00    -0.282 N 
ATOM      6  H2  UNL     1      26.472  64.568  15.043  1.00  0.00     0.173 HD
HETATM    7  C6  UNL     1      25.614  63.963  13.236  1.00  0.00     0.201 C 
HETATM    8  N3  UNL     1      24.324  63.570  12.665  1.00  0.00    -0.063 NA
HETATM    9  N4  UNL     1      26.565  63.953  12.426  1.00  0.00    -0.269 N 
ATOM     10  H4  UNL     1      26.323  63.670  11.476  1.00  0.00     0.174 HD
HETATM   11  C7  UNL     1      27.955  64.281  12.633  1.00  0.00     0.418 C 
HETATM   12  O2  UNL     1      28.321  64.329  13.845  1.00  0.00    -0.228 OA
HETATM   13  N5  UNL     1      28.716  64.501  11.500  1.00  0.00    -0.262 NA
ENDROOT
BRANCH  13  14
HETATM   14  N6  UNL     1      29.408  64.701  10.470  1.00  0.00    -0.193 N 
HETATM   15  C8  UNL     1      29.608  65.493   9.520  1.00  0.00     0.245 C 
HETATM   16  N7  UNL     1      30.621  65.202   8.524  1.00  0.00    -0.344 N 
HETATM   17  O3  UNL     1      29.060  66.699   9.132  1.00  0.00    -0.318 OA
HETATM   18  C9  UNL     1      30.208  65.854   7.293  1.00  0.00     0.048 C 
ATOM     19  H7  UNL     1      31.464  64.644   8.661  1.00  0.00     0.164 HD
HETATM   20  C10 UNL     1      31.475  66.276   6.578  1.00  0.00     0.040 C 
HETATM   21  C11 UNL     1      29.334  64.963   6.471  1.00  0.00     0.040 C 
HETATM   22  C12 UNL     1      29.418  67.032   7.809  1.00  0.00     0.209 C 
ATOM     23  H6  UNL     1      30.055  63.918  10.369  1.00  0.00     0.206 HD
ENDBRANCH  13  14
BRANCH   1  24
HETATM   24  C3  UNL     1      23.225  64.601  17.498  1.00  0.00     0.153 C 
BRANCH  24  25
HETATM   25  C2  UNL     1      22.714  65.932  17.874  1.00  0.00    -0.017 C 
HETATM   26  C1  UNL     1      22.002  66.748  17.155  1.00  0.00     0.008 C 
ENDBRANCH  24  25
ENDBRANCH   1  24
TORSDOF 3
ENDMDL
