MODEL 1
REMARK VINA RESULT: -7.260261196      0.000      0.000
REMARK  5 active torsions:
REMARK  status: ('A' for Active; 'I' for Inactive)
REMARK    1  A    between atoms: C2_2  and  N1_3 
REMARK       I    between atoms: C3_5  and  N3_7 
REMARK       I    between atoms: C4_9  and  N5_11 
REMARK    2  A    between atoms: N5_11  and  N6_13 
REMARK    3  A    between atoms: N6_13  and  C5_15 
REMARK    4  A    between atoms: C5_15  and  C6_17 
REMARK    5  A    between atoms: C6_17  and  C7_18 
ROOT
HETATM    1  N6  UNL     1      28.627  63.933  13.329  1.00  0.00    -0.291 N 
ATOM      2  H6  UNL     1      28.802  62.928  13.342  1.00  0.00     0.187 HD
ENDROOT
BRANCH   1   3
HETATM    3  N5  UNL     1      29.438  64.745  12.541  1.00  0.00    -0.273 N 
HETATM    4  C4  UNL     1      29.218  64.935  11.149  1.00  0.00     0.209 C 
HETATM    5  N3  UNL     1      29.227  66.135  10.668  1.00  0.00    -0.304 N 
HETATM    6  N4  UNL     1      28.997  63.778  10.351  1.00  0.00    -0.062 NA
HETATM    7  C3  UNL     1      29.007  66.304   9.284  1.00  0.00     0.190 C 
ATOM      8  H3  UNL     1      29.389  66.939  11.274  1.00  0.00     0.171 HD
HETATM    9  N1  UNL     1      29.956  66.656   8.533  1.00  0.00    -0.365 N 
HETATM   10  N2  UNL     1      27.722  66.075   8.761  1.00  0.00    -0.063 NA
ATOM     11  H1  UNL     1      30.862  66.805   8.977  1.00  0.00     0.162 HD
ATOM     12  H5  UNL     1      30.224  65.225  12.981  1.00  0.00     0.189 HD
BRANCH   9  13
HETATM   13  C2  UNL     1      29.889  66.869   7.113  1.00  0.00     0.118 C 
HETATM   14  C1  UNL     1      31.243  66.861   6.451  1.00  0.00     0.026 C 
ENDBRANCH   9  13
ENDBRANCH   1   3
BRANCH   1  15
HETATM   15  C5  UNL     1      27.572  64.450  14.110  1.00  0.00     0.095 C 
HETATM   16  S1  UNL     1      27.996  65.553  15.243  1.00  0.00    -0.064 SA
BRANCH  15  17
HETATM   17  C6  UNL     1      26.173  64.106  14.008  1.00  0.00     0.111 C 
BRANCH  17  18
HETATM   18  C7  UNL     1      25.593  63.875  12.683  1.00  0.00     0.091 C 
HETATM   19  C8  UNL     1      24.100  63.563  12.886  1.00  0.00     0.049 C 
HETATM   20  C9  UNL     1      25.665  64.953  11.679  1.00  0.00     0.166 C 
HETATM   21  N7  UNL     1      25.193  64.252  10.493  1.00  0.00    -0.329 N 
HETATM   22  C10 UNL     1      24.460  64.800   9.388  1.00  0.00     0.155 C 
HETATM   23  C11 UNL     1      25.623  62.901  10.686  1.00  0.00     0.363 C 
HETATM   24  O1  UNL     1      25.572  61.981   9.819  1.00  0.00    -0.238 OA
HETATM   25  O2  UNL     1      26.111  62.755  11.988  1.00  0.00    -0.291 OA
ENDBRANCH  17  18
ENDBRANCH  15  17
ENDBRANCH   1  15
TORSDOF 5
ENDMDL
MODEL 2
REMARK VINA RESULT: -6.869339725      1.155      1.178
REMARK  5 active torsions:
REMARK  status: ('A' for Active; 'I' for Inactive)
REMARK    1  A    between atoms: C2_2  and  N1_3 
REMARK       I    between atoms: C3_5  and  N3_7 
REMARK       I    between atoms: C4_9  and  N5_11 
REMARK    2  A    between atoms: N5_11  and  N6_13 
REMARK    3  A    between atoms: N6_13  and  C5_15 
REMARK    4  A    between atoms: C5_15  and  C6_17 
REMARK    5  A    between atoms: C6_17  and  C7_18 
ROOT
HETATM    1  N6  UNL     1      28.847  65.547  13.523  1.00  0.00    -0.291 N 
ATOM      2  H6  UNL     1      29.553  64.842  13.733  1.00  0.00     0.187 HD
ENDROOT
BRANCH   1   3
HETATM    3  N5  UNL     1      29.086  66.452  12.492  1.00  0.00    -0.273 N 
HETATM    4  C4  UNL     1      29.193  66.057  11.130  1.00  0.00     0.209 C 
HETATM    5  N3  UNL     1      28.534  66.711  10.231  1.00  0.00    -0.304 N 
HETATM    6  N4  UNL     1      30.032  64.948  10.828  1.00  0.00    -0.062 NA
HETATM    7  C3  UNL     1      28.652  66.304   8.884  1.00  0.00     0.190 C 
ATOM      8  H3  UNL     1      27.942  67.501  10.489  1.00  0.00     0.171 HD
HETATM    9  N1  UNL     1      29.283  67.021   8.063  1.00  0.00    -0.365 N 
HETATM   10  N2  UNL     1      28.061  65.095   8.478  1.00  0.00    -0.063 NA
ATOM     11  H1  UNL     1      29.689  67.885   8.424  1.00  0.00     0.162 HD
ATOM     12  H5  UNL     1      29.188  67.440  12.723  1.00  0.00     0.189 HD
BRANCH   9  13
HETATM   13  C2  UNL     1      29.489  66.744   6.667  1.00  0.00     0.118 C 
HETATM   14  C1  UNL     1      30.945  66.754   6.273  1.00  0.00     0.026 C 
ENDBRANCH   9  13
ENDBRANCH   1   3
BRANCH   1  15
HETATM   15  C5  UNL     1      27.662  65.571  14.289  1.00  0.00     0.095 C 
HETATM   16  S1  UNL     1      27.853  65.817  15.896  1.00  0.00    -0.064 SA
BRANCH  15  17
HETATM   17  C6  UNL     1      26.313  65.404  13.798  1.00  0.00     0.111 C 
BRANCH  17  18
HETATM   18  C7  UNL     1      26.057  64.417  12.747  1.00  0.00     0.091 C 
HETATM   19  C8  UNL     1      24.914  63.511  13.239  1.00  0.00     0.049 C 
HETATM   20  C9  UNL     1      25.672  64.892  11.406  1.00  0.00     0.166 C 
HETATM   21  N7  UNL     1      25.732  63.648  10.649  1.00  0.00    -0.329 N 
HETATM   22  C10 UNL     1      24.931  63.274   9.519  1.00  0.00     0.155 C 
HETATM   23  C11 UNL     1      26.764  62.893  11.291  1.00  0.00     0.363 C 
HETATM   24  O1  UNL     1      27.266  61.816  10.857  1.00  0.00    -0.238 OA
HETATM   25  O2  UNL     1      27.132  63.535  12.477  1.00  0.00    -0.291 OA
ENDBRANCH  17  18
ENDBRANCH  15  17
ENDBRANCH   1  15
TORSDOF 5
ENDMDL
MODEL 3
REMARK VINA RESULT: -6.849806319      1.970      2.480
REMARK  5 active torsions:
REMARK  status: ('A' for Active; 'I' for Inactive)
REMARK    1  A    between atoms: C2_2  and  N1_3 
REMARK       I    between atoms: C3_5  and  N3_7 
REMARK       I    between atoms: C4_9  and  N5_11 
REMARK    2  A    between atoms: N5_11  and  N6_13 
REMARK    3  A    between atoms: N6_13  and  C5_15 
REMARK    4  A    between atoms: C5_15  and  C6_17 
REMARK    5  A    between atoms: C6_17  and  C7_18 
ROOT
HETATM    1  N6  UNL     1      26.938  67.333  12.779  1.00  0.00    -0.291 N 
ATOM      2  H6  UNL     1      27.516  67.675  13.547  1.00  0.00     0.187 HD
ENDROOT
BRANCH   1   3
HETATM    3  N5  UNL     1      27.220  67.763  11.484  1.00  0.00    -0.273 N 
HETATM    4  C4  UNL     1      28.183  67.128  10.653  1.00  0.00     0.209 C 
HETATM    5  N3  UNL     1      27.867  66.833   9.436  1.00  0.00    -0.304 N 
HETATM    6  N4  UNL     1      29.459  66.847  11.217  1.00  0.00    -0.062 NA
HETATM    7  C3  UNL     1      28.835  66.203   8.625  1.00  0.00     0.190 C 
ATOM      8  H3  UNL     1      26.940  67.051   9.069  1.00  0.00     0.171 HD
HETATM    9  N1  UNL     1      29.378  66.837   7.681  1.00  0.00    -0.365 N 
HETATM   10  N2  UNL     1      29.184  64.866   8.888  1.00  0.00    -0.063 NA
ATOM     11  H1  UNL     1      29.080  67.803   7.547  1.00  0.00     0.162 HD
ATOM     12  H5  UNL     1      26.713  68.569  11.117  1.00  0.00     0.189 HD
BRANCH   9  13
HETATM   13  C2  UNL     1      30.375  66.335   6.775  1.00  0.00     0.118 C 
HETATM   14  C1  UNL     1      31.762  66.837   7.087  1.00  0.00     0.026 C 
ENDBRANCH   9  13
ENDBRANCH   1   3
BRANCH   1  15
HETATM   15  C5  UNL     1      25.883  66.442  13.065  1.00  0.00     0.095 C 
HETATM   16  S1  UNL     1      24.419  67.127  13.328  1.00  0.00    -0.064 SA
BRANCH  15  17
HETATM   17  C6  UNL     1      25.967  65.002  13.147  1.00  0.00     0.111 C 
BRANCH  17  18
HETATM   18  C7  UNL     1      25.962  64.219  11.910  1.00  0.00     0.091 C 
HETATM   19  C8  UNL     1      27.290  63.444  11.854  1.00  0.00     0.049 C 
HETATM   20  C9  UNL     1      24.888  63.231  11.700  1.00  0.00     0.166 C 
HETATM   21  N7  UNL     1      25.128  62.859  10.312  1.00  0.00    -0.329 N 
HETATM   22  C10 UNL     1      24.886  61.587   9.694  1.00  0.00     0.155 C 
HETATM   23  C11 UNL     1      25.659  64.046   9.714  1.00  0.00     0.363 C 
HETATM   24  O1  UNL     1      25.852  64.224   8.477  1.00  0.00    -0.238 OA
HETATM   25  O2  UNL     1      25.932  64.981  10.716  1.00  0.00    -0.291 OA
ENDBRANCH  17  18
ENDBRANCH  15  17
ENDBRANCH   1  15
TORSDOF 5
ENDMDL
MODEL 4
REMARK VINA RESULT: -6.732956644      3.253      6.237
REMARK  5 active torsions:
REMARK  status: ('A' for Active; 'I' for Inactive)
REMARK    1  A    between atoms: C2_2  and  N1_3 
REMARK       I    between atoms: C3_5  and  N3_7 
REMARK       I    between atoms: C4_9  and  N5_11 
REMARK    2  A    between atoms: N5_11  and  N6_13 
REMARK    3  A    between atoms: N6_13  and  C5_15 
REMARK    4  A    between atoms: C5_15  and  C6_17 
REMARK    5  A    between atoms: C6_17  and  C7_18 
ROOT
HETATM    1  N6  UNL     1      26.146  66.863   9.367  1.00  0.00    -0.291 N 
ATOM      2  H6  UNL     1      25.197  67.212   9.498  1.00  0.00     0.187 HD
ENDROOT
BRANCH   1   3
HETATM    3  N5  UNL     1      27.144  67.286  10.242  1.00  0.00    -0.273 N 
HETATM    4  C4  UNL     1      27.305  66.745  11.547  1.00  0.00     0.209 C 
HETATM    5  N3  UNL     1      28.482  66.381  11.936  1.00  0.00    -0.304 N 
HETATM    6  N4  UNL     1      26.144  66.634  12.363  1.00  0.00    -0.062 NA
HETATM    7  C3  UNL     1      28.622  65.846  13.235  1.00  0.00     0.190 C 
ATOM      8  H3  UNL     1      29.289  66.477  11.320  1.00  0.00     0.171 HD
HETATM    9  N1  UNL     1      29.204  66.513  14.132  1.00  0.00    -0.365 N 
HETATM   10  N2  UNL     1      28.104  64.567  13.511  1.00  0.00    -0.063 NA
ATOM     11  H1  UNL     1      29.555  67.433  13.866  1.00  0.00     0.162 HD
ATOM     12  H5  UNL     1      27.787  68.015   9.933  1.00  0.00     0.189 HD
BRANCH   9  13
HETATM   13  C2  UNL     1      29.424  66.106  15.494  1.00  0.00     0.118 C 
HETATM   14  C1  UNL     1      30.229  67.105  16.285  1.00  0.00     0.026 C 
ENDBRANCH   9  13
ENDBRANCH   1   3
BRANCH   1  15
HETATM   15  C5  UNL     1      26.402  65.970   8.305  1.00  0.00     0.095 C 
HETATM   16  S1  UNL     1      25.446  64.643   8.241  1.00  0.00    -0.064 SA
BRANCH  15  17
HETATM   17  C6  UNL     1      27.412  66.111   7.282  1.00  0.00     0.111 C 
BRANCH  17  18
HETATM   18  C7  UNL     1      28.818  65.903   7.639  1.00  0.00     0.091 C 
HETATM   19  C8  UNL     1      29.364  64.798   6.717  1.00  0.00     0.049 C 
HETATM   20  C9  UNL     1      29.752  67.039   7.535  1.00  0.00     0.166 C 
HETATM   21  N7  UNL     1      30.936  66.476   8.169  1.00  0.00    -0.329 N 
HETATM   22  C10 UNL     1      32.308  66.771   7.872  1.00  0.00     0.155 C 
HETATM   23  C11 UNL     1      30.417  65.569   9.146  1.00  0.00     0.363 C 
HETATM   24  O1  UNL     1      31.093  64.986  10.042  1.00  0.00    -0.238 OA
HETATM   25  O2  UNL     1      29.040  65.427   8.954  1.00  0.00    -0.291 OA
ENDBRANCH  17  18
ENDBRANCH  15  17
ENDBRANCH   1  15
TORSDOF 5
ENDMDL
MODEL 5
REMARK VINA RESULT: -6.614203597      1.566      1.804
REMARK  5 active torsions:
REMARK  status: ('A' for Active; 'I' for Inactive)
REMARK    1  A    between atoms: C2_2  and  N1_3 
REMARK       I    between atoms: C3_5  and  N3_7 
REMARK       I    between atoms: C4_9  and  N5_11 
REMARK    2  A    between atoms: N5_11  and  N6_13 
REMARK    3  A    between atoms: N6_13  and  C5_15 
REMARK    4  A    between atoms: C5_15  and  C6_17 
REMARK    5  A    between atoms: C6_17  and  C7_18 
ROOT
HETATM    1  N6  UNL     1      27.157  63.016  13.844  1.00  0.00    -0.291 N 
ATOM      2  H6  UNL     1      26.851  62.057  13.680  1.00  0.00     0.187 HD
ENDROOT
BRANCH   1   3
HETATM    3  N5  UNL     1      28.426  63.399  13.417  1.00  0.00    -0.273 N 
HETATM    4  C4  UNL     1      28.666  63.993  12.147  1.00  0.00     0.209 C 
HETATM    5  N3  UNL     1      29.394  65.058  12.079  1.00  0.00    -0.304 N 
HETATM    6  N4  UNL     1      28.082  63.373  11.007  1.00  0.00    -0.062 NA
HETATM    7  C3  UNL     1      29.621  65.635  10.810  1.00  0.00     0.190 C 
ATOM      8  H3  UNL     1      29.794  65.473  12.920  1.00  0.00     0.171 HD
HETATM    9  N1  UNL     1      30.762  65.563  10.280  1.00  0.00    -0.365 N 
HETATM   10  N2  UNL     1      28.561  66.283  10.151  1.00  0.00    -0.063 NA
ATOM     11  H1  UNL     1      31.485  65.078  10.811  1.00  0.00     0.162 HD
ATOM     12  H5  UNL     1      29.218  63.246  14.042  1.00  0.00     0.189 HD
BRANCH   9  13
HETATM   13  C2  UNL     1      31.146  66.097   9.002  1.00  0.00     0.118 C 
HETATM   14  C1  UNL     1      32.612  66.442   8.924  1.00  0.00     0.026 C 
ENDBRANCH   9  13
ENDBRANCH   1   3
BRANCH   1  15
HETATM   15  C5  UNL     1      26.279  63.908  14.495  1.00  0.00     0.095 C 
HETATM   16  S1  UNL     1      26.877  64.659  15.822  1.00  0.00    -0.064 SA
BRANCH  15  17
HETATM   17  C6  UNL     1      24.922  64.221  14.110  1.00  0.00     0.111 C 
BRANCH  17  18
HETATM   18  C7  UNL     1      24.660  64.681  12.745  1.00  0.00     0.091 C 
HETATM   19  C8  UNL     1      23.196  65.153  12.696  1.00  0.00     0.049 C 
HETATM   20  C9  UNL     1      25.476  65.779  12.197  1.00  0.00     0.166 C 
HETATM   21  N7  UNL     1      25.051  65.765  10.804  1.00  0.00    -0.329 N 
HETATM   22  C10 UNL     1      24.964  66.881   9.906  1.00  0.00     0.155 C 
HETATM   23  C11 UNL     1      24.740  64.393  10.542  1.00  0.00     0.363 C 
HETATM   24  O1  UNL     1      24.490  63.898   9.405  1.00  0.00    -0.238 OA
HETATM   25  O2  UNL     1      24.756  63.682  11.746  1.00  0.00    -0.291 OA
ENDBRANCH  17  18
ENDBRANCH  15  17
ENDBRANCH   1  15
TORSDOF 5
ENDMDL
