MODEL 1
REMARK VINA RESULT: -8.599272827      0.000      0.000
REMARK  6 active torsions:
REMARK  status: ('A' for Active; 'I' for Inactive)
REMARK       I    between atoms: C2_2  and  N1_4 
REMARK    1  A    between atoms: N1_4  and  C3_6 
REMARK    2  A    between atoms: C3_6  and  C4_7 
REMARK    3  A    between atoms: C4_7  and  N2_8 
REMARK    4  A    between atoms: N3_12  and  C8_13 
REMARK    5  A    between atoms: C8_13  and  O2_14 
REMARK    6  A    between atoms: C8_13  and  N4_16 
ROOT
HETATM    1  C8  UNL     1      27.798  65.926   9.640  1.00  0.00     0.217 C 
ENDROOT
BRANCH   1   2
HETATM    2  N3  UNL     1      27.769  66.650  10.841  1.00  0.00    -0.346 N 
HETATM    3  C7  UNL     1      26.879  67.742  11.117  1.00  0.00     0.128 C 
HETATM    4  C6  UNL     1      25.773  67.200  12.035  1.00  0.00     0.050 C 
HETATM    5  C5  UNL     1      26.488  66.790  13.310  1.00  0.00     0.274 C 
HETATM    6  N2  UNL     1      26.810  65.390  13.179  1.00  0.00     0.091 N 
HETATM    7  C16 UNL     1      28.190  65.243  12.838  1.00  0.00     0.292 C 
HETATM    8  C15 UNL     1      28.741  66.207  11.868  1.00  0.00     0.156 C 
BRANCH   6   9
HETATM    9  C4  UNL     1      26.598  64.667  14.425  1.00  0.00     0.292 C 
BRANCH   9  10
HETATM   10  C3  UNL     1      25.934  65.497  15.468  1.00  0.00     0.152 C 
BRANCH  10  11
HETATM   11  N1  UNL     1      24.761  64.814  15.956  1.00  0.00    -0.360 N 
HETATM   12  C2  UNL     1      24.268  64.841  17.275  1.00  0.00     0.213 C 
HETATM   13  C1  UNL     1      23.033  64.083  17.624  1.00  0.00     0.117 C 
HETATM   14  O1  UNL     1      24.846  65.489  18.155  1.00  0.00    -0.274 OA
ATOM     15  H1  UNL     1      24.238  64.256  15.280  1.00  0.00     0.162 HD
ENDBRANCH  10  11
ENDBRANCH   9  10
ENDBRANCH   6   9
ENDBRANCH   1   2
BRANCH   1  16
HETATM   16  O2  UNL     1      26.939  64.920   9.659  1.00  0.00    -0.332 OA
ATOM     17  H2  UNL     1      26.936  64.449   8.835  1.00  0.00     0.220 HD
ENDBRANCH   1  16
BRANCH   1  18
HETATM   18  N4  UNL     1      28.547  66.071   8.468  1.00  0.00    -0.343 N 
HETATM   19  C9  UNL     1      28.140  66.707   7.240  1.00  0.00     0.133 C 
HETATM   20  C10 UNL     1      29.090  66.436   6.073  1.00  0.00     0.079 C 
HETATM   21  C11 UNL     1      30.443  66.864   6.497  1.00  0.00     0.039 A 
HETATM   22  N5  UNL     1      31.430  67.612   6.000  1.00  0.00    -0.303 N 
HETATM   23  C13 UNL     1      30.837  66.369   7.741  1.00  0.00     0.029 A 
HETATM   24  N6  UNL     1      32.413  67.605   6.876  1.00  0.00    -0.285 N 
ATOM     25  H5  UNL     1      31.424  68.102   5.105  1.00  0.00     0.186 HD
HETATM   26  C12 UNL     1      32.093  66.857   7.957  1.00  0.00     0.123 A 
ATOM     27  H6  UNL     1      33.298  68.098   6.756  1.00  0.00     0.188 HD
HETATM   28  N7  UNL     1      32.855  66.662   8.982  1.00  0.00    -0.384 N 
ATOM     29  H72 UNL     1      33.794  67.026   9.143  1.00  0.00     0.157 HD
ATOM     30  H71 UNL     1      32.615  66.098   9.797  1.00  0.00     0.157 HD
HETATM   31  C14 UNL     1      29.931  65.506   8.530  1.00  0.00     0.171 C 
ENDBRANCH   1  18
TORSDOF 6
ENDMDL
MODEL 2
REMARK VINA RESULT: -8.597927718      1.118      1.714
REMARK  6 active torsions:
REMARK  status: ('A' for Active; 'I' for Inactive)
REMARK       I    between atoms: C2_2  and  N1_4 
REMARK    1  A    between atoms: N1_4  and  C3_6 
REMARK    2  A    between atoms: C3_6  and  C4_7 
REMARK    3  A    between atoms: C4_7  and  N2_8 
REMARK    4  A    between atoms: N3_12  and  C8_13 
REMARK    5  A    between atoms: C8_13  and  O2_14 
REMARK    6  A    between atoms: C8_13  and  N4_16 
ROOT
HETATM    1  C8  UNL     1      27.903  66.097   9.830  1.00  0.00     0.217 C 
ENDROOT
BRANCH   1   2
HETATM    2  N3  UNL     1      27.296  65.036  10.517  1.00  0.00    -0.346 N 
HETATM    3  C7  UNL     1      28.005  63.994  11.206  1.00  0.00     0.128 C 
HETATM    4  C6  UNL     1      27.925  64.313  12.706  1.00  0.00     0.050 C 
HETATM    5  C5  UNL     1      26.447  64.235  13.047  1.00  0.00     0.274 C 
HETATM    6  N2  UNL     1      25.919  65.572  12.924  1.00  0.00     0.091 N 
HETATM    7  C16 UNL     1      25.214  65.698  11.687  1.00  0.00     0.292 C 
HETATM    8  C15 UNL     1      25.814  65.046  10.509  1.00  0.00     0.156 C 
BRANCH   6   9
HETATM    9  C4  UNL     1      24.974  65.880  13.988  1.00  0.00     0.292 C 
BRANCH   9  10
HETATM   10  C3  UNL     1      25.408  65.357  15.314  1.00  0.00     0.152 C 
BRANCH  10  11
HETATM   11  N1  UNL     1      24.294  64.714  15.968  1.00  0.00    -0.360 N 
HETATM   12  C2  UNL     1      23.998  64.757  17.344  1.00  0.00     0.213 C 
HETATM   13  C1  UNL     1      22.801  64.041  17.871  1.00  0.00     0.117 C 
HETATM   14  O1  UNL     1      24.719  65.383  18.129  1.00  0.00    -0.274 OA
ATOM     15  H1  UNL     1      23.660  64.176  15.377  1.00  0.00     0.162 HD
ENDBRANCH  10  11
ENDBRANCH   9  10
ENDBRANCH   6   9
ENDBRANCH   1   2
BRANCH   1  16
HETATM   16  O2  UNL     1      27.781  67.237  10.490  1.00  0.00    -0.332 OA
ATOM     17  H2  UNL     1      28.104  67.970   9.981  1.00  0.00     0.220 HD
ENDBRANCH   1  16
BRANCH   1  18
HETATM   18  N4  UNL     1      28.591  66.163   8.614  1.00  0.00    -0.343 N 
HETATM   19  C9  UNL     1      28.127  66.732   7.373  1.00  0.00     0.133 C 
HETATM   20  C10 UNL     1      29.012  66.381   6.177  1.00  0.00     0.079 C 
HETATM   21  C11 UNL     1      30.389  66.815   6.504  1.00  0.00     0.039 A 
HETATM   22  N5  UNL     1      31.357  67.521   5.914  1.00  0.00    -0.303 N 
HETATM   23  C13 UNL     1      30.843  66.389   7.753  1.00  0.00     0.029 A 
HETATM   24  N6  UNL     1      32.384  67.551   6.737  1.00  0.00    -0.285 N 
ATOM     25  H5  UNL     1      31.309  67.957   4.993  1.00  0.00     0.186 HD
HETATM   26  C12 UNL     1      32.114  66.871   7.875  1.00  0.00     0.123 A 
ATOM     27  H6  UNL     1      33.266  68.025   6.542  1.00  0.00     0.188 HD
HETATM   28  N7  UNL     1      32.927  66.726   8.869  1.00  0.00    -0.384 N 
ATOM     29  H72 UNL     1      33.876  67.087   8.960  1.00  0.00     0.157 HD
ATOM     30  H71 UNL     1      32.723  66.214   9.727  1.00  0.00     0.157 HD
HETATM   31  C14 UNL     1      29.971  65.584   8.637  1.00  0.00     0.171 C 
ENDBRANCH   1  18
TORSDOF 6
ENDMDL
MODEL 3
REMARK VINA RESULT: -8.572692911      2.824      4.205
REMARK  6 active torsions:
REMARK  status: ('A' for Active; 'I' for Inactive)
REMARK       I    between atoms: C2_2  and  N1_4 
REMARK    1  A    between atoms: N1_4  and  C3_6 
REMARK    2  A    between atoms: C3_6  and  C4_7 
REMARK    3  A    between atoms: C4_7  and  N2_8 
REMARK    4  A    between atoms: N3_12  and  C8_13 
REMARK    5  A    between atoms: C8_13  and  O2_14 
REMARK    6  A    between atoms: C8_13  and  N4_16 
ROOT
HETATM    1  C8  UNL     1      29.153  66.681  11.302  1.00  0.00     0.217 C 
ENDROOT
BRANCH   1   2
HETATM    2  N3  UNL     1      28.382  66.008  12.261  1.00  0.00    -0.346 N 
HETATM    3  C7  UNL     1      27.309  66.600  13.011  1.00  0.00     0.128 C 
HETATM    4  C6  UNL     1      25.997  66.107  12.383  1.00  0.00     0.050 C 
HETATM    5  C5  UNL     1      26.000  64.603  12.596  1.00  0.00     0.274 C 
HETATM    6  N2  UNL     1      26.573  64.014  11.411  1.00  0.00     0.091 N 
HETATM    7  C16 UNL     1      27.931  63.645  11.665  1.00  0.00     0.292 C 
HETATM    8  C15 UNL     1      28.735  64.584  12.467  1.00  0.00     0.156 C 
BRANCH   6   9
HETATM    9  C4  UNL     1      25.869  62.802  11.015  1.00  0.00     0.292 C 
BRANCH   9  10
HETATM   10  C3  UNL     1      25.045  62.988   9.788  1.00  0.00     0.152 C 
BRANCH  10  11
HETATM   11  N1  UNL     1      24.703  64.383   9.643  1.00  0.00    -0.360 N 
HETATM   12  C2  UNL     1      24.997  65.202   8.537  1.00  0.00     0.213 C 
HETATM   13  C1  UNL     1      24.569  66.630   8.534  1.00  0.00     0.117 C 
HETATM   14  O1  UNL     1      25.608  64.755   7.560  1.00  0.00    -0.274 OA
ATOM     15  H1  UNL     1      24.199  64.816  10.417  1.00  0.00     0.162 HD
ENDBRANCH  10  11
ENDBRANCH   9  10
ENDBRANCH   6   9
ENDBRANCH   1   2
BRANCH   1  16
HETATM   16  O2  UNL     1      29.891  67.632  11.852  1.00  0.00    -0.332 OA
ATOM     17  H2  UNL     1      29.490  68.487  11.752  1.00  0.00     0.220 HD
ENDBRANCH   1  16
BRANCH   1  18
HETATM   18  N4  UNL     1      29.276  66.534   9.917  1.00  0.00    -0.343 N 
HETATM   19  C9  UNL     1      28.326  66.922   8.904  1.00  0.00     0.133 C 
HETATM   20  C10 UNL     1      28.651  66.358   7.521  1.00  0.00     0.079 C 
HETATM   21  C11 UNL     1      30.027  66.786   7.181  1.00  0.00     0.039 A 
HETATM   22  N5  UNL     1      30.644  67.355   6.143  1.00  0.00    -0.303 N 
HETATM   23  C13 UNL     1      30.967  66.540   8.183  1.00  0.00     0.029 A 
HETATM   24  N6  UNL     1      31.918  67.474   6.456  1.00  0.00    -0.285 N 
ATOM     25  H5  UNL     1      30.208  67.646   5.268  1.00  0.00     0.186 HD
HETATM   26  C12 UNL     1      32.160  66.988   7.695  1.00  0.00     0.123 A 
ATOM     27  H6  UNL     1      32.627  67.879   5.845  1.00  0.00     0.188 HD
HETATM   28  N7  UNL     1      33.314  66.968   8.276  1.00  0.00    -0.384 N 
ATOM     29  H72 UNL     1      34.206  67.303   7.911  1.00  0.00     0.157 HD
ATOM     30  H71 UNL     1      33.497  66.602   9.210  1.00  0.00     0.157 HD
HETATM   31  C14 UNL     1      30.560  65.915   9.461  1.00  0.00     0.171 C 
ENDBRANCH   1  18
TORSDOF 6
ENDMDL
MODEL 4
REMARK VINA RESULT: -8.557666657      1.982      2.589
REMARK  6 active torsions:
REMARK  status: ('A' for Active; 'I' for Inactive)
REMARK       I    between atoms: C2_2  and  N1_4 
REMARK    1  A    between atoms: N1_4  and  C3_6 
REMARK    2  A    between atoms: C3_6  and  C4_7 
REMARK    3  A    between atoms: C4_7  and  N2_8 
REMARK    4  A    between atoms: N3_12  and  C8_13 
REMARK    5  A    between atoms: C8_13  and  O2_14 
REMARK    6  A    between atoms: C8_13  and  N4_16 
ROOT
HETATM    1  C8  UNL     1      27.516  66.089   9.219  1.00  0.00     0.217 C 
ENDROOT
BRANCH   1   2
HETATM    2  N3  UNL     1      26.544  66.973   9.710  1.00  0.00    -0.346 N 
HETATM    3  C7  UNL     1      25.201  67.073   9.212  1.00  0.00     0.128 C 
HETATM    4  C6  UNL     1      24.293  66.353  10.220  1.00  0.00     0.050 C 
HETATM    5  C5  UNL     1      24.421  67.153  11.504  1.00  0.00     0.274 C 
HETATM    6  N2  UNL     1      25.465  66.532  12.282  1.00  0.00     0.091 N 
HETATM    7  C16 UNL     1      26.670  67.292  12.165  1.00  0.00     0.292 C 
HETATM    8  C15 UNL     1      26.986  67.835  10.832  1.00  0.00     0.156 C 
BRANCH   6   9
HETATM    9  C4  UNL     1      25.127  66.481  13.698  1.00  0.00     0.292 C 
BRANCH   9  10
HETATM   10  C3  UNL     1      24.969  65.089  14.203  1.00  0.00     0.152 C 
BRANCH  10  11
HETATM   11  N1  UNL     1      26.256  64.439  14.241  1.00  0.00    -0.360 N 
HETATM   12  C2  UNL     1      26.798  63.603  13.245  1.00  0.00     0.213 C 
HETATM   13  C1  UNL     1      28.151  63.006  13.429  1.00  0.00     0.117 C 
HETATM   14  O1  UNL     1      26.165  63.353  12.214  1.00  0.00    -0.274 OA
ATOM     15  H1  UNL     1      26.830  64.600  15.069  1.00  0.00     0.162 HD
ENDBRANCH  10  11
ENDBRANCH   9  10
ENDBRANCH   6   9
ENDBRANCH   1   2
BRANCH   1  16
HETATM   16  O2  UNL     1      27.548  64.965   9.918  1.00  0.00    -0.332 OA
ATOM     17  H2  UNL     1      28.183  64.353   9.565  1.00  0.00     0.220 HD
ENDBRANCH   1  16
BRANCH   1  18
HETATM   18  N4  UNL     1      28.425  66.178   8.160  1.00  0.00    -0.343 N 
HETATM   19  C9  UNL     1      28.223  66.809   6.880  1.00  0.00     0.133 C 
HETATM   20  C10 UNL     1      29.311  66.474   5.860  1.00  0.00     0.079 C 
HETATM   21  C11 UNL     1      30.611  66.849   6.462  1.00  0.00     0.039 A 
HETATM   22  N5  UNL     1      31.691  67.543   6.098  1.00  0.00    -0.303 N 
HETATM   23  C13 UNL     1      30.806  66.360   7.755  1.00  0.00     0.029 A 
HETATM   24  N6  UNL     1      32.542  67.508   7.103  1.00  0.00    -0.285 N 
ATOM     25  H5  UNL     1      31.832  68.016   5.205  1.00  0.00     0.186 HD
HETATM   26  C12 UNL     1      32.041  66.795   8.138  1.00  0.00     0.123 A 
ATOM     27  H6  UNL     1      33.457  67.959   7.101  1.00  0.00     0.188 HD
HETATM   28  N7  UNL     1      32.644  66.585   9.261  1.00  0.00    -0.384 N 
ATOM     29  H72 UNL     1      33.568  66.910   9.547  1.00  0.00     0.157 HD
ATOM     30  H71 UNL     1      32.267  66.048  10.041  1.00  0.00     0.157 HD
HETATM   31  C14 UNL     1      29.760  65.553   8.421  1.00  0.00     0.171 C 
ENDBRANCH   1  18
TORSDOF 6
ENDMDL
MODEL 5
REMARK VINA RESULT: -8.514857492      2.068      2.979
REMARK  6 active torsions:
REMARK  status: ('A' for Active; 'I' for Inactive)
REMARK       I    between atoms: C2_2  and  N1_4 
REMARK    1  A    between atoms: N1_4  and  C3_6 
REMARK    2  A    between atoms: C3_6  and  C4_7 
REMARK    3  A    between atoms: C4_7  and  N2_8 
REMARK    4  A    between atoms: N3_12  and  C8_13 
REMARK    5  A    between atoms: C8_13  and  O2_14 
REMARK    6  A    between atoms: C8_13  and  N4_16 
ROOT
HETATM    1  C8  UNL     1      27.479  65.650   8.558  1.00  0.00     0.217 C 
ENDROOT
BRANCH   1   2
HETATM    2  N3  UNL     1      26.246  65.551   9.219  1.00  0.00    -0.346 N 
HETATM    3  C7  UNL     1      25.142  64.747   8.776  1.00  0.00     0.128 C 
HETATM    4  C6  UNL     1      25.116  63.492   9.661  1.00  0.00     0.050 C 
HETATM    5  C5  UNL     1      24.842  64.007  11.063  1.00  0.00     0.274 C 
HETATM    6  N2  UNL     1      26.124  64.201  11.696  1.00  0.00     0.091 N 
HETATM    7  C16 UNL     1      26.458  65.591  11.688  1.00  0.00     0.292 C 
HETATM    8  C15 UNL     1      26.133  66.346  10.465  1.00  0.00     0.156 C 
BRANCH   6   9
HETATM    9  C4  UNL     1      26.111  63.773  13.088  1.00  0.00     0.292 C 
BRANCH   9  10
HETATM   10  C3  UNL     1      27.456  63.840  13.724  1.00  0.00     0.152 C 
BRANCH  10  11
HETATM   11  N1  UNL     1      27.311  64.130  15.131  1.00  0.00    -0.360 N 
HETATM   12  C2  UNL     1      27.272  65.409  15.718  1.00  0.00     0.213 C 
HETATM   13  C1  UNL     1      27.112  65.546  17.194  1.00  0.00     0.117 C 
HETATM   14  O1  UNL     1      27.368  66.428  15.026  1.00  0.00    -0.274 OA
ATOM     15  H1  UNL     1      27.230  63.331  15.760  1.00  0.00     0.162 HD
ENDBRANCH  10  11
ENDBRANCH   9  10
ENDBRANCH   6   9
ENDBRANCH   1   2
BRANCH   1  16
HETATM   16  O2  UNL     1      27.380  65.289   7.289  1.00  0.00    -0.332 OA
ATOM     17  H2  UNL     1      27.179  66.030   6.730  1.00  0.00     0.220 HD
ENDBRANCH   1  16
BRANCH   1  18
HETATM   18  N4  UNL     1      28.750  66.048   8.985  1.00  0.00    -0.343 N 
HETATM   19  C9  UNL     1      29.539  65.476  10.047  1.00  0.00     0.133 C 
HETATM   20  C10 UNL     1      30.746  66.330  10.434  1.00  0.00     0.079 C 
HETATM   21  C11 UNL     1      31.545  66.546   9.206  1.00  0.00     0.039 A 
HETATM   22  N5  UNL     1      32.826  66.439   8.843  1.00  0.00    -0.303 N 
HETATM   23  C13 UNL     1      30.803  66.987   8.109  1.00  0.00     0.029 A 
HETATM   24  N6  UNL     1      32.910  66.792   7.577  1.00  0.00    -0.285 N 
ATOM     25  H5  UNL     1      33.598  66.138   9.438  1.00  0.00     0.186 HD
HETATM   26  C12 UNL     1      31.696  67.134   7.087  1.00  0.00     0.123 A 
ATOM     27  H6  UNL     1      33.775  66.804   7.037  1.00  0.00     0.188 HD
HETATM   28  N7  UNL     1      31.462  67.523   5.878  1.00  0.00    -0.384 N 
ATOM     29  H72 UNL     1      32.129  67.633   5.114  1.00  0.00     0.157 HD
ATOM     30  H71 UNL     1      30.547  67.781   5.508  1.00  0.00     0.157 HD
HETATM   31  C14 UNL     1      29.342  67.191   8.221  1.00  0.00     0.171 C 
ENDBRANCH   1  18
TORSDOF 6
ENDMDL
