MODEL 1
REMARK VINA RESULT: -8.467367880      0.000      0.000
REMARK  3 active torsions:
REMARK  status: ('A' for Active; 'I' for Inactive)
REMARK    1  A    between atoms: C6_9  and  C7_10 
REMARK       I    between atoms: C7_10  and  N2_12 
REMARK    2  A    between atoms: N2_12  and  C8_14 
REMARK    3  A    between atoms: C8_14  and  C9_15 
REMARK       I    between atoms: C9_15  and  N3_17 
ROOT
HETATM    1  C7  UNL     1      25.725  64.704  13.053  1.00  0.00     0.252 C 
HETATM    2  O2  UNL     1      26.146  63.546  13.302  1.00  0.00    -0.270 OA
HETATM    3  N2  UNL     1      26.185  65.328  11.860  1.00  0.00    -0.350 N 
ATOM      4  H2  UNL     1      25.865  66.268  11.626  1.00  0.00     0.163 HD
ENDROOT
BRANCH   3   5
HETATM    5  C8  UNL     1      27.104  64.641  10.975  1.00  0.00     0.227 C 
BRANCH   5   6
HETATM    6  C9  UNL     1      28.478  65.203  11.075  1.00  0.00     0.253 C 
HETATM    7  O3  UNL     1      29.163  64.871  12.065  1.00  0.00    -0.270 OA
HETATM    8  N3  UNL     1      29.014  66.078  10.107  1.00  0.00    -0.264 N 
HETATM    9  C10 UNL     1      28.229  66.478   8.942  1.00  0.00     0.148 C 
HETATM   10  N4  UNL     1      30.364  66.525  10.352  1.00  0.00    -0.136 NA
HETATM   11  C11 UNL     1      28.159  65.575   7.802  1.00  0.00     0.025 C 
HETATM   12  C12 UNL     1      28.689  65.881   6.439  1.00  0.00     0.028 C 
HETATM   13  C13 UNL     1      29.330  67.192   6.190  1.00  0.00    -0.031 C 
HETATM   14  C14 UNL     1      30.718  67.504   6.437  1.00  0.00    -0.031 C 
HETATM   15  C15 UNL     1      31.749  66.582   6.944  1.00  0.00     0.028 C 
HETATM   16  C16 UNL     1      32.125  66.836   8.447  1.00  0.00     0.021 C 
HETATM   17  C17 UNL     1      30.871  66.503   9.063  1.00  0.00     0.135 C 
ENDBRANCH   5   6
ENDBRANCH   3   5
BRANCH   1  18
HETATM   18  C6  UNL     1      24.788  65.382  13.973  1.00  0.00     0.245 C 
HETATM   19  C5  UNL     1      23.601  64.645  14.224  1.00  0.00    -0.148 C 
HETATM   20  C4  UNL     1      22.374  64.020  14.146  1.00  0.00     0.084 C 
HETATM   21  C3  UNL     1      22.110  63.416  15.564  1.00  0.00     0.031 C 
HETATM   22  C2  UNL     1      22.550  64.237  16.701  1.00  0.00     0.125 C 
HETATM   23  N1  UNL     1      23.949  64.248  17.110  1.00  0.00    -0.343 N 
HETATM   24  C1  UNL     1      25.129  64.963  16.598  1.00  0.00     0.317 C 
ATOM     25  H1  UNL     1      24.149  63.643  17.906  1.00  0.00     0.164 HD
HETATM   26  O1  UNL     1      25.995  65.159  17.489  1.00  0.00    -0.247 OA
HETATM   27  N5  UNL     1      25.491  65.484  15.285  1.00  0.00    -0.320 N 
ATOM     28  H5  UNL     1      26.368  66.002  15.260  1.00  0.00     0.166 HD
ENDBRANCH   1  18
TORSDOF 3
ENDMDL
MODEL 2
REMARK VINA RESULT: -8.422264710      2.048      8.604
REMARK  3 active torsions:
REMARK  status: ('A' for Active; 'I' for Inactive)
REMARK    1  A    between atoms: C6_9  and  C7_10 
REMARK       I    between atoms: C7_10  and  N2_12 
REMARK    2  A    between atoms: N2_12  and  C8_14 
REMARK    3  A    between atoms: C8_14  and  C9_15 
REMARK       I    between atoms: C9_15  and  N3_17 
ROOT
HETATM    1  C7  UNL     1      29.072  65.479  10.438  1.00  0.00     0.252 C 
HETATM    2  O2  UNL     1      28.419  66.551  10.486  1.00  0.00    -0.270 OA
HETATM    3  N2  UNL     1      29.056  64.647  11.591  1.00  0.00    -0.350 N 
ATOM      4  H2  UNL     1      29.576  63.769  11.588  1.00  0.00     0.163 HD
ENDROOT
BRANCH   3   5
HETATM    5  C8  UNL     1      28.308  65.034  12.770  1.00  0.00     0.227 C 
BRANCH   5   6
HETATM    6  C9  UNL     1      27.224  64.061  13.071  1.00  0.00     0.253 C 
HETATM    7  O3  UNL     1      27.552  62.991  13.626  1.00  0.00    -0.270 OA
HETATM    8  N3  UNL     1      25.871  64.306  12.756  1.00  0.00    -0.264 N 
HETATM    9  C10 UNL     1      25.468  65.552  12.107  1.00  0.00     0.148 C 
HETATM   10  N4  UNL     1      24.947  63.261  13.123  1.00  0.00    -0.136 NA
HETATM   11  C11 UNL     1      25.289  66.742  12.927  1.00  0.00     0.025 C 
HETATM   12  C12 UNL     1      23.992  67.459  13.117  1.00  0.00     0.028 C 
HETATM   13  C13 UNL     1      22.781  66.959  12.429  1.00  0.00    -0.031 C 
HETATM   14  C14 UNL     1      21.902  65.927  12.927  1.00  0.00    -0.031 C 
HETATM   15  C15 UNL     1      22.024  65.214  14.211  1.00  0.00     0.028 C 
HETATM   16  C16 UNL     1      22.555  63.744  14.057  1.00  0.00     0.021 C 
HETATM   17  C17 UNL     1      23.873  64.021  13.561  1.00  0.00     0.135 C 
ENDBRANCH   5   6
ENDBRANCH   3   5
BRANCH   1  18
HETATM   18  C6  UNL     1      29.827  65.108   9.222  1.00  0.00     0.245 C 
HETATM   19  C5  UNL     1      29.332  65.712   8.036  1.00  0.00    -0.148 C 
HETATM   20  C4  UNL     1      28.596  66.077   6.930  1.00  0.00     0.084 C 
HETATM   21  C3  UNL     1      29.446  67.159   6.186  1.00  0.00     0.031 C 
HETATM   22  C2  UNL     1      30.898  66.935   6.177  1.00  0.00     0.125 C 
HETATM   23  N1  UNL     1      31.710  67.282   7.337  1.00  0.00    -0.343 N 
HETATM   24  C1  UNL     1      31.973  66.592   8.609  1.00  0.00     0.317 C 
ATOM     25  H1  UNL     1      32.189  68.178   7.249  1.00  0.00     0.164 HD
HETATM   26  O1  UNL     1      33.093  66.893   9.096  1.00  0.00    -0.247 OA
HETATM   27  N5  UNL     1      31.208  65.641   9.407  1.00  0.00    -0.320 N 
ATOM     28  H5  UNL     1      31.697  65.283  10.227  1.00  0.00     0.166 HD
ENDBRANCH   1  18
TORSDOF 3
ENDMDL
MODEL 3
REMARK VINA RESULT: -8.328375380      5.285      8.725
REMARK  3 active torsions:
REMARK  status: ('A' for Active; 'I' for Inactive)
REMARK    1  A    between atoms: C6_9  and  C7_10 
REMARK       I    between atoms: C7_10  and  N2_12 
REMARK    2  A    between atoms: N2_12  and  C8_14 
REMARK    3  A    between atoms: C8_14  and  C9_15 
REMARK       I    between atoms: C9_15  and  N3_17 
ROOT
HETATM    1  C7  UNL     1      29.053  67.431  11.027  1.00  0.00     0.252 C 
HETATM    2  O2  UNL     1      28.012  68.091  10.783  1.00  0.00    -0.270 OA
HETATM    3  N2  UNL     1      29.821  67.810  12.162  1.00  0.00    -0.350 N 
ATOM      4  H2  UNL     1      30.672  67.296  12.391  1.00  0.00     0.163 HD
ENDROOT
BRANCH   3   5
HETATM    5  C8  UNL     1      29.405  68.919  12.997  1.00  0.00     0.227 C 
BRANCH   5   6
HETATM    6  C9  UNL     1      29.645  68.636  14.437  1.00  0.00     0.253 C 
HETATM    7  O3  UNL     1      28.893  67.807  14.992  1.00  0.00    -0.270 OA
HETATM    8  N3  UNL     1      30.672  69.261  15.176  1.00  0.00    -0.264 N 
HETATM    9  C10 UNL     1      31.562  70.233  14.545  1.00  0.00     0.148 C 
HETATM   10  N4  UNL     1      30.772  68.868  16.560  1.00  0.00    -0.136 NA
HETATM   11  C11 UNL     1      32.690  69.745  13.763  1.00  0.00     0.025 C 
HETATM   12  C12 UNL     1      34.126  69.979  14.101  1.00  0.00     0.028 C 
HETATM   13  C13 UNL     1      34.466  70.769  15.305  1.00  0.00    -0.031 C 
HETATM   14  C14 UNL     1      34.581  70.244  16.645  1.00  0.00    -0.031 C 
HETATM   15  C15 UNL     1      34.417  68.838  17.055  1.00  0.00     0.028 C 
HETATM   16  C16 UNL     1      33.058  68.559  17.788  1.00  0.00     0.021 C 
HETATM   17  C17 UNL     1      32.149  68.829  16.709  1.00  0.00     0.135 C 
ENDBRANCH   5   6
ENDBRANCH   3   5
BRANCH   1  18
HETATM   18  C6  UNL     1      29.454  66.303  10.158  1.00  0.00     0.245 C 
HETATM   19  C5  UNL     1      28.848  66.328   8.875  1.00  0.00    -0.148 C 
HETATM   20  C4  UNL     1      27.982  66.263   7.805  1.00  0.00     0.084 C 
HETATM   21  C3  UNL     1      28.848  66.537   6.533  1.00  0.00     0.031 C 
HETATM   22  C2  UNL     1      30.198  65.955   6.541  1.00  0.00     0.125 C 
HETATM   23  N1  UNL     1      31.283  66.608   7.262  1.00  0.00    -0.343 N 
HETATM   24  C1  UNL     1      31.668  66.620   8.682  1.00  0.00     0.317 C 
ATOM     25  H1  UNL     1      31.895  67.166   6.666  1.00  0.00     0.164 HD
HETATM   26  O1  UNL     1      32.901  66.810   8.843  1.00  0.00    -0.247 OA
HETATM   27  N5  UNL     1      30.919  66.458   9.922  1.00  0.00    -0.320 N 
ATOM     28  H5  UNL     1      31.491  66.449  10.767  1.00  0.00     0.166 HD
ENDBRANCH   1  18
TORSDOF 3
ENDMDL
MODEL 4
REMARK VINA RESULT: -8.256506613      1.970      9.270
REMARK  3 active torsions:
REMARK  status: ('A' for Active; 'I' for Inactive)
REMARK    1  A    between atoms: C6_9  and  C7_10 
REMARK       I    between atoms: C7_10  and  N2_12 
REMARK    2  A    between atoms: N2_12  and  C8_14 
REMARK    3  A    between atoms: C8_14  and  C9_15 
REMARK       I    between atoms: C9_15  and  N3_17 
ROOT
HETATM    1  C7  UNL     1      28.807  65.694  10.499  1.00  0.00     0.252 C 
HETATM    2  O2  UNL     1      28.575  66.924  10.617  1.00  0.00    -0.270 OA
HETATM    3  N2  UNL     1      28.188  64.817  11.432  1.00  0.00    -0.350 N 
ATOM      4  H2  UNL     1      28.354  63.812  11.367  1.00  0.00     0.163 HD
ENDROOT
BRANCH   3   5
HETATM    5  C8  UNL     1      27.324  65.337  12.473  1.00  0.00     0.227 C 
BRANCH   5   6
HETATM    6  C9  UNL     1      25.921  64.874  12.297  1.00  0.00     0.253 C 
HETATM    7  O3  UNL     1      25.662  64.202  11.276  1.00  0.00    -0.270 OA
HETATM    8  N3  UNL     1      24.901  65.166  13.226  1.00  0.00    -0.264 N 
HETATM    9  C10 UNL     1      25.183  65.951  14.426  1.00  0.00     0.148 C 
HETATM   10  N4  UNL     1      23.598  64.635  12.908  1.00  0.00    -0.136 NA
HETATM   11  C11 UNL     1      25.771  65.281  15.578  1.00  0.00     0.025 C 
HETATM   12  C12 UNL     1      25.108  65.135  16.909  1.00  0.00     0.028 C 
HETATM   13  C13 UNL     1      23.758  65.707  17.111  1.00  0.00    -0.031 C 
HETATM   14  C14 UNL     1      22.514  65.049  16.790  1.00  0.00    -0.031 C 
HETATM   15  C15 UNL     1      22.354  63.692  16.239  1.00  0.00     0.028 C 
HETATM   16  C16 UNL     1      21.972  63.679  14.717  1.00  0.00     0.021 C 
HETATM   17  C17 UNL     1      23.168  64.256  14.170  1.00  0.00     0.135 C 
ENDBRANCH   5   6
ENDBRANCH   3   5
BRANCH   1  18
HETATM   18  C6  UNL     1      29.693  65.191   9.428  1.00  0.00     0.245 C 
HETATM   19  C5  UNL     1      29.455  65.789   8.163  1.00  0.00    -0.148 C 
HETATM   20  C4  UNL     1      28.942  66.179   6.944  1.00  0.00     0.084 C 
HETATM   21  C3  UNL     1      30.011  67.130   6.313  1.00  0.00     0.031 C 
HETATM   22  C2  UNL     1      31.414  66.755   6.538  1.00  0.00     0.125 C 
HETATM   23  N1  UNL     1      32.072  67.068   7.801  1.00  0.00    -0.343 N 
HETATM   24  C1  UNL     1      32.058  66.412   9.118  1.00  0.00     0.317 C 
ATOM     25  H1  UNL     1      32.654  67.904   7.764  1.00  0.00     0.164 HD
HETATM   26  O1  UNL     1      33.117  66.616   9.766  1.00  0.00    -0.247 OA
HETATM   27  N5  UNL     1      31.080  65.584   9.813  1.00  0.00    -0.320 N 
ATOM     28  H5  UNL     1      31.395  65.214  10.709  1.00  0.00     0.166 HD
ENDBRANCH   1  18
TORSDOF 3
ENDMDL
MODEL 5
REMARK VINA RESULT: -8.207302053      3.142      4.290
REMARK  3 active torsions:
REMARK  status: ('A' for Active; 'I' for Inactive)
REMARK    1  A    between atoms: C6_9  and  C7_10 
REMARK       I    between atoms: C7_10  and  N2_12 
REMARK    2  A    between atoms: N2_12  and  C8_14 
REMARK    3  A    between atoms: C8_14  and  C9_15 
REMARK       I    between atoms: C9_15  and  N3_17 
ROOT
HETATM    1  C7  UNL     1      25.269  65.868  10.851  1.00  0.00     0.252 C 
HETATM    2  O2  UNL     1      25.188  65.798   9.599  1.00  0.00    -0.270 OA
HETATM    3  N2  UNL     1      26.391  65.253  11.473  1.00  0.00    -0.350 N 
ATOM      4  H2  UNL     1      26.489  65.291  12.488  1.00  0.00     0.163 HD
ENDROOT
BRANCH   3   5
HETATM    5  C8  UNL     1      27.394  64.574  10.678  1.00  0.00     0.227 C 
BRANCH   5   6
HETATM    6  C9  UNL     1      28.736  65.192  10.853  1.00  0.00     0.253 C 
HETATM    7  O3  UNL     1      29.367  64.910  11.893  1.00  0.00    -0.270 OA
HETATM    8  N3  UNL     1      29.301  66.067   9.900  1.00  0.00    -0.264 N 
HETATM    9  C10 UNL     1      28.579  66.409   8.678  1.00  0.00     0.148 C 
HETATM   10  N4  UNL     1      30.614  66.572  10.221  1.00  0.00    -0.136 NA
HETATM   11  C11 UNL     1      28.618  65.479   7.557  1.00  0.00     0.025 C 
HETATM   12  C12 UNL     1      29.225  65.775   6.224  1.00  0.00     0.028 C 
HETATM   13  C13 UNL     1      29.831  67.104   5.985  1.00  0.00    -0.031 C 
HETATM   14  C14 UNL     1      31.186  67.477   6.313  1.00  0.00    -0.031 C 
HETATM   15  C15 UNL     1      32.216  66.608   6.909  1.00  0.00     0.028 C 
HETATM   16  C16 UNL     1      32.483  66.910   8.426  1.00  0.00     0.021 C 
HETATM   17  C17 UNL     1      31.205  66.542   8.968  1.00  0.00     0.135 C 
ENDBRANCH   5   6
ENDBRANCH   3   5
BRANCH   1  18
HETATM   18  C6  UNL     1      24.231  66.568  11.638  1.00  0.00     0.245 C 
HETATM   19  C5  UNL     1      24.474  67.957  11.797  1.00  0.00    -0.148 C 
HETATM   20  C4  UNL     1      24.955  69.196  12.163  1.00  0.00     0.084 C 
HETATM   21  C3  UNL     1      24.026  70.241  11.462  1.00  0.00     0.031 C 
HETATM   22  C2  UNL     1      22.600  69.891  11.403  1.00  0.00     0.125 C 
HETATM   23  N1  UNL     1      22.104  68.966  10.392  1.00  0.00    -0.343 N 
HETATM   24  C1  UNL     1      22.100  67.497  10.304  1.00  0.00     0.317 C 
ATOM     25  H1  UNL     1      21.676  69.427   9.589  1.00  0.00     0.164 HD
HETATM   26  O1  UNL     1      21.146  67.061   9.611  1.00  0.00    -0.247 OA
HETATM   27  N5  UNL     1      22.968  66.461  10.851  1.00  0.00    -0.320 N 
ATOM     28  H5  UNL     1      22.660  65.507  10.665  1.00  0.00     0.166 HD
ENDBRANCH   1  18
TORSDOF 3
ENDMDL
