MODEL 1
REMARK VINA RESULT: -8.575317691      0.000      0.000
REMARK  4 active torsions:
REMARK  status: ('A' for Active; 'I' for Inactive)
REMARK    1  A    between atoms: N2_5  and  C3_6 
REMARK    2  A    between atoms: C8_14  and  C9_15 
REMARK    3  A    between atoms: C9_15  and  C10_16 
REMARK    4  A    between atoms: C13_21  and  C14_22 
ROOT
HETATM    1  C10 UNL     1      25.288  64.800  10.055  1.00  0.00     0.043 A 
HETATM    2  N4  UNL     1      25.201  63.788   9.188  1.00  0.00    -0.365 N 
ATOM      3  H4  UNL     1      25.282  63.862   8.173  1.00  0.00     0.165 HD
HETATM    4  C11 UNL     1      24.990  62.669   9.870  1.00  0.00     0.089 A 
HETATM    5  C12 UNL     1      24.935  62.927  11.222  1.00  0.00     0.030 A 
HETATM    6  C13 UNL     1      25.126  64.299  11.356  1.00  0.00    -0.007 A 
ENDROOT
BRANCH   1   7
HETATM    7  C9  UNL     1      25.512  66.203   9.760  1.00  0.00     0.050 C 
BRANCH   7   8
HETATM    8  C8  UNL     1      26.758  66.657   9.615  1.00  0.00     0.063 A 
HETATM    9  C2  UNL     1      27.427  67.537  10.435  1.00  0.00     0.055 A 
HETATM   10  C1  UNL     1      26.938  68.085  11.525  1.00  0.00     0.045 C 
HETATM   11  N1  UNL     1      28.672  67.714   9.902  1.00  0.00    -0.291 N 
HETATM   12  N2  UNL     1      28.823  67.003   8.802  1.00  0.00    -0.218 N 
ATOM     13  H1  UNL     1      29.390  68.317  10.302  1.00  0.00     0.187 HD
HETATM   14  C7  UNL     1      27.660  66.353   8.616  1.00  0.00     0.279 A 
HETATM   15  O1  UNL     1      27.460  65.580   7.649  1.00  0.00    -0.265 OA
BRANCH  12  16
HETATM   16  C3  UNL     1      30.003  66.946   7.976  1.00  0.00     0.076 A 
HETATM   17  C4  UNL     1      30.065  67.125   6.613  1.00  0.00     0.050 A 
HETATM   18  C5  UNL     1      31.413  66.982   6.270  1.00  0.00     0.090 A 
HETATM   19  N3  UNL     1      32.142  66.728   7.360  1.00  0.00    -0.373 N 
HETATM   20  C6  UNL     1      31.267  66.707   8.408  1.00  0.00     0.119 A 
ATOM     21  H3  UNL     1      33.150  66.580   7.401  1.00  0.00     0.164 HD
ENDBRANCH  12  16
ENDBRANCH   7   8
ENDBRANCH   1   7
BRANCH   6  22
HETATM   22  C14 UNL     1      25.137  65.092  12.566  1.00  0.00     0.027 C 
HETATM   23  C15 UNL     1      25.984  64.996  13.566  1.00  0.00     0.019 C 
HETATM   24  C16 UNL     1      25.966  65.844  14.828  1.00  0.00     0.147 C 
HETATM   25  C18 UNL     1      27.136  64.131  13.775  1.00  0.00     0.254 C 
HETATM   26  C17 UNL     1      26.460  64.832  15.841  1.00  0.00     0.228 C 
HETATM   27  O2  UNL     1      26.068  64.766  17.005  1.00  0.00    -0.273 OA
HETATM   28  N5  UNL     1      27.435  64.023  15.149  1.00  0.00    -0.293 N 
ATOM     29  H5  UNL     1      28.189  63.481  15.570  1.00  0.00     0.172 HD
HETATM   30  O3  UNL     1      27.790  63.555  12.879  1.00  0.00    -0.268 OA
ENDBRANCH   6  22
TORSDOF 4
ENDMDL
MODEL 2
REMARK VINA RESULT: -8.457666443      1.393      1.568
REMARK  4 active torsions:
REMARK  status: ('A' for Active; 'I' for Inactive)
REMARK    1  A    between atoms: N2_5  and  C3_6 
REMARK    2  A    between atoms: C8_14  and  C9_15 
REMARK    3  A    between atoms: C9_15  and  C10_16 
REMARK    4  A    between atoms: C13_21  and  C14_22 
ROOT
HETATM    1  C10 UNL     1      26.659  64.638  11.608  1.00  0.00     0.043 A 
HETATM    2  N4  UNL     1      26.377  63.760  10.642  1.00  0.00    -0.365 N 
ATOM      3  H4  UNL     1      27.007  63.473   9.893  1.00  0.00     0.165 HD
HETATM    4  C11 UNL     1      25.136  63.324  10.823  1.00  0.00     0.089 A 
HETATM    5  C12 UNL     1      24.569  63.917  11.930  1.00  0.00     0.030 A 
HETATM    6  C13 UNL     1      25.541  64.767  12.447  1.00  0.00    -0.007 A 
ENDROOT
BRANCH   1   7
HETATM    7  C9  UNL     1      27.898  65.367  11.808  1.00  0.00     0.050 C 
BRANCH   7   8
HETATM    8  C8  UNL     1      28.373  66.146  10.834  1.00  0.00     0.063 A 
HETATM    9  C2  UNL     1      28.025  67.449  10.562  1.00  0.00     0.055 A 
HETATM   10  C1  UNL     1      27.149  68.160  11.236  1.00  0.00     0.045 C 
HETATM   11  N1  UNL     1      28.761  67.842   9.481  1.00  0.00    -0.291 N 
HETATM   12  N2  UNL     1      29.545  66.869   9.060  1.00  0.00    -0.218 N 
ATOM     13  H1  UNL     1      28.711  68.768   9.055  1.00  0.00     0.187 HD
HETATM   14  C7  UNL     1      29.316  65.827   9.878  1.00  0.00     0.279 A 
HETATM   15  O1  UNL     1      29.904  64.725   9.758  1.00  0.00    -0.265 OA
BRANCH  12  16
HETATM   16  C3  UNL     1      30.455  66.927   7.945  1.00  0.00     0.076 A 
HETATM   17  C4  UNL     1      30.123  67.011   6.612  1.00  0.00     0.050 A 
HETATM   18  C5  UNL     1      31.336  67.045   5.917  1.00  0.00     0.090 A 
HETATM   19  N3  UNL     1      32.359  66.985   6.773  1.00  0.00    -0.373 N 
HETATM   20  C6  UNL     1      31.811  66.912   8.020  1.00  0.00     0.119 A 
ATOM     21  H3  UNL     1      33.352  66.992   6.541  1.00  0.00     0.164 HD
ENDBRANCH  12  16
ENDBRANCH   7   8
ENDBRANCH   1   7
BRANCH   6  22
HETATM   22  C14 UNL     1      25.453  65.642  13.596  1.00  0.00     0.027 C 
HETATM   23  C15 UNL     1      25.987  65.447  14.781  1.00  0.00     0.019 C 
HETATM   24  C16 UNL     1      25.872  66.386  15.971  1.00  0.00     0.147 C 
HETATM   25  C18 UNL     1      26.812  64.366  15.301  1.00  0.00     0.254 C 
HETATM   26  C17 UNL     1      25.851  65.383  17.105  1.00  0.00     0.228 C 
HETATM   27  O2  UNL     1      25.187  65.511  18.133  1.00  0.00    -0.273 OA
HETATM   28  N5  UNL     1      26.739  64.316  16.709  1.00  0.00    -0.293 N 
ATOM     29  H5  UNL     1      27.217  63.658  17.323  1.00  0.00     0.172 HD
HETATM   30  O3  UNL     1      27.504  63.580  14.617  1.00  0.00    -0.268 OA
ENDBRANCH   6  22
TORSDOF 4
ENDMDL
MODEL 3
REMARK VINA RESULT: -8.339359430      2.210      2.645
REMARK  4 active torsions:
REMARK  status: ('A' for Active; 'I' for Inactive)
REMARK    1  A    between atoms: N2_5  and  C3_6 
REMARK    2  A    between atoms: C8_14  and  C9_15 
REMARK    3  A    between atoms: C9_15  and  C10_16 
REMARK    4  A    between atoms: C13_21  and  C14_22 
ROOT
HETATM    1  C10 UNL     1      25.922  65.414   9.480  1.00  0.00     0.043 A 
HETATM    2  N4  UNL     1      25.790  65.643   8.172  1.00  0.00    -0.365 N 
ATOM      3  H4  UNL     1      26.248  66.389   7.647  1.00  0.00     0.165 HD
HETATM    4  C11 UNL     1      24.962  64.736   7.669  1.00  0.00     0.089 A 
HETATM    5  C12 UNL     1      24.526  63.877   8.654  1.00  0.00     0.030 A 
HETATM    6  C13 UNL     1      25.138  64.303   9.829  1.00  0.00    -0.007 A 
ENDROOT
BRANCH   1   7
HETATM    7  C9  UNL     1      26.727  66.155  10.434  1.00  0.00     0.050 C 
BRANCH   7   8
HETATM    8  C8  UNL     1      28.058  66.074  10.380  1.00  0.00     0.063 A 
HETATM    9  C2  UNL     1      28.900  65.529  11.323  1.00  0.00     0.055 A 
HETATM   10  C1  UNL     1      28.522  64.984  12.458  1.00  0.00     0.045 C 
HETATM   11  N1  UNL     1      30.173  65.664  10.848  1.00  0.00    -0.291 N 
HETATM   12  N2  UNL     1      30.181  66.257   9.670  1.00  0.00    -0.218 N 
ATOM     13  H1  UNL     1      31.008  65.347  11.339  1.00  0.00     0.187 HD
HETATM   14  C7  UNL     1      28.894  66.513   9.374  1.00  0.00     0.279 A 
HETATM   15  O1  UNL     1      28.539  67.078   8.312  1.00  0.00    -0.265 OA
BRANCH  12  16
HETATM   16  C3  UNL     1      31.343  66.564   8.875  1.00  0.00     0.076 A 
HETATM   17  C4  UNL     1      31.360  66.948   7.554  1.00  0.00     0.050 A 
HETATM   18  C5  UNL     1      32.707  67.136   7.228  1.00  0.00     0.090 A 
HETATM   19  N3  UNL     1      33.477  66.882   8.289  1.00  0.00    -0.373 N 
HETATM   20  C6  UNL     1      32.631  66.530   9.300  1.00  0.00     0.119 A 
ATOM     21  H3  UNL     1      34.495  66.940   8.334  1.00  0.00     0.164 HD
ENDBRANCH  12  16
ENDBRANCH   7   8
ENDBRANCH   1   7
BRANCH   6  22
HETATM   22  C14 UNL     1      25.003  63.758  11.162  1.00  0.00     0.027 C 
HETATM   23  C15 UNL     1      24.316  64.270  12.159  1.00  0.00     0.019 C 
HETATM   24  C16 UNL     1      24.197  63.673  13.553  1.00  0.00     0.147 C 
HETATM   25  C18 UNL     1      23.494  65.468  12.250  1.00  0.00     0.254 C 
HETATM   26  C17 UNL     1      24.117  64.938  14.382  1.00  0.00     0.228 C 
HETATM   27  O2  UNL     1      24.615  65.069  15.499  1.00  0.00    -0.273 OA
HETATM   28  N5  UNL     1      23.366  65.884  13.592  1.00  0.00    -0.293 N 
ATOM     29  H5  UNL     1      22.847  66.692  13.934  1.00  0.00     0.172 HD
HETATM   30  O3  UNL     1      22.961  66.063  11.288  1.00  0.00    -0.268 OA
ENDBRANCH   6  22
TORSDOF 4
ENDMDL
MODEL 4
REMARK VINA RESULT: -8.309223686      2.446      3.314
REMARK  4 active torsions:
REMARK  status: ('A' for Active; 'I' for Inactive)
REMARK    1  A    between atoms: N2_5  and  C3_6 
REMARK    2  A    between atoms: C8_14  and  C9_15 
REMARK    3  A    between atoms: C9_15  and  C10_16 
REMARK    4  A    between atoms: C13_21  and  C14_22 
ROOT
HETATM    1  C10 UNL     1      26.874  63.747  11.405  1.00  0.00     0.043 A 
HETATM    2  N4  UNL     1      26.899  62.607  10.711  1.00  0.00    -0.365 N 
ATOM      3  H4  UNL     1      27.697  61.977  10.628  1.00  0.00     0.165 HD
HETATM    4  C11 UNL     1      25.710  62.434  10.147  1.00  0.00     0.089 A 
HETATM    5  C12 UNL     1      24.865  63.474  10.465  1.00  0.00     0.030 A 
HETATM    6  C13 UNL     1      25.602  64.329  11.278  1.00  0.00    -0.007 A 
ENDROOT
BRANCH   1   7
HETATM    7  C9  UNL     1      27.949  64.337  12.182  1.00  0.00     0.050 C 
BRANCH   7   8
HETATM    8  C8  UNL     1      28.739  65.257  11.626  1.00  0.00     0.063 A 
HETATM    9  C2  UNL     1      29.052  66.501  12.125  1.00  0.00     0.055 A 
HETATM   10  C1  UNL     1      28.614  66.999  13.260  1.00  0.00     0.045 C 
HETATM   11  N1  UNL     1      29.890  67.094  11.224  1.00  0.00    -0.291 N 
HETATM   12  N2  UNL     1      30.122  66.301  10.197  1.00  0.00    -0.218 N 
ATOM     13  H1  UNL     1      30.286  68.027  11.333  1.00  0.00     0.187 HD
HETATM   14  C7  UNL     1      29.423  65.176  10.430  1.00  0.00     0.279 A 
HETATM   15  O1  UNL     1      29.419  64.201   9.641  1.00  0.00    -0.265 OA
BRANCH  12  16
HETATM   16  C3  UNL     1      30.955  66.597   9.060  1.00  0.00     0.076 A 
HETATM   17  C4  UNL     1      30.535  66.910   7.787  1.00  0.00     0.050 A 
HETATM   18  C5  UNL     1      31.698  67.118   7.040  1.00  0.00     0.090 A 
HETATM   19  N3  UNL     1      32.776  66.942   7.808  1.00  0.00    -0.373 N 
HETATM   20  C6  UNL     1      32.313  66.622   9.051  1.00  0.00     0.119 A 
ATOM     21  H3  UNL     1      33.752  67.031   7.523  1.00  0.00     0.164 HD
ENDBRANCH  12  16
ENDBRANCH   7   8
ENDBRANCH   1   7
BRANCH   6  22
HETATM   22  C14 UNL     1      25.193  65.584  11.870  1.00  0.00     0.027 C 
HETATM   23  C15 UNL     1      25.401  66.790  11.389  1.00  0.00     0.019 C 
HETATM   24  C16 UNL     1      24.959  68.092  12.040  1.00  0.00     0.147 C 
HETATM   25  C18 UNL     1      26.052  67.244  10.169  1.00  0.00     0.254 C 
HETATM   26  C17 UNL     1      26.100  68.999  11.629  1.00  0.00     0.228 C 
HETATM   27  O2  UNL     1      26.563  69.895  12.333  1.00  0.00    -0.273 OA
HETATM   28  N5  UNL     1      26.481  68.581  10.301  1.00  0.00    -0.293 N 
ATOM     29  H5  UNL     1      26.965  69.140   9.598  1.00  0.00     0.172 HD
HETATM   30  O3  UNL     1      26.218  66.564   9.133  1.00  0.00    -0.268 OA
ENDBRANCH   6  22
TORSDOF 4
ENDMDL
MODEL 5
REMARK VINA RESULT: -8.225332863      2.365      3.389
REMARK  4 active torsions:
REMARK  status: ('A' for Active; 'I' for Inactive)
REMARK    1  A    between atoms: N2_5  and  C3_6 
REMARK    2  A    between atoms: C8_14  and  C9_15 
REMARK    3  A    between atoms: C9_15  and  C10_16 
REMARK    4  A    between atoms: C13_21  and  C14_22 
ROOT
HETATM    1  C10 UNL     1      27.083  64.176  11.794  1.00  0.00     0.043 A 
HETATM    2  N4  UNL     1      27.801  63.129  12.207  1.00  0.00    -0.365 N 
ATOM      3  H4  UNL     1      28.180  62.392  11.611  1.00  0.00     0.165 HD
HETATM    4  C11 UNL     1      27.938  63.209  13.525  1.00  0.00     0.089 A 
HETATM    5  C12 UNL     1      27.302  64.330  14.013  1.00  0.00     0.030 A 
HETATM    6  C13 UNL     1      26.746  64.964  12.906  1.00  0.00    -0.007 A 
ENDROOT
BRANCH   1   7
HETATM    7  C9  UNL     1      26.686  64.498  10.436  1.00  0.00     0.050 C 
BRANCH   7   8
HETATM    8  C8  UNL     1      27.400  65.376   9.729  1.00  0.00     0.063 A 
HETATM    9  C2  UNL     1      26.953  66.539   9.144  1.00  0.00     0.055 A 
HETATM   10  C1  UNL     1      25.718  66.988   9.189  1.00  0.00     0.045 C 
HETATM   11  N1  UNL     1      28.026  67.116   8.528  1.00  0.00    -0.291 N 
HETATM   12  N2  UNL     1      29.115  66.390   8.691  1.00  0.00    -0.218 N 
ATOM     13  H1  UNL     1      27.991  67.994   8.011  1.00  0.00     0.187 HD
HETATM   14  C7  UNL     1      28.745  65.323   9.422  1.00  0.00     0.279 A 
HETATM   15  O1  UNL     1      29.545  64.420   9.762  1.00  0.00    -0.265 OA
BRANCH  12  16
HETATM   16  C3  UNL     1      30.427  66.691   8.179  1.00  0.00     0.076 A 
HETATM   17  C4  UNL     1      31.615  66.642   8.873  1.00  0.00     0.050 A 
HETATM   18  C5  UNL     1      32.607  67.010   7.960  1.00  0.00     0.090 A 
HETATM   19  N3  UNL     1      32.062  67.273   6.769  1.00  0.00    -0.373 N 
HETATM   20  C6  UNL     1      30.720  67.074   6.910  1.00  0.00     0.119 A 
ATOM     21  H3  UNL     1      32.553  67.564   5.923  1.00  0.00     0.164 HD
ENDBRANCH  12  16
ENDBRANCH   7   8
ENDBRANCH   1   7
BRANCH   6  22
HETATM   22  C14 UNL     1      25.954  66.174  12.866  1.00  0.00     0.027 C 
HETATM   23  C15 UNL     1      24.645  66.259  12.775  1.00  0.00     0.019 C 
HETATM   24  C16 UNL     1      23.842  67.549  12.731  1.00  0.00     0.147 C 
HETATM   25  C18 UNL     1      23.614  65.234  12.709  1.00  0.00     0.254 C 
HETATM   26  C17 UNL     1      22.710  67.131  11.816  1.00  0.00     0.228 C 
HETATM   27  O2  UNL     1      22.174  67.870  10.991  1.00  0.00    -0.273 OA
HETATM   28  N5  UNL     1      22.436  65.749  12.129  1.00  0.00    -0.293 N 
ATOM     29  H5  UNL     1      21.564  65.245  11.964  1.00  0.00     0.172 HD
HETATM   30  O3  UNL     1      23.729  64.054  13.107  1.00  0.00    -0.268 OA
ENDBRANCH   6  22
TORSDOF 4
ENDMDL
