MODEL 1
REMARK VINA RESULT: -8.262515614      0.000      0.000
REMARK  4 active torsions:
REMARK  status: ('A' for Active; 'I' for Inactive)
REMARK       I    between atoms: N1_2  and  C2_4 
REMARK       I    between atoms: C2_4  and  N2_6 
REMARK    1  A    between atoms: N2_6  and  C3_8 
REMARK    2  A    between atoms: C3_8  and  C4_9 
REMARK    3  A    between atoms: C9_14  and  C10_15 
REMARK       I    between atoms: C10_15  and  N3_17 
REMARK    4  A    between atoms: N3_17  and  C11_19 
ROOT
HETATM    1  C4  UNL     1      25.780  64.480  12.287  1.00  0.00     0.059 A 
HETATM    2  C5  UNL     1      25.050  65.346  11.443  1.00  0.00    -0.026 A 
HETATM    3  C6  UNL     1      23.693  65.703  11.778  1.00  0.00     0.051 C 
HETATM    4  C7  UNL     1      25.603  65.852  10.287  1.00  0.00    -0.033 A 
HETATM    5  C8  UNL     1      24.829  66.777   9.394  1.00  0.00     0.050 C 
HETATM    6  C9  UNL     1      26.876  65.527   9.926  1.00  0.00     0.106 A 
HETATM    7  C15 UNL     1      27.564  64.684  10.761  1.00  0.00     0.264 A 
HETATM    8  O3  UNL     1      28.758  64.365  10.445  1.00  0.00    -0.267 OA
HETATM    9  N6  UNL     1      27.007  64.182  11.914  1.00  0.00    -0.316 N 
HETATM   10  C16 UNL     1      27.845  63.242  12.640  1.00  0.00     0.159 C 
ENDROOT
BRANCH   6  11
HETATM   11  C10 UNL     1      27.509  66.032   8.716  1.00  0.00     0.263 C 
HETATM   12  O2  UNL     1      27.253  65.422   7.612  1.00  0.00    -0.267 OA
HETATM   13  N3  UNL     1      28.372  67.113   8.602  1.00  0.00    -0.308 N 
ATOM     14  H3  UNL     1      28.108  67.952   9.118  1.00  0.00     0.170 HD
BRANCH  13  15
HETATM   15  C11 UNL     1      29.455  67.189   7.934  1.00  0.00     0.124 A 
HETATM   16  C12 UNL     1      30.703  66.886   8.415  1.00  0.00     0.076 A 
HETATM   17  C13 UNL     1      31.628  67.093   7.390  1.00  0.00     0.025 A 
HETATM   18  C14 UNL     1      33.099  66.889   7.463  1.00  0.00     0.070 C 
HETATM   19  N4  UNL     1      30.905  67.511   6.333  1.00  0.00    -0.304 N 
HETATM   20  N5  UNL     1      29.630  67.569   6.648  1.00  0.00    -0.285 N 
ATOM     21  H4  UNL     1      31.291  67.748   5.420  1.00  0.00     0.186 HD
ATOM     22  H5  UNL     1      28.884  67.857   6.016  1.00  0.00     0.188 HD
ENDBRANCH  13  15
ENDBRANCH   6  11
BRANCH   1  23
HETATM   23  C3  UNL     1      25.062  64.019  13.427  1.00  0.00     0.123 C 
BRANCH  23  24
HETATM   24  N2  UNL     1      25.167  64.541  14.735  1.00  0.00    -0.317 N 
HETATM   25  C2  UNL     1      24.046  64.863  15.587  1.00  0.00     0.319 C 
HETATM   26  N1  UNL     1      24.298  65.394  16.878  1.00  0.00    -0.347 N 
HETATM   27  O1  UNL     1      22.852  64.684  15.216  1.00  0.00    -0.247 OA
HETATM   28  C1  UNL     1      23.222  65.742  17.790  1.00  0.00     0.151 C 
ATOM     29  H1  UNL     1      25.263  65.537  17.174  1.00  0.00     0.163 HD
ATOM     30  H2  UNL     1      26.103  64.703  15.105  1.00  0.00     0.170 HD
ENDBRANCH  23  24
ENDBRANCH   1  23
TORSDOF 4
ENDMDL
MODEL 2
REMARK VINA RESULT: -8.210684271      2.343      2.579
REMARK  4 active torsions:
REMARK  status: ('A' for Active; 'I' for Inactive)
REMARK       I    between atoms: N1_2  and  C2_4 
REMARK       I    between atoms: C2_4  and  N2_6 
REMARK    1  A    between atoms: N2_6  and  C3_8 
REMARK    2  A    between atoms: C3_8  and  C4_9 
REMARK    3  A    between atoms: C9_14  and  C10_15 
REMARK       I    between atoms: C10_15  and  N3_17 
REMARK    4  A    between atoms: N3_17  and  C11_19 
ROOT
HETATM    1  C4  UNL     1      25.935  64.145  12.495  1.00  0.00     0.059 A 
HETATM    2  C5  UNL     1      26.001  64.565  11.148  1.00  0.00    -0.026 A 
HETATM    3  C6  UNL     1      24.940  64.219  10.233  1.00  0.00     0.051 C 
HETATM    4  C7  UNL     1      27.072  65.292  10.678  1.00  0.00    -0.033 A 
HETATM    5  C8  UNL     1      27.138  65.744   9.248  1.00  0.00     0.050 C 
HETATM    6  C9  UNL     1      28.101  65.627  11.505  1.00  0.00     0.106 A 
HETATM    7  C15 UNL     1      28.015  65.208  12.808  1.00  0.00     0.264 A 
HETATM    8  O3  UNL     1      28.966  65.508  13.603  1.00  0.00    -0.267 OA
HETATM    9  N6  UNL     1      26.943  64.481  13.272  1.00  0.00    -0.316 N 
HETATM   10  C16 UNL     1      27.049  64.051  14.657  1.00  0.00     0.159 C 
ENDROOT
BRANCH   6  11
HETATM   11  C10 UNL     1      29.257  66.393  11.060  1.00  0.00     0.263 C 
HETATM   12  O2  UNL     1      29.149  67.675  11.038  1.00  0.00    -0.267 OA
HETATM   13  N3  UNL     1      30.489  65.901  10.649  1.00  0.00    -0.308 N 
ATOM     14  H3  UNL     1      30.884  65.153  11.219  1.00  0.00     0.170 HD
BRANCH  13  15
HETATM   15  C11 UNL     1      31.187  66.266   9.648  1.00  0.00     0.124 A 
HETATM   16  C12 UNL     1      30.685  66.623   8.422  1.00  0.00     0.076 A 
HETATM   17  C13 UNL     1      31.756  66.958   7.592  1.00  0.00     0.025 A 
HETATM   18  C14 UNL     1      31.680  67.404   6.175  1.00  0.00     0.070 C 
HETATM   19  N4  UNL     1      32.859  66.792   8.346  1.00  0.00    -0.304 N 
HETATM   20  N5  UNL     1      32.530  66.386   9.552  1.00  0.00    -0.285 N 
ATOM     21  H4  UNL     1      33.814  66.958   8.027  1.00  0.00     0.186 HD
ATOM     22  H5  UNL     1      33.191  66.191  10.304  1.00  0.00     0.188 HD
ENDBRANCH  13  15
ENDBRANCH   6  11
BRANCH   1  23
HETATM   23  C3  UNL     1      24.781  63.377  12.821  1.00  0.00     0.123 C 
BRANCH  23  24
HETATM   24  N2  UNL     1      23.820  63.707  13.803  1.00  0.00    -0.317 N 
HETATM   25  C2  UNL     1      22.729  64.633  13.612  1.00  0.00     0.319 C 
HETATM   26  N1  UNL     1      21.844  64.880  14.692  1.00  0.00    -0.347 N 
HETATM   27  O1  UNL     1      22.541  65.226  12.513  1.00  0.00    -0.247 OA
HETATM   28  C1  UNL     1      20.724  65.799  14.575  1.00  0.00     0.151 C 
ATOM     29  H1  UNL     1      21.998  64.399  15.578  1.00  0.00     0.163 HD
ATOM     30  H2  UNL     1      23.904  63.258  14.715  1.00  0.00     0.170 HD
ENDBRANCH  23  24
ENDBRANCH   1  23
TORSDOF 4
ENDMDL
MODEL 3
REMARK VINA RESULT: -8.139787549      1.202      1.202
REMARK  4 active torsions:
REMARK  status: ('A' for Active; 'I' for Inactive)
REMARK       I    between atoms: N1_2  and  C2_4 
REMARK       I    between atoms: C2_4  and  N2_6 
REMARK    1  A    between atoms: N2_6  and  C3_8 
REMARK    2  A    between atoms: C3_8  and  C4_9 
REMARK    3  A    between atoms: C9_14  and  C10_15 
REMARK       I    between atoms: C10_15  and  N3_17 
REMARK    4  A    between atoms: N3_17  and  C11_19 
ROOT
HETATM    1  C4  UNL     1      25.828  64.502  12.356  1.00  0.00     0.059 A 
HETATM    2  C5  UNL     1      25.086  65.351  11.506  1.00  0.00    -0.026 A 
HETATM    3  C6  UNL     1      23.727  65.701  11.847  1.00  0.00     0.051 C 
HETATM    4  C7  UNL     1      25.626  65.847  10.341  1.00  0.00    -0.033 A 
HETATM    5  C8  UNL     1      24.838  66.755   9.442  1.00  0.00     0.050 C 
HETATM    6  C9  UNL     1      26.899  65.529   9.975  1.00  0.00     0.106 A 
HETATM    7  C15 UNL     1      27.600  64.702  10.815  1.00  0.00     0.264 A 
HETATM    8  O3  UNL     1      28.795  64.389  10.495  1.00  0.00    -0.267 OA
HETATM    9  N6  UNL     1      27.055  64.209  11.978  1.00  0.00    -0.316 N 
HETATM   10  C16 UNL     1      27.906  63.286  12.710  1.00  0.00     0.159 C 
ENDROOT
BRANCH   6  11
HETATM   11  C10 UNL     1      27.519  66.024   8.754  1.00  0.00     0.263 C 
HETATM   12  O2  UNL     1      27.259  65.399   7.659  1.00  0.00    -0.267 OA
HETATM   13  N3  UNL     1      28.375  67.109   8.622  1.00  0.00    -0.308 N 
ATOM     14  H3  UNL     1      28.109  67.952   9.130  1.00  0.00     0.170 HD
BRANCH  13  15
HETATM   15  C11 UNL     1      29.451  67.184   7.944  1.00  0.00     0.124 A 
HETATM   16  C12 UNL     1      30.706  66.899   8.419  1.00  0.00     0.076 A 
HETATM   17  C13 UNL     1      31.621  67.098   7.385  1.00  0.00     0.025 A 
HETATM   18  C14 UNL     1      33.095  66.908   7.450  1.00  0.00     0.070 C 
HETATM   19  N4  UNL     1      30.887  67.495   6.328  1.00  0.00    -0.304 N 
HETATM   20  N5  UNL     1      29.614  67.547   6.652  1.00  0.00    -0.285 N 
ATOM     21  H4  UNL     1      31.264  67.722   5.408  1.00  0.00     0.186 HD
ATOM     22  H5  UNL     1      28.860  67.820   6.021  1.00  0.00     0.188 HD
ENDBRANCH  13  15
ENDBRANCH   6  11
BRANCH   1  23
HETATM   23  C3  UNL     1      25.122  64.048  13.506  1.00  0.00     0.123 C 
BRANCH  23  24
HETATM   24  N2  UNL     1      24.943  64.775  14.705  1.00  0.00    -0.317 N 
HETATM   25  C2  UNL     1      25.971  65.001  15.694  1.00  0.00     0.319 C 
HETATM   26  N1  UNL     1      25.647  65.741  16.860  1.00  0.00    -0.347 N 
HETATM   27  O1  UNL     1      27.145  64.560  15.549  1.00  0.00    -0.247 OA
HETATM   28  C1  UNL     1      26.628  66.007  17.899  1.00  0.00     0.151 C 
ATOM     29  H1  UNL     1      24.698  66.096  16.973  1.00  0.00     0.163 HD
ATOM     30  H2  UNL     1      24.020  65.170  14.884  1.00  0.00     0.170 HD
ENDBRANCH  23  24
ENDBRANCH   1  23
TORSDOF 4
ENDMDL
MODEL 4
REMARK VINA RESULT: -7.959578235      2.302      2.998
REMARK  4 active torsions:
REMARK  status: ('A' for Active; 'I' for Inactive)
REMARK       I    between atoms: N1_2  and  C2_4 
REMARK       I    between atoms: C2_4  and  N2_6 
REMARK    1  A    between atoms: N2_6  and  C3_8 
REMARK    2  A    between atoms: C3_8  and  C4_9 
REMARK    3  A    between atoms: C9_14  and  C10_15 
REMARK       I    between atoms: C10_15  and  N3_17 
REMARK    4  A    between atoms: N3_17  and  C11_19 
ROOT
HETATM    1  C4  UNL     1      25.676  64.325  12.421  1.00  0.00     0.059 A 
HETATM    2  C5  UNL     1      26.560  64.864  13.382  1.00  0.00    -0.026 A 
HETATM    3  C6  UNL     1      26.248  64.758  14.787  1.00  0.00     0.051 C 
HETATM    4  C7  UNL     1      27.718  65.507  13.006  1.00  0.00    -0.033 A 
HETATM    5  C8  UNL     1      28.660  66.074  14.028  1.00  0.00     0.050 C 
HETATM    6  C9  UNL     1      28.043  65.642  11.690  1.00  0.00     0.106 A 
HETATM    7  C15 UNL     1      27.169  65.112  10.775  1.00  0.00     0.264 A 
HETATM    8  O3  UNL     1      27.449  65.225   9.536  1.00  0.00    -0.267 OA
HETATM    9  N6  UNL     1      26.013  64.471  11.157  1.00  0.00    -0.316 N 
HETATM   10  C16 UNL     1      25.162  64.039  10.059  1.00  0.00     0.159 C 
ENDROOT
BRANCH   6  11
HETATM   11  C10 UNL     1      29.253  66.313  11.238  1.00  0.00     0.263 C 
HETATM   12  O2  UNL     1      29.315  67.590  11.384  1.00  0.00    -0.267 OA
HETATM   13  N3  UNL     1      30.372  65.734  10.655  1.00  0.00    -0.308 N 
ATOM     14  H3  UNL     1      30.707  64.874  11.089  1.00  0.00     0.170 HD
BRANCH  13  15
HETATM   15  C11 UNL     1      31.035  66.143   9.646  1.00  0.00     0.124 A 
HETATM   16  C12 UNL     1      30.490  66.521   8.445  1.00  0.00     0.076 A 
HETATM   17  C13 UNL     1      31.530  66.904   7.596  1.00  0.00     0.025 A 
HETATM   18  C14 UNL     1      31.404  67.387   6.195  1.00  0.00     0.070 C 
HETATM   19  N4  UNL     1      32.657  66.742   8.314  1.00  0.00    -0.304 N 
HETATM   20  N5  UNL     1      32.371  66.296   9.516  1.00  0.00    -0.285 N 
ATOM     21  H4  UNL     1      33.599  66.938   7.973  1.00  0.00     0.186 HD
ATOM     22  H5  UNL     1      33.057  66.095  10.244  1.00  0.00     0.188 HD
ENDBRANCH  13  15
ENDBRANCH   6  11
BRANCH   1  23
HETATM   23  C3  UNL     1      24.508  63.717  12.964  1.00  0.00     0.123 C 
BRANCH  23  24
HETATM   24  N2  UNL     1      23.243  64.332  13.096  1.00  0.00    -0.317 N 
HETATM   25  C2  UNL     1      22.327  64.108  14.190  1.00  0.00     0.319 C 
HETATM   26  N1  UNL     1      21.081  64.785  14.188  1.00  0.00    -0.347 N 
HETATM   27  O1  UNL     1      22.605  63.329  15.144  1.00  0.00    -0.247 OA
HETATM   28  C1  UNL     1      20.108  64.609  15.253  1.00  0.00     0.151 C 
ATOM     29  H1  UNL     1      20.860  65.414  13.415  1.00  0.00     0.163 HD
ATOM     30  H2  UNL     1      22.956  64.982  12.365  1.00  0.00     0.170 HD
ENDBRANCH  23  24
ENDBRANCH   1  23
TORSDOF 4
ENDMDL
MODEL 5
REMARK VINA RESULT: -7.732175915      2.091      2.734
REMARK  4 active torsions:
REMARK  status: ('A' for Active; 'I' for Inactive)
REMARK       I    between atoms: N1_2  and  C2_4 
REMARK       I    between atoms: C2_4  and  N2_6 
REMARK    1  A    between atoms: N2_6  and  C3_8 
REMARK    2  A    between atoms: C3_8  and  C4_9 
REMARK    3  A    between atoms: C9_14  and  C10_15 
REMARK       I    between atoms: C10_15  and  N3_17 
REMARK    4  A    between atoms: N3_17  and  C11_19 
ROOT
HETATM    1  C4  UNL     1      25.635  65.074  14.535  1.00  0.00     0.059 A 
HETATM    2  C5  UNL     1      25.076  64.716  13.289  1.00  0.00    -0.026 A 
HETATM    3  C6  UNL     1      23.664  64.429  13.189  1.00  0.00     0.051 C 
HETATM    4  C7  UNL     1      25.854  64.619  12.157  1.00  0.00    -0.033 A 
HETATM    5  C8  UNL     1      25.257  64.245  10.831  1.00  0.00     0.050 C 
HETATM    6  C9  UNL     1      27.192  64.867  12.211  1.00  0.00     0.106 A 
HETATM    7  C15 UNL     1      27.713  65.212  13.432  1.00  0.00     0.264 A 
HETATM    8  O3  UNL     1      28.964  65.449  13.509  1.00  0.00    -0.267 OA
HETATM    9  N6  UNL     1      26.931  65.306  14.559  1.00  0.00    -0.316 N 
HETATM   10  C16 UNL     1      27.655  65.605  15.784  1.00  0.00     0.159 C 
ENDROOT
BRANCH   6  11
HETATM   11  C10 UNL     1      28.062  64.779  11.046  1.00  0.00     0.263 C 
HETATM   12  O2  UNL     1      28.438  63.606  10.673  1.00  0.00    -0.267 OA
HETATM   13  N3  UNL     1      28.545  65.825  10.272  1.00  0.00    -0.308 N 
ATOM     14  H3  UNL     1      27.870  66.550  10.029  1.00  0.00     0.170 HD
BRANCH  13  15
HETATM   15  C11 UNL     1      29.727  65.992   9.825  1.00  0.00     0.124 A 
HETATM   16  C12 UNL     1      30.047  66.645   8.662  1.00  0.00     0.076 A 
HETATM   17  C13 UNL     1      31.434  66.621   8.515  1.00  0.00     0.025 A 
HETATM   18  C14 UNL     1      32.222  67.210   7.399  1.00  0.00     0.070 C 
HETATM   19  N4  UNL     1      31.898  65.958   9.591  1.00  0.00    -0.304 N 
HETATM   20  N5  UNL     1      30.900  65.588  10.362  1.00  0.00    -0.285 N 
ATOM     21  H4  UNL     1      32.882  65.771   9.782  1.00  0.00     0.186 HD
ATOM     22  H5  UNL     1      30.996  65.071  11.237  1.00  0.00     0.188 HD
ENDBRANCH  13  15
ENDBRANCH   6  11
BRANCH   1  23
HETATM   23  C3  UNL     1      24.707  65.102  15.615  1.00  0.00     0.123 C 
BRANCH  23  24
HETATM   24  N2  UNL     1      24.071  66.255  16.127  1.00  0.00    -0.317 N 
HETATM   25  C2  UNL     1      23.704  66.450  17.510  1.00  0.00     0.319 C 
HETATM   26  N1  UNL     1      23.056  67.656  17.883  1.00  0.00    -0.347 N 
HETATM   27  O1  UNL     1      23.942  65.579  18.393  1.00  0.00    -0.247 OA
HETATM   28  C1  UNL     1      22.657  67.922  19.254  1.00  0.00     0.151 C 
ATOM     29  H1  UNL     1      22.866  68.357  17.167  1.00  0.00     0.163 HD
ATOM     30  H2  UNL     1      23.856  67.006  15.471  1.00  0.00     0.170 HD
ENDBRANCH  23  24
ENDBRANCH   1  23
TORSDOF 4
ENDMDL
