MODEL 1
REMARK VINA RESULT: -9.367101465      0.000      0.000
REMARK  4 active torsions:
REMARK  status: ('A' for Active; 'I' for Inactive)
REMARK    1  A    between atoms: C2_5  and  C3_6 
REMARK    2  A    between atoms: C3_6  and  C4_7 
REMARK    3  A    between atoms: C5_8  and  O2_9 
REMARK    4  A    between atoms: C14_24  and  C15_25 
ROOT
HETATM    1  O1  UNL     1      25.023  68.730  10.659  1.00  0.00    -0.266 OA
HETATM    2  C1  UNL     1      25.139  67.715   9.935  1.00  0.00     0.273 A 
HETATM    3  N1  UNL     1      26.344  67.409   9.366  1.00  0.00    -0.317 N 
ATOM      4  H1  UNL     1      27.144  68.017   9.539  1.00  0.00     0.169 HD
HETATM    5  C2  UNL     1      26.500  66.327   8.585  1.00  0.00     0.104 A 
HETATM    6  C12 UNL     1      25.393  65.534   8.377  1.00  0.00     0.273 A 
HETATM    7  O3  UNL     1      25.478  64.515   7.661  1.00  0.00    -0.266 OA
HETATM    8  N3  UNL     1      24.205  65.832   8.936  1.00  0.00    -0.317 N 
ATOM      9  H3  UNL     1      23.407  65.221   8.760  1.00  0.00     0.169 HD
HETATM   10  C13 UNL     1      24.038  66.925   9.728  1.00  0.00     0.106 A 
HETATM   11  C14 UNL     1      22.842  67.150  10.239  1.00  0.00     0.064 C 
ENDROOT
BRANCH   5  12
HETATM   12  C3  UNL     1      27.682  66.050   8.043  1.00  0.00     0.052 C 
BRANCH  12  13
HETATM   13  C4  UNL     1      28.902  65.995   8.830  1.00  0.00     0.030 A 
HETATM   14  C5  UNL     1      29.088  65.558  10.121  1.00  0.00     0.151 A 
HETATM   15  N2  UNL     1      30.377  65.685  10.446  1.00  0.00    -0.336 N 
HETATM   16  C6  UNL     1      31.079  66.199   9.410  1.00  0.00     0.045 A 
ATOM     17  H2  UNL     1      30.775  65.431  11.349  1.00  0.00     0.168 HD
HETATM   18  C7  UNL     1      32.420  66.513   9.253  1.00  0.00     0.030 A 
HETATM   19  C11 UNL     1      30.168  66.397   8.395  1.00  0.00     0.005 A 
HETATM   20  C8  UNL     1      32.821  67.033   8.041  1.00  0.00     0.002 A 
HETATM   21  C9  UNL     1      31.908  67.230   7.027  1.00  0.00     0.001 A 
HETATM   22  C10 UNL     1      30.575  66.917   7.183  1.00  0.00     0.014 A 
BRANCH  14  23
HETATM   23  O2  UNL     1      28.040  65.065  10.922  1.00  0.00    -0.345 OA
ATOM     24  H2  UNL     1      28.181  64.682  11.780  1.00  0.00     0.219 HD
ENDBRANCH  14  23
ENDBRANCH  12  13
ENDBRANCH   5  12
BRANCH  11  25
HETATM   25  C15 UNL     1      22.506  68.260  11.094  1.00  0.00     0.034 A 
HETATM   26  C16 UNL     1      22.430  68.109  12.453  1.00  0.00     0.029 A 
HETATM   27  C17 UNL     1      22.107  69.214  13.226  1.00  0.00     0.004 A 
HETATM   28  C18 UNL     1      21.871  70.435  12.627  1.00  0.00     0.017 A 
HETATM   29  C19 UNL     1      21.957  70.552  11.255  1.00  0.00     0.088 A 
HETATM   30  N4  UNL     1      22.272  69.455  10.550  1.00  0.00    -0.366 N 
ATOM     31  H4  UNL     1      22.337  69.540   9.536  1.00  0.00     0.165 HD
ENDBRANCH  11  25
TORSDOF 4
ENDMDL
MODEL 2
REMARK VINA RESULT: -8.893749383      2.887      3.596
REMARK  4 active torsions:
REMARK  status: ('A' for Active; 'I' for Inactive)
REMARK    1  A    between atoms: C2_5  and  C3_6 
REMARK    2  A    between atoms: C3_6  and  C4_7 
REMARK    3  A    between atoms: C5_8  and  O2_9 
REMARK    4  A    between atoms: C14_24  and  C15_25 
ROOT
HETATM    1  O1  UNL     1      24.688  66.372  12.867  1.00  0.00    -0.266 OA
HETATM    2  C1  UNL     1      25.560  65.620  12.373  1.00  0.00     0.273 A 
HETATM    3  N1  UNL     1      26.695  66.150  11.826  1.00  0.00    -0.317 N 
ATOM      4  H1  UNL     1      26.821  67.162  11.825  1.00  0.00     0.169 HD
HETATM    5  C2  UNL     1      27.649  65.372  11.290  1.00  0.00     0.104 A 
HETATM    6  C12 UNL     1      27.438  64.011  11.311  1.00  0.00     0.273 A 
HETATM    7  O3  UNL     1      28.289  63.236  10.827  1.00  0.00    -0.266 OA
HETATM    8  N3  UNL     1      26.321  63.485  11.849  1.00  0.00    -0.317 N 
ATOM      9  H3  UNL     1      26.199  62.472  11.847  1.00  0.00     0.169 HD
HETATM   10  C13 UNL     1      25.351  64.266  12.394  1.00  0.00     0.106 A 
HETATM   11  C14 UNL     1      24.285  63.676  12.902  1.00  0.00     0.064 C 
ENDROOT
BRANCH   5  12
HETATM   12  C3  UNL     1      28.745  65.910  10.763  1.00  0.00     0.052 C 
BRANCH  12  13
HETATM   13  C4  UNL     1      28.833  66.273   9.359  1.00  0.00     0.030 A 
HETATM   14  C5  UNL     1      27.828  66.411   8.430  1.00  0.00     0.151 A 
HETATM   15  N2  UNL     1      28.360  66.758   7.256  1.00  0.00    -0.336 N 
HETATM   16  C6  UNL     1      29.706  66.860   7.357  1.00  0.00     0.045 A 
ATOM     17  H2  UNL     1      27.828  66.922   6.403  1.00  0.00     0.168 HD
HETATM   18  C7  UNL     1      30.692  67.186   6.437  1.00  0.00     0.030 A 
HETATM   19  C11 UNL     1      30.012  66.559   8.666  1.00  0.00     0.005 A 
HETATM   20  C8  UNL     1      31.999  67.201   6.874  1.00  0.00     0.002 A 
HETATM   21  C9  UNL     1      32.303  66.899   8.185  1.00  0.00     0.001 A 
HETATM   22  C10 UNL     1      31.323  66.576   9.098  1.00  0.00     0.014 A 
BRANCH  14  23
HETATM   23  O2  UNL     1      26.469  66.204   8.734  1.00  0.00    -0.345 OA
ATOM     24  H2  UNL     1      25.842  66.914   8.808  1.00  0.00     0.219 HD
ENDBRANCH  14  23
ENDBRANCH  12  13
ENDBRANCH   5  12
BRANCH  11  25
HETATM   25  C15 UNL     1      23.175  64.363  13.514  1.00  0.00     0.034 A 
HETATM   26  C16 UNL     1      23.037  64.412  14.876  1.00  0.00     0.029 A 
HETATM   27  C17 UNL     1      21.951  65.091  15.407  1.00  0.00     0.004 A 
HETATM   28  C18 UNL     1      21.037  65.701  14.573  1.00  0.00     0.017 A 
HETATM   29  C19 UNL     1      21.207  65.633  13.205  1.00  0.00     0.088 A 
HETATM   30  N4  UNL     1      22.272  64.964  12.738  1.00  0.00    -0.366 N 
ATOM     31  H4  UNL     1      22.400  64.913  11.727  1.00  0.00     0.165 HD
ENDBRANCH  11  25
TORSDOF 4
ENDMDL
MODEL 3
REMARK VINA RESULT: -8.652253182      2.748      3.185
REMARK  4 active torsions:
REMARK  status: ('A' for Active; 'I' for Inactive)
REMARK    1  A    between atoms: C2_5  and  C3_6 
REMARK    2  A    between atoms: C3_6  and  C4_7 
REMARK    3  A    between atoms: C5_8  and  O2_9 
REMARK    4  A    between atoms: C14_24  and  C15_25 
ROOT
HETATM    1  O1  UNL     1      25.547  66.534  13.255  1.00  0.00    -0.266 OA
HETATM    2  C1  UNL     1      25.599  65.915  12.167  1.00  0.00     0.273 A 
HETATM    3  N1  UNL     1      26.489  66.296  11.201  1.00  0.00    -0.317 N 
ATOM      4  H1  UNL     1      27.106  67.088  11.378  1.00  0.00     0.169 HD
HETATM    5  C2  UNL     1      26.570  65.653  10.025  1.00  0.00     0.104 A 
HETATM    6  C12 UNL     1      25.716  64.589   9.827  1.00  0.00     0.273 A 
HETATM    7  O3  UNL     1      25.745  63.953   8.754  1.00  0.00    -0.266 OA
HETATM    8  N3  UNL     1      24.839  64.212  10.777  1.00  0.00    -0.317 N 
ATOM      9  H3  UNL     1      24.223  63.419  10.595  1.00  0.00     0.169 HD
HETATM   10  C13 UNL     1      24.751  64.857  11.970  1.00  0.00     0.106 A 
HETATM   11  C14 UNL     1      23.866  64.427  12.850  1.00  0.00     0.064 C 
ENDROOT
BRANCH   5  12
HETATM   12  C3  UNL     1      27.443  66.041   9.100  1.00  0.00     0.052 C 
BRANCH  12  13
HETATM   13  C4  UNL     1      28.877  66.029   9.335  1.00  0.00     0.030 A 
HETATM   14  C5  UNL     1      29.577  65.579  10.429  1.00  0.00     0.151 A 
HETATM   15  N2  UNL     1      30.883  65.760  10.219  1.00  0.00    -0.336 N 
HETATM   16  C6  UNL     1      31.095  66.325   9.007  1.00  0.00     0.045 A 
ATOM     17  H2  UNL     1      31.618  65.509  10.880  1.00  0.00     0.168 HD
HETATM   18  C7  UNL     1      32.251  66.704   8.341  1.00  0.00     0.030 A 
HETATM   19  C11 UNL     1      29.849  66.497   8.446  1.00  0.00     0.005 A 
HETATM   20  C8  UNL     1      32.116  67.263   7.088  1.00  0.00     0.002 A 
HETATM   21  C9  UNL     1      30.868  67.434   6.528  1.00  0.00     0.001 A 
HETATM   22  C10 UNL     1      29.720  67.057   7.191  1.00  0.00     0.014 A 
BRANCH  14  23
HETATM   23  O2  UNL     1      28.954  65.023  11.563  1.00  0.00    -0.345 OA
ATOM     24  H2  UNL     1      28.095  64.618  11.535  1.00  0.00     0.219 HD
ENDBRANCH  14  23
ENDBRANCH  12  13
ENDBRANCH   5  12
BRANCH  11  25
HETATM   25  C15 UNL     1      23.653  65.002  14.154  1.00  0.00     0.034 A 
HETATM   26  C16 UNL     1      22.603  65.850  14.390  1.00  0.00     0.029 A 
HETATM   27  C17 UNL     1      22.444  66.369  15.666  1.00  0.00     0.004 A 
HETATM   28  C18 UNL     1      23.330  66.031  16.668  1.00  0.00     0.017 A 
HETATM   29  C19 UNL     1      24.376  65.174  16.396  1.00  0.00     0.088 A 
HETATM   30  N4  UNL     1      24.489  64.698  15.147  1.00  0.00    -0.366 N 
ATOM     31  H4  UNL     1      25.262  64.063  14.944  1.00  0.00     0.165 HD
ENDBRANCH  11  25
TORSDOF 4
ENDMDL
MODEL 4
REMARK VINA RESULT: -8.478424075      3.325      3.765
REMARK  4 active torsions:
REMARK  status: ('A' for Active; 'I' for Inactive)
REMARK    1  A    between atoms: C2_5  and  C3_6 
REMARK    2  A    between atoms: C3_6  and  C4_7 
REMARK    3  A    between atoms: C5_8  and  O2_9 
REMARK    4  A    between atoms: C14_24  and  C15_25 
ROOT
HETATM    1  O1  UNL     1      24.492  66.158  13.543  1.00  0.00    -0.266 OA
HETATM    2  C1  UNL     1      24.871  65.380  12.638  1.00  0.00     0.273 A 
HETATM    3  N1  UNL     1      25.642  65.845  11.609  1.00  0.00    -0.317 N 
ATOM      4  H1  UNL     1      25.903  66.831  11.589  1.00  0.00     0.169 HD
HETATM    5  C2  UNL     1      26.066  65.037  10.624  1.00  0.00     0.104 A 
HETATM    6  C12 UNL     1      25.690  63.713  10.689  1.00  0.00     0.273 A 
HETATM    7  O3  UNL     1      26.053  62.913   9.802  1.00  0.00    -0.266 OA
HETATM    8  N3  UNL     1      24.931  63.251  11.701  1.00  0.00    -0.317 N 
ATOM      9  H3  UNL     1      24.673  62.264  11.717  1.00  0.00     0.169 HD
HETATM   10  C13 UNL     1      24.499  64.063  12.703  1.00  0.00     0.106 A 
HETATM   11  C14 UNL     1      23.759  63.536  13.660  1.00  0.00     0.064 C 
ENDROOT
BRANCH   5  12
HETATM   12  C3  UNL     1      26.815  65.512   9.633  1.00  0.00     0.052 C 
BRANCH  12  13
HETATM   13  C4  UNL     1      28.245  65.724   9.776  1.00  0.00     0.030 A 
HETATM   14  C5  UNL     1      29.049  65.530  10.874  1.00  0.00     0.151 A 
HETATM   15  N2  UNL     1      30.306  65.852  10.560  1.00  0.00    -0.336 N 
HETATM   16  C6  UNL     1      30.383  66.263   9.273  1.00  0.00     0.045 A 
ATOM     17  H2  UNL     1      31.097  65.797  11.201  1.00  0.00     0.168 HD
HETATM   18  C7  UNL     1      31.443  66.695   8.490  1.00  0.00     0.030 A 
HETATM   19  C11 UNL     1      29.101  66.188   8.774  1.00  0.00     0.005 A 
HETATM   20  C8  UNL     1      31.176  67.049   7.185  1.00  0.00     0.002 A 
HETATM   21  C9  UNL     1      29.893  66.972   6.687  1.00  0.00     0.001 A 
HETATM   22  C10 UNL     1      28.840  66.543   7.466  1.00  0.00     0.014 A 
BRANCH  14  23
HETATM   23  O2  UNL     1      28.561  65.062  12.110  1.00  0.00    -0.345 OA
ATOM     24  H2  UNL     1      29.048  65.142  12.922  1.00  0.00     0.219 HD
ENDBRANCH  14  23
ENDBRANCH  12  13
ENDBRANCH   5  12
BRANCH  11  25
HETATM   25  C15 UNL     1      23.226  64.261  14.785  1.00  0.00     0.034 A 
HETATM   26  C16 UNL     1      21.913  64.652  14.818  1.00  0.00     0.029 A 
HETATM   27  C17 UNL     1      21.455  65.343  15.930  1.00  0.00     0.004 A 
HETATM   28  C18 UNL     1      22.312  65.624  16.974  1.00  0.00     0.017 A 
HETATM   29  C19 UNL     1      23.629  65.215  16.909  1.00  0.00     0.088 A 
HETATM   30  N4  UNL     1      24.025  64.550  15.813  1.00  0.00    -0.366 N 
ATOM     31  H4  UNL     1      24.998  64.247  15.763  1.00  0.00     0.165 HD
ENDBRANCH  11  25
TORSDOF 4
ENDMDL
MODEL 5
REMARK VINA RESULT: -8.421239210      3.757      7.560
REMARK  4 active torsions:
REMARK  status: ('A' for Active; 'I' for Inactive)
REMARK    1  A    between atoms: C2_5  and  C3_6 
REMARK    2  A    between atoms: C3_6  and  C4_7 
REMARK    3  A    between atoms: C5_8  and  O2_9 
REMARK    4  A    between atoms: C14_24  and  C15_25 
ROOT
HETATM    1  O1  UNL     1      28.539  64.893   9.734  1.00  0.00    -0.266 OA
HETATM    2  C1  UNL     1      27.364  65.055  10.137  1.00  0.00     0.273 A 
HETATM    3  N1  UNL     1      26.941  64.450  11.288  1.00  0.00    -0.317 N 
ATOM      4  H1  UNL     1      27.593  63.866  11.811  1.00  0.00     0.169 HD
HETATM    5  C2  UNL     1      25.689  64.605  11.746  1.00  0.00     0.104 A 
HETATM    6  C12 UNL     1      24.841  65.401  11.008  1.00  0.00     0.273 A 
HETATM    7  O3  UNL     1      23.664  65.583  11.384  1.00  0.00    -0.266 OA
HETATM    8  N3  UNL     1      25.254  65.999   9.875  1.00  0.00    -0.317 N 
ATOM      9  H3  UNL     1      24.598  66.582   9.354  1.00  0.00     0.169 HD
HETATM   10  C13 UNL     1      26.521  65.848   9.403  1.00  0.00     0.106 A 
HETATM   11  C14 UNL     1      26.850  66.467   8.285  1.00  0.00     0.064 C 
ENDROOT
BRANCH   5  12
HETATM   12  C3  UNL     1      25.300  64.006  12.868  1.00  0.00     0.052 C 
BRANCH  12  13
HETATM   13  C4  UNL     1      25.891  64.319  14.158  1.00  0.00     0.030 A 
HETATM   14  C5  UNL     1      27.137  64.003  14.646  1.00  0.00     0.151 A 
HETATM   15  N2  UNL     1      27.261  64.490  15.883  1.00  0.00    -0.336 N 
HETATM   16  C6  UNL     1      26.129  65.132  16.255  1.00  0.00     0.045 A 
ATOM     17  H2  UNL     1      28.092  64.392  16.465  1.00  0.00     0.168 HD
HETATM   18  C7  UNL     1      25.769  65.793  17.420  1.00  0.00     0.030 A 
HETATM   19  C11 UNL     1      25.266  65.031  15.186  1.00  0.00     0.005 A 
HETATM   20  C8  UNL     1      24.510  66.352  17.478  1.00  0.00     0.002 A 
HETATM   21  C9  UNL     1      23.648  66.250  16.406  1.00  0.00     0.001 A 
HETATM   22  C10 UNL     1      24.008  65.593  15.250  1.00  0.00     0.014 A 
BRANCH  14  23
HETATM   23  O2  UNL     1      28.089  63.276  13.905  1.00  0.00    -0.345 OA
ATOM     24  H2  UNL     1      28.916  63.647  13.620  1.00  0.00     0.219 HD
ENDBRANCH  14  23
ENDBRANCH  12  13
ENDBRANCH   5  12
BRANCH  11  25
HETATM   25  C15 UNL     1      28.147  66.406   7.660  1.00  0.00     0.034 A 
HETATM   26  C16 UNL     1      28.366  65.618   6.561  1.00  0.00     0.029 A 
HETATM   27  C17 UNL     1      29.634  65.604   5.998  1.00  0.00     0.004 A 
HETATM   28  C18 UNL     1      30.643  66.371   6.542  1.00  0.00     0.017 A 
HETATM   29  C19 UNL     1      30.388  67.154   7.650  1.00  0.00     0.088 A 
HETATM   30  N4  UNL     1      29.146  67.134   8.158  1.00  0.00    -0.366 N 
ATOM     31  H4  UNL     1      28.955  67.713   8.977  1.00  0.00     0.165 HD
ENDBRANCH  11  25
TORSDOF 4
ENDMDL
