MODEL 1
REMARK VINA RESULT: -6.298134783      0.000      0.000
REMARK  6 active torsions:
REMARK  status: ('A' for Active; 'I' for Inactive)
REMARK    1  A    between atoms: O1_2  and  C2_3 
REMARK    2  A    between atoms: C2_3  and  N2_8 
REMARK    3  A    between atoms: N1_4  and  O2_6 
REMARK    4  A    between atoms: N2_8  and  O3_9 
REMARK    5  A    between atoms: N2_8  and  C3_11 
REMARK    6  A    between atoms: C9_17  and  O4_18 
ROOT
HETATM    1  N2  UNL     1      16.569  -1.403  51.261  1.00  0.00    -0.215 N 
ENDROOT
BRANCH   1   2
HETATM    2  C2  UNL     1      17.102  -1.636  49.955  1.00  0.00     0.266 C 
HETATM    3  N1  UNL     1      17.769  -0.727  49.327  1.00  0.00    -0.231 N 
ATOM      4  H1  UNL     1      18.128  -0.948  48.398  1.00  0.00     0.198 HD
BRANCH   2   5
HETATM    5  O1  UNL     1      16.924  -2.846  49.314  1.00  0.00    -0.324 OA
HETATM    6  C1  UNL     1      17.600  -4.033  49.677  1.00  0.00     0.213 C 
ENDBRANCH   2   5
BRANCH   3   7
HETATM    7  O2  UNL     1      18.021   0.513  49.838  1.00  0.00    -0.287 OA
ATOM      8  H2  UNL     1      17.884   1.320  49.354  1.00  0.00     0.244 HD
ENDBRANCH   3   7
ENDBRANCH   1   2
BRANCH   1   9
HETATM    9  O3  UNL     1      17.411  -1.438  52.295  1.00  0.00    -0.284 OA
ATOM     10  H3  UNL     1      17.065  -1.694  53.142  1.00  0.00     0.245 HD
ENDBRANCH   1   9
BRANCH   1  11
HETATM   11  C3  UNL     1      15.139  -1.142  51.392  1.00  0.00     0.147 C 
HETATM   12  C4  UNL     1      14.724  -0.171  50.353  1.00  0.00     0.030 C 
HETATM   13  C5  UNL     1      13.547  -0.561  49.530  1.00  0.00     0.002 C 
HETATM   14  C6  UNL     1      12.366  -1.038  50.280  1.00  0.00     0.000 C 
HETATM   15  C7  UNL     1      12.471  -0.957  51.767  1.00  0.00     0.002 C 
HETATM   16  C8  UNL     1      13.095  -2.278  52.234  1.00  0.00     0.034 C 
HETATM   17  C9  UNL     1      14.367  -2.432  51.388  1.00  0.00     0.143 C 
BRANCH  17  18
HETATM   18  O4  UNL     1      15.080  -3.472  51.984  1.00  0.00    -0.393 OA
ATOM     19  H4  UNL     1      14.517  -4.197  52.230  1.00  0.00     0.210 HD
ENDBRANCH  17  18
ENDBRANCH   1  11
TORSDOF 6
ENDMDL
MODEL 2
REMARK VINA RESULT: -5.987839291      1.373      2.347
REMARK  6 active torsions:
REMARK  status: ('A' for Active; 'I' for Inactive)
REMARK    1  A    between atoms: O1_2  and  C2_3 
REMARK    2  A    between atoms: C2_3  and  N2_8 
REMARK    3  A    between atoms: N1_4  and  O2_6 
REMARK    4  A    between atoms: N2_8  and  O3_9 
REMARK    5  A    between atoms: N2_8  and  C3_11 
REMARK    6  A    between atoms: C9_17  and  O4_18 
ROOT
HETATM    1  N2  UNL     1      16.659  -2.132  50.794  1.00  0.00    -0.215 N 
ENDROOT
BRANCH   1   2
HETATM    2  C2  UNL     1      17.284  -3.166  50.029  1.00  0.00     0.266 C 
HETATM    3  N1  UNL     1      18.073  -2.894  49.045  1.00  0.00    -0.231 N 
ATOM      4  H1  UNL     1      18.493  -3.671  48.535  1.00  0.00     0.198 HD
BRANCH   2   5
HETATM    5  O1  UNL     1      17.067  -4.499  50.316  1.00  0.00    -0.324 OA
HETATM    6  C1  UNL     1      17.428  -5.108  51.538  1.00  0.00     0.213 C 
ENDBRANCH   2   5
BRANCH   3   7
HETATM    7  O2  UNL     1      18.377  -1.623  48.650  1.00  0.00    -0.287 OA
ATOM      8  H2  UNL     1      17.790  -1.075  48.142  1.00  0.00     0.244 HD
ENDBRANCH   3   7
ENDBRANCH   1   2
BRANCH   1   9
HETATM    9  O3  UNL     1      17.416  -1.445  51.651  1.00  0.00    -0.284 OA
ATOM     10  H3  UNL     1      17.235  -1.539  52.579  1.00  0.00     0.245 HD
ENDBRANCH   1   9
BRANCH   1  11
HETATM   11  C3  UNL     1      15.234  -1.886  50.597  1.00  0.00     0.147 C 
HETATM   12  C4  UNL     1      14.490  -2.349  51.791  1.00  0.00     0.030 C 
HETATM   13  C5  UNL     1      13.542  -1.368  52.387  1.00  0.00     0.002 C 
HETATM   14  C6  UNL     1      12.622  -0.703  51.441  1.00  0.00     0.000 C 
HETATM   15  C7  UNL     1      12.688  -1.187  50.030  1.00  0.00     0.002 C 
HETATM   16  C8  UNL     1      13.757  -0.342  49.327  1.00  0.00     0.034 C 
HETATM   17  C9  UNL     1      14.996  -0.448  50.228  1.00  0.00     0.143 C 
BRANCH  17  18
HETATM   18  O4  UNL     1      16.044   0.081  49.474  1.00  0.00    -0.393 OA
ATOM     19  H4  UNL     1      15.736   0.681  48.805  1.00  0.00     0.210 HD
ENDBRANCH  17  18
ENDBRANCH   1  11
TORSDOF 6
ENDMDL
MODEL 3
REMARK VINA RESULT: -5.922918749      1.018      2.027
REMARK  6 active torsions:
REMARK  status: ('A' for Active; 'I' for Inactive)
REMARK    1  A    between atoms: O1_2  and  C2_3 
REMARK    2  A    between atoms: C2_3  and  N2_8 
REMARK    3  A    between atoms: N1_4  and  O2_6 
REMARK    4  A    between atoms: N2_8  and  O3_9 
REMARK    5  A    between atoms: N2_8  and  C3_11 
REMARK    6  A    between atoms: C9_17  and  O4_18 
ROOT
HETATM    1  N2  UNL     1      16.564  -1.615  51.140  1.00  0.00    -0.215 N 
ENDROOT
BRANCH   1   2
HETATM    2  C2  UNL     1      17.228  -1.837  49.894  1.00  0.00     0.266 C 
HETATM    3  N1  UNL     1      17.882  -0.895  49.300  1.00  0.00    -0.231 N 
ATOM      4  H1  UNL     1      18.337  -1.110  48.413  1.00  0.00     0.198 HD
BRANCH   2   5
HETATM    5  O1  UNL     1      17.195  -3.071  49.275  1.00  0.00    -0.324 OA
HETATM    6  C1  UNL     1      17.630  -4.267  49.887  1.00  0.00     0.213 C 
ENDBRANCH   2   5
BRANCH   3   7
HETATM    7  O2  UNL     1      17.997   0.371  49.795  1.00  0.00    -0.287 OA
ATOM      8  H2  UNL     1      18.331   0.569  50.663  1.00  0.00     0.244 HD
ENDBRANCH   3   7
ENDBRANCH   1   2
BRANCH   1   9
HETATM    9  O3  UNL     1      17.317  -1.372  52.214  1.00  0.00    -0.284 OA
ATOM     10  H3  UNL     1      17.202  -0.541  52.660  1.00  0.00     0.245 HD
ENDBRANCH   1   9
BRANCH   1  11
HETATM   11  C3  UNL     1      15.105  -1.665  51.170  1.00  0.00     0.147 C 
HETATM   12  C4  UNL     1      14.666  -2.352  52.406  1.00  0.00     0.030 C 
HETATM   13  C5  UNL     1      13.647  -1.636  53.222  1.00  0.00     0.002 C 
HETATM   14  C6  UNL     1      12.475  -1.122  52.483  1.00  0.00     0.000 C 
HETATM   15  C7  UNL     1      12.414  -1.488  51.037  1.00  0.00     0.002 C 
HETATM   16  C8  UNL     1      13.168  -0.391  50.275  1.00  0.00     0.034 C 
HETATM   17  C9  UNL     1      14.529  -0.289  50.979  1.00  0.00     0.143 C 
BRANCH  17  18
HETATM   18  O4  UNL     1      15.318   0.498  50.140  1.00  0.00    -0.393 OA
ATOM     19  H4  UNL     1      15.037   0.448  49.234  1.00  0.00     0.210 HD
ENDBRANCH  17  18
ENDBRANCH   1  11
TORSDOF 6
ENDMDL
MODEL 4
REMARK VINA RESULT: -5.881294640      2.026      3.687
REMARK  6 active torsions:
REMARK  status: ('A' for Active; 'I' for Inactive)
REMARK    1  A    between atoms: O1_2  and  C2_3 
REMARK    2  A    between atoms: C2_3  and  N2_8 
REMARK    3  A    between atoms: N1_4  and  O2_6 
REMARK    4  A    between atoms: N2_8  and  O3_9 
REMARK    5  A    between atoms: N2_8  and  C3_11 
REMARK    6  A    between atoms: C9_17  and  O4_18 
ROOT
HETATM    1  N2  UNL     1      17.175  -1.330  49.648  1.00  0.00    -0.215 N 
ENDROOT
BRANCH   1   2
HETATM    2  C2  UNL     1      16.010  -0.520  49.475  1.00  0.00     0.266 C 
HETATM    3  N1  UNL     1      16.085   0.768  49.429  1.00  0.00    -0.231 N 
ATOM      4  H1  UNL     1      15.222   1.297  49.303  1.00  0.00     0.198 HD
BRANCH   2   5
HETATM    5  O1  UNL     1      14.757  -1.085  49.350  1.00  0.00    -0.324 OA
HETATM    6  C1  UNL     1      13.599  -0.355  49.002  1.00  0.00     0.213 C 
ENDBRANCH   2   5
BRANCH   3   7
HETATM    7  O2  UNL     1      17.256   1.461  49.540  1.00  0.00    -0.287 OA
ATOM      8  H2  UNL     1      18.089   1.140  49.216  1.00  0.00     0.244 HD
ENDBRANCH   3   7
ENDBRANCH   1   2
BRANCH   1   9
HETATM    9  O3  UNL     1      18.144  -1.234  48.736  1.00  0.00    -0.284 OA
ATOM     10  H3  UNL     1      19.039  -1.369  49.022  1.00  0.00     0.245 HD
ENDBRANCH   1   9
BRANCH   1  11
HETATM   11  C3  UNL     1      17.241  -2.214  50.807  1.00  0.00     0.147 C 
HETATM   12  C4  UNL     1      16.475  -1.614  51.923  1.00  0.00     0.030 C 
HETATM   13  C5  UNL     1      15.473  -2.500  52.576  1.00  0.00     0.002 C 
HETATM   14  C6  UNL     1      15.952  -3.846  52.955  1.00  0.00     0.000 C 
HETATM   15  C7  UNL     1      17.407  -4.097  52.737  1.00  0.00     0.002 C 
HETATM   16  C8  UNL     1      17.550  -4.630  51.306  1.00  0.00     0.034 C 
HETATM   17  C9  UNL     1      16.814  -3.606  50.430  1.00  0.00     0.143 C 
BRANCH  17  18
HETATM   18  O4  UNL     1      17.164  -3.926  49.118  1.00  0.00    -0.393 OA
ATOM     19  H4  UNL     1      16.524  -4.493  48.705  1.00  0.00     0.210 HD
ENDBRANCH  17  18
ENDBRANCH   1  11
TORSDOF 6
ENDMDL
MODEL 5
REMARK VINA RESULT: -5.833237379      1.962      3.727
REMARK  6 active torsions:
REMARK  status: ('A' for Active; 'I' for Inactive)
REMARK    1  A    between atoms: O1_2  and  C2_3 
REMARK    2  A    between atoms: C2_3  and  N2_8 
REMARK    3  A    between atoms: N1_4  and  O2_6 
REMARK    4  A    between atoms: N2_8  and  O3_9 
REMARK    5  A    between atoms: N2_8  and  C3_11 
REMARK    6  A    between atoms: C9_17  and  O4_18 
ROOT
HETATM    1  N2  UNL     1      16.772  -0.860  50.284  1.00  0.00    -0.215 N 
ENDROOT
BRANCH   1   2
HETATM    2  C2  UNL     1      15.692   0.015  49.949  1.00  0.00     0.266 C 
HETATM    3  N1  UNL     1      15.903   1.223  49.547  1.00  0.00    -0.231 N 
ATOM      4  H1  UNL     1      15.096   1.804  49.321  1.00  0.00     0.198 HD
BRANCH   2   5
HETATM    5  O1  UNL     1      14.379  -0.399  50.044  1.00  0.00    -0.324 OA
HETATM    6  C1  UNL     1      13.509  -0.506  48.936  1.00  0.00     0.213 C 
ENDBRANCH   2   5
BRANCH   3   7
HETATM    7  O2  UNL     1      17.148   1.766  49.408  1.00  0.00    -0.287 OA
ATOM      8  H2  UNL     1      17.824   1.396  48.852  1.00  0.00     0.244 HD
ENDBRANCH   3   7
ENDBRANCH   1   2
BRANCH   1   9
HETATM    9  O3  UNL     1      18.016  -0.408  50.123  1.00  0.00    -0.284 OA
ATOM     10  H3  UNL     1      18.170   0.238  49.443  1.00  0.00     0.245 HD
ENDBRANCH   1   9
BRANCH   1  11
HETATM   11  C3  UNL     1      16.456  -2.196  50.781  1.00  0.00     0.147 C 
HETATM   12  C4  UNL     1      16.844  -3.200  49.763  1.00  0.00     0.030 C 
HETATM   13  C5  UNL     1      17.691  -4.324  50.247  1.00  0.00     0.002 C 
HETATM   14  C6  UNL     1      17.223  -5.000  51.476  1.00  0.00     0.000 C 
HETATM   15  C7  UNL     1      15.904  -4.541  52.002  1.00  0.00     0.002 C 
HETATM   16  C8  UNL     1      16.196  -3.374  52.954  1.00  0.00     0.034 C 
HETATM   17  C9  UNL     1      17.068  -2.409  52.138  1.00  0.00     0.143 C 
BRANCH  17  18
HETATM   18  O4  UNL     1      17.112  -1.232  52.885  1.00  0.00    -0.393 OA
ATOM     19  H4  UNL     1      16.390  -0.651  52.678  1.00  0.00     0.210 HD
ENDBRANCH  17  18
ENDBRANCH   1  11
TORSDOF 6
ENDMDL
