MODEL 1
REMARK VINA RESULT: -8.546872161      0.000      0.000
REMARK  12 active torsions:
REMARK  status: ('A' for Active; 'I' for Inactive)
REMARK    1  A    between atoms: C2_2  and  C3_3 
REMARK       I    between atoms: C3_3  and  N1_5 
REMARK    2  A    between atoms: N1_5  and  C5_7 
REMARK    3  A    between atoms: C5_7  and  C6_8 
REMARK    4  A    between atoms: C10_12  and  C11_13 
REMARK    5  A    between atoms: C15_19  and  C16_20 
REMARK    6  A    between atoms: C16_20  and  C17_21 
REMARK    7  A    between atoms: C17_21  and  N3_22 
REMARK       I    between atoms: N3_22  and  C18_24 
REMARK    8  A    between atoms: N4_27  and  C20_28 
REMARK    9  A    between atoms: C20_28  and  C21_29 
REMARK   10  A    between atoms: C21_29  and  C22_30 
REMARK   11  A    between atoms: C24_34  and  N6_35 
REMARK   12  A    between atoms: C25_40  and  N8_41 
ROOT
HETATM    1  C6  UNL     1       5.490 -23.691  33.078  1.00  0.00     0.036 A 
HETATM    2  C7  UNL     1       4.480 -23.570  32.170  1.00  0.00    -0.035 A 
HETATM    3  C8  UNL     1       3.017 -23.513  32.411  1.00  0.00     0.050 C 
HETATM    4  C9  UNL     1       5.047 -23.492  30.891  1.00  0.00     0.039 A 
HETATM    5  C10 UNL     1       6.423 -23.567  31.037  1.00  0.00     0.047 A 
HETATM    6  N4  UNL     1       6.681 -23.690  32.340  1.00  0.00    -0.347 N 
ENDROOT
BRANCH   6   7
HETATM    7  C20 UNL     1       7.937 -23.786  33.033  1.00  0.00     0.134 C 
BRANCH   7   8
HETATM    8  C21 UNL     1       8.491 -22.492  33.524  1.00  0.00     0.064 C 
BRANCH   8   9
HETATM    9  C22 UNL     1       9.896 -22.608  34.036  1.00  0.00     0.004 A 
HETATM   10  C23 UNL     1      10.996 -22.538  33.230  1.00  0.00     0.117 A 
HETATM   11  N5  UNL     1      12.247 -22.650  33.760  1.00  0.00    -0.202 N 
HETATM   12  C24 UNL     1      12.436 -22.831  35.075  1.00  0.00     0.677 A 
ATOM     13  H5  UNL     1      13.057 -22.594  33.142  1.00  0.00     0.183 HD
HETATM   14  N7  UNL     1      11.343 -22.898  35.871  1.00  0.00    -0.176 N 
HETATM   15  C25 UNL     1      10.075 -22.792  35.394  1.00  0.00     0.126 A 
ATOM     16  H7  UNL     1      11.477 -23.034  36.872  1.00  0.00     0.186 HD
BRANCH  12  17
HETATM   17  N6  UNL     1      13.633 -22.943  35.583  1.00  0.00    -0.234 N 
ATOM     18  H62 UNL     1      14.136 -23.829  35.532  1.00  0.00     0.174 HD
ATOM     19  H61 UNL     1      14.095 -22.156  36.038  1.00  0.00     0.174 HD
ENDBRANCH  12  17
BRANCH  15  20
HETATM   20  N8  UNL     1       8.987 -22.865  36.294  1.00  0.00    -0.375 N 
HETATM   21  C26 UNL     1       8.427 -21.666  36.853  1.00  0.00     0.150 C 
HETATM   22  C27 UNL     1       8.439 -24.144  36.652  1.00  0.00     0.150 C 
ENDBRANCH  15  20
ENDBRANCH   8   9
ENDBRANCH   7   8
ENDBRANCH   6   7
BRANCH   1  23
HETATM   23  C5  UNL     1       5.488 -23.817  34.550  1.00  0.00     0.183 C 
BRANCH  23  24
HETATM   24  N1  UNL     1       4.810 -24.928  35.097  1.00  0.00    -0.351 N 
HETATM   25  C3  UNL     1       5.264 -26.253  34.982  1.00  0.00     0.219 C 
HETATM   26  O1  UNL     1       6.430 -26.572  34.571  1.00  0.00    -0.273 OA
HETATM   27  C4  UNL     1       3.507 -24.689  35.720  1.00  0.00     0.153 C 
BRANCH  25  28
HETATM   28  C2  UNL     1       4.419 -27.448  35.340  1.00  0.00     0.098 C 
HETATM   29  C1  UNL     1       5.264 -28.414  36.180  1.00  0.00     0.014 C 
ENDBRANCH  25  28
ENDBRANCH  23  24
ENDBRANCH   1  23
BRANCH   5  30
HETATM   30  C11 UNL     1       7.421 -23.347  29.963  1.00  0.00     0.013 A 
HETATM   31  C12 UNL     1       8.709 -22.887  30.249  1.00  0.00     0.017 A 
HETATM   32  C13 UNL     1       9.579 -22.590  29.242  1.00  0.00     0.018 A 
HETATM   33  C14 UNL     1       9.183 -22.750  27.931  1.00  0.00     0.088 A 
HETATM   34  N2  UNL     1       7.962 -23.185  27.695  1.00  0.00    -0.368 N 
HETATM   35  C15 UNL     1       7.021 -23.505  28.660  1.00  0.00     0.023 A 
ATOM     36  H2  UNL     1       7.686 -23.296  26.719  1.00  0.00     0.165 HD
BRANCH  35  37
HETATM   37  C16 UNL     1       5.694 -23.887  28.201  1.00  0.00     0.077 C 
BRANCH  37  38
HETATM   38  C17 UNL     1       5.162 -23.016  27.086  1.00  0.00     0.128 C 
BRANCH  38  39
HETATM   39  N3  UNL     1       4.041 -22.248  27.563  1.00  0.00    -0.361 N 
HETATM   40  C18 UNL     1       2.689 -22.628  27.487  1.00  0.00     0.213 C 
HETATM   41  C19 UNL     1       1.581 -21.773  28.022  1.00  0.00     0.117 C 
HETATM   42  O2  UNL     1       2.364 -23.709  26.963  1.00  0.00    -0.274 OA
ATOM     43  H3  UNL     1       4.247 -21.346  27.995  1.00  0.00     0.162 HD
ENDBRANCH  38  39
ENDBRANCH  37  38
ENDBRANCH  35  37
ENDBRANCH   5  30
TORSDOF 12
ENDMDL
MODEL 2
REMARK VINA RESULT: -8.466174550      5.507      9.938
REMARK  12 active torsions:
REMARK  status: ('A' for Active; 'I' for Inactive)
REMARK    1  A    between atoms: C2_2  and  C3_3 
REMARK       I    between atoms: C3_3  and  N1_5 
REMARK    2  A    between atoms: N1_5  and  C5_7 
REMARK    3  A    between atoms: C5_7  and  C6_8 
REMARK    4  A    between atoms: C10_12  and  C11_13 
REMARK    5  A    between atoms: C15_19  and  C16_20 
REMARK    6  A    between atoms: C16_20  and  C17_21 
REMARK    7  A    between atoms: C17_21  and  N3_22 
REMARK       I    between atoms: N3_22  and  C18_24 
REMARK    8  A    between atoms: N4_27  and  C20_28 
REMARK    9  A    between atoms: C20_28  and  C21_29 
REMARK   10  A    between atoms: C21_29  and  C22_30 
REMARK   11  A    between atoms: C24_34  and  N6_35 
REMARK   12  A    between atoms: C25_40  and  N8_41 
ROOT
HETATM    1  C6  UNL     1      12.891 -20.058  39.221  1.00  0.00     0.036 A 
HETATM    2  C7  UNL     1      12.360 -21.194  39.755  1.00  0.00    -0.035 A 
HETATM    3  C8  UNL     1      12.200 -21.561  41.184  1.00  0.00     0.050 C 
HETATM    4  C9  UNL     1      11.949 -22.024  38.703  1.00  0.00     0.039 A 
HETATM    5  C10 UNL     1      12.240 -21.370  37.516  1.00  0.00     0.047 A 
HETATM    6  N4  UNL     1      12.804 -20.203  37.830  1.00  0.00    -0.347 N 
ENDROOT
BRANCH   6   7
HETATM    7  C20 UNL     1      13.275 -19.141  36.982  1.00  0.00     0.134 C 
BRANCH   7   8
HETATM    8  C21 UNL     1      14.737 -19.161  36.692  1.00  0.00     0.064 C 
BRANCH   8   9
HETATM    9  C22 UNL     1      15.059 -18.846  35.261  1.00  0.00     0.004 A 
HETATM   10  C23 UNL     1      14.230 -19.155  34.221  1.00  0.00     0.117 A 
HETATM   11  N5  UNL     1      14.583 -18.840  32.942  1.00  0.00    -0.202 N 
HETATM   12  C24 UNL     1      15.742 -18.223  32.668  1.00  0.00     0.677 A 
ATOM     13  H5  UNL     1      13.950 -19.077  32.177  1.00  0.00     0.183 HD
HETATM   14  N7  UNL     1      16.559 -17.917  33.702  1.00  0.00    -0.176 N 
HETATM   15  C25 UNL     1      16.256 -18.209  34.995  1.00  0.00     0.126 A 
ATOM     16  H7  UNL     1      17.442 -17.447  33.503  1.00  0.00     0.186 HD
BRANCH  12  17
HETATM   17  N6  UNL     1      16.082 -17.925  31.443  1.00  0.00    -0.234 N 
ATOM     18  H62 UNL     1      15.660 -18.415  30.655  1.00  0.00     0.174 HD
ATOM     19  H61 UNL     1      16.771 -17.200  31.243  1.00  0.00     0.174 HD
ENDBRANCH  12  17
BRANCH  15  20
HETATM   20  N8  UNL     1      17.162 -17.848  36.018  1.00  0.00    -0.375 N 
HETATM   21  C26 UNL     1      18.150 -18.785  36.474  1.00  0.00     0.150 C 
HETATM   22  C27 UNL     1      17.094 -16.539  36.605  1.00  0.00     0.150 C 
ENDBRANCH  15  20
ENDBRANCH   8   9
ENDBRANCH   7   8
ENDBRANCH   6   7
BRANCH   1  23
HETATM   23  C5  UNL     1      13.481 -18.854  39.841  1.00  0.00     0.183 C 
BRANCH  23  24
HETATM   24  N1  UNL     1      14.776 -18.984  40.388  1.00  0.00    -0.351 N 
HETATM   25  C3  UNL     1      15.046 -18.967  41.767  1.00  0.00     0.219 C 
HETATM   26  O1  UNL     1      14.147 -19.051  42.668  1.00  0.00    -0.273 OA
HETATM   27  C4  UNL     1      15.905 -19.028  39.457  1.00  0.00     0.153 C 
BRANCH  25  28
HETATM   28  C2  UNL     1      16.438 -18.849  42.333  1.00  0.00     0.098 C 
HETATM   29  C1  UNL     1      16.803 -17.364  42.438  1.00  0.00     0.014 C 
ENDBRANCH  25  28
ENDBRANCH  23  24
ENDBRANCH   1  23
BRANCH   5  30
HETATM   30  C11 UNL     1      11.815 -21.802  36.163  1.00  0.00     0.013 A 
HETATM   31  C12 UNL     1      12.693 -22.467  35.302  1.00  0.00     0.017 A 
HETATM   32  C13 UNL     1      12.318 -22.764  34.025  1.00  0.00     0.018 A 
HETATM   33  C14 UNL     1      11.062 -22.409  33.584  1.00  0.00     0.088 A 
HETATM   34  N2  UNL     1      10.258 -21.784  34.420  1.00  0.00    -0.368 N 
HETATM   35  C15 UNL     1      10.564 -21.445  35.728  1.00  0.00     0.023 A 
ATOM     36  H2  UNL     1       9.333 -21.527  34.076  1.00  0.00     0.165 HD
BRANCH  35  37
HETATM   37  C16 UNL     1       9.575 -20.677  36.470  1.00  0.00     0.077 C 
BRANCH  37  38
HETATM   38  C17 UNL     1       8.556 -21.533  37.188  1.00  0.00     0.128 C 
BRANCH  38  39
HETATM   39  N3  UNL     1       7.324 -21.548  36.441  1.00  0.00    -0.361 N 
HETATM   40  C18 UNL     1       6.943 -22.521  35.499  1.00  0.00     0.213 C 
HETATM   41  C19 UNL     1       5.632 -22.471  34.774  1.00  0.00     0.117 C 
HETATM   42  O2  UNL     1       7.697 -23.475  35.234  1.00  0.00    -0.274 OA
ATOM     43  H3  UNL     1       6.669 -20.785  36.611  1.00  0.00     0.162 HD
ENDBRANCH  38  39
ENDBRANCH  37  38
ENDBRANCH  35  37
ENDBRANCH   5  30
TORSDOF 12
ENDMDL
MODEL 3
REMARK VINA RESULT: -8.405935601      2.395      7.879
REMARK  12 active torsions:
REMARK  status: ('A' for Active; 'I' for Inactive)
REMARK    1  A    between atoms: C2_2  and  C3_3 
REMARK       I    between atoms: C3_3  and  N1_5 
REMARK    2  A    between atoms: N1_5  and  C5_7 
REMARK    3  A    between atoms: C5_7  and  C6_8 
REMARK    4  A    between atoms: C10_12  and  C11_13 
REMARK    5  A    between atoms: C15_19  and  C16_20 
REMARK    6  A    between atoms: C16_20  and  C17_21 
REMARK    7  A    between atoms: C17_21  and  N3_22 
REMARK       I    between atoms: N3_22  and  C18_24 
REMARK    8  A    between atoms: N4_27  and  C20_28 
REMARK    9  A    between atoms: C20_28  and  C21_29 
REMARK   10  A    between atoms: C21_29  and  C22_30 
REMARK   11  A    between atoms: C24_34  and  N6_35 
REMARK   12  A    between atoms: C25_40  and  N8_41 
ROOT
HETATM    1  C6  UNL     1       9.227 -22.514  34.981  1.00  0.00     0.036 A 
HETATM    2  C7  UNL     1       8.783 -21.889  36.108  1.00  0.00    -0.035 A 
HETATM    3  C8  UNL     1       9.547 -21.053  37.068  1.00  0.00     0.050 C 
HETATM    4  C9  UNL     1       7.413 -22.151  36.246  1.00  0.00     0.039 A 
HETATM    5  C10 UNL     1       7.031 -22.948  35.179  1.00  0.00     0.047 A 
HETATM    6  N4  UNL     1       8.114 -23.165  34.432  1.00  0.00    -0.347 N 
ENDROOT
BRANCH   6   7
HETATM    7  C20 UNL     1       8.266 -23.905  33.209  1.00  0.00     0.134 C 
BRANCH   7   8
HETATM    8  C21 UNL     1       8.450 -23.075  31.984  1.00  0.00     0.064 C 
BRANCH   8   9
HETATM    9  C22 UNL     1       7.399 -23.319  30.942  1.00  0.00     0.004 A 
HETATM   10  C23 UNL     1       6.222 -23.960  31.201  1.00  0.00     0.117 A 
HETATM   11  N5  UNL     1       5.307 -24.149  30.208  1.00  0.00    -0.202 N 
HETATM   12  C24 UNL     1       5.532 -23.717  28.959  1.00  0.00     0.677 A 
ATOM     13  H5  UNL     1       4.432 -24.630  30.420  1.00  0.00     0.183 HD
HETATM   14  N7  UNL     1       6.700 -23.081  28.706  1.00  0.00    -0.176 N 
HETATM   15  C25 UNL     1       7.644 -22.867  29.660  1.00  0.00     0.126 A 
ATOM     16  H7  UNL     1       6.878 -22.748  27.759  1.00  0.00     0.186 HD
BRANCH  12  17
HETATM   17  N6  UNL     1       4.659 -23.903  28.006  1.00  0.00    -0.234 N 
ATOM     18  H62 UNL     1       3.920 -23.219  27.840  1.00  0.00     0.174 HD
ATOM     19  H61 UNL     1       4.692 -24.726  27.405  1.00  0.00     0.174 HD
ENDBRANCH  12  17
BRANCH  15  20
HETATM   20  N8  UNL     1       8.834 -22.187  29.315  1.00  0.00    -0.375 N 
HETATM   21  C26 UNL     1       9.164 -20.938  29.944  1.00  0.00     0.150 C 
HETATM   22  C27 UNL     1       9.720 -22.746  28.331  1.00  0.00     0.150 C 
ENDBRANCH  15  20
ENDBRANCH   8   9
ENDBRANCH   7   8
ENDBRANCH   6   7
BRANCH   1  23
HETATM   23  C5  UNL     1      10.561 -22.592  34.352  1.00  0.00     0.183 C 
BRANCH  23  24
HETATM   24  N1  UNL     1      11.209 -21.370  34.069  1.00  0.00    -0.351 N 
HETATM   25  C3  UNL     1      12.440 -20.992  34.632  1.00  0.00     0.219 C 
HETATM   26  O1  UNL     1      13.202 -21.787  35.276  1.00  0.00    -0.273 OA
HETATM   27  C4  UNL     1      10.500 -20.404  33.229  1.00  0.00     0.153 C 
BRANCH  25  28
HETATM   28  C2  UNL     1      12.999 -19.596  34.530  1.00  0.00     0.098 C 
HETATM   29  C1  UNL     1      14.201 -19.615  33.579  1.00  0.00     0.014 C 
ENDBRANCH  25  28
ENDBRANCH  23  24
ENDBRANCH   1  23
BRANCH   5  30
HETATM   30  C11 UNL     1       5.638 -23.317  34.830  1.00  0.00     0.013 A 
HETATM   31  C12 UNL     1       4.714 -22.356  34.405  1.00  0.00     0.017 A 
HETATM   32  C13 UNL     1       3.412 -22.695  34.190  1.00  0.00     0.018 A 
HETATM   33  C14 UNL     1       3.004 -23.996  34.389  1.00  0.00     0.088 A 
HETATM   34  N2  UNL     1       3.898 -24.877  34.789  1.00  0.00    -0.368 N 
HETATM   35  C15 UNL     1       5.236 -24.613  35.032  1.00  0.00     0.023 A 
ATOM     36  H2  UNL     1       3.579 -25.836  34.933  1.00  0.00     0.165 HD
BRANCH  35  37
HETATM   37  C16 UNL     1       6.050 -25.701  35.553  1.00  0.00     0.077 C 
BRANCH  37  38
HETATM   38  C17 UNL     1       5.834 -27.017  34.841  1.00  0.00     0.128 C 
BRANCH  38  39
HETATM   39  N3  UNL     1       5.325 -27.993  35.770  1.00  0.00    -0.361 N 
HETATM   40  C18 UNL     1       3.974 -28.352  35.930  1.00  0.00     0.213 C 
HETATM   41  C19 UNL     1       3.528 -29.391  36.914  1.00  0.00     0.117 C 
HETATM   42  O2  UNL     1       3.089 -27.808  35.245  1.00  0.00    -0.274 OA
ATOM     43  H3  UNL     1       6.005 -28.466  36.366  1.00  0.00     0.162 HD
ENDBRANCH  38  39
ENDBRANCH  37  38
ENDBRANCH  35  37
ENDBRANCH   5  30
TORSDOF 12
ENDMDL
MODEL 4
REMARK VINA RESULT: -8.270355366      2.535      7.545
REMARK  12 active torsions:
REMARK  status: ('A' for Active; 'I' for Inactive)
REMARK    1  A    between atoms: C2_2  and  C3_3 
REMARK       I    between atoms: C3_3  and  N1_5 
REMARK    2  A    between atoms: N1_5  and  C5_7 
REMARK    3  A    between atoms: C5_7  and  C6_8 
REMARK    4  A    between atoms: C10_12  and  C11_13 
REMARK    5  A    between atoms: C15_19  and  C16_20 
REMARK    6  A    between atoms: C16_20  and  C17_21 
REMARK    7  A    between atoms: C17_21  and  N3_22 
REMARK       I    between atoms: N3_22  and  C18_24 
REMARK    8  A    between atoms: N4_27  and  C20_28 
REMARK    9  A    between atoms: C20_28  and  C21_29 
REMARK   10  A    between atoms: C21_29  and  C22_30 
REMARK   11  A    between atoms: C24_34  and  N6_35 
REMARK   12  A    between atoms: C25_40  and  N8_41 
ROOT
HETATM    1  C6  UNL     1       9.542 -22.035  34.841  1.00  0.00     0.036 A 
HETATM    2  C7  UNL     1       9.832 -22.504  36.087  1.00  0.00    -0.035 A 
HETATM    3  C8  UNL     1      10.797 -21.968  37.080  1.00  0.00     0.050 C 
HETATM    4  C9  UNL     1       9.038 -23.633  36.328  1.00  0.00     0.039 A 
HETATM    5  C10 UNL     1       8.257 -23.843  35.202  1.00  0.00     0.047 A 
HETATM    6  N4  UNL     1       8.563 -22.892  34.319  1.00  0.00    -0.347 N 
ENDROOT
BRANCH   6   7
HETATM    7  C20 UNL     1       8.034 -22.638  33.006  1.00  0.00     0.134 C 
BRANCH   7   8
HETATM    8  C21 UNL     1       8.562 -23.522  31.928  1.00  0.00     0.064 C 
BRANCH   8   9
HETATM    9  C22 UNL     1       7.701 -23.531  30.699  1.00  0.00     0.004 A 
HETATM   10  C23 UNL     1       6.488 -24.154  30.638  1.00  0.00     0.117 A 
HETATM   11  N5  UNL     1       5.755 -24.123  29.489  1.00  0.00    -0.202 N 
HETATM   12  C24 UNL     1       6.197 -23.488  28.394  1.00  0.00     0.677 A 
ATOM     13  H5  UNL     1       4.850 -24.593  29.462  1.00  0.00     0.183 HD
HETATM   14  N7  UNL     1       7.400 -22.871  28.460  1.00  0.00    -0.176 N 
HETATM   15  C25 UNL     1       8.170 -22.871  29.580  1.00  0.00     0.126 A 
ATOM     16  H7  UNL     1       7.743 -22.384  27.632  1.00  0.00     0.186 HD
BRANCH  12  17
HETATM   17  N6  UNL     1       5.498 -23.463  27.292  1.00  0.00    -0.234 N 
ATOM     18  H62 UNL     1       5.188 -24.331  26.855  1.00  0.00     0.174 HD
ATOM     19  H61 UNL     1       5.243 -22.583  26.843  1.00  0.00     0.174 HD
ENDBRANCH  12  17
BRANCH  15  20
HETATM   20  N8  UNL     1       9.411 -22.195  29.567  1.00  0.00    -0.375 N 
HETATM   21  C26 UNL     1      10.533 -22.753  28.865  1.00  0.00     0.150 C 
HETATM   22  C27 UNL     1       9.552 -20.944  30.260  1.00  0.00     0.150 C 
ENDBRANCH  15  20
ENDBRANCH   8   9
ENDBRANCH   7   8
ENDBRANCH   6   7
BRANCH   1  23
HETATM   23  C5  UNL     1      10.067 -20.892  34.065  1.00  0.00     0.183 C 
BRANCH  23  24
HETATM   24  N1  UNL     1      11.447 -20.899  33.769  1.00  0.00    -0.351 N 
HETATM   25  C3  UNL     1      12.321 -19.849  34.100  1.00  0.00     0.219 C 
HETATM   26  O1  UNL     1      12.015 -18.889  34.883  1.00  0.00    -0.273 OA
HETATM   27  C4  UNL     1      11.966 -22.015  32.978  1.00  0.00     0.153 C 
BRANCH  25  28
HETATM   28  C2  UNL     1      13.725 -19.745  33.563  1.00  0.00     0.098 C 
HETATM   29  C1  UNL     1      14.377 -18.479  34.132  1.00  0.00     0.014 C 
ENDBRANCH  25  28
ENDBRANCH  23  24
ENDBRANCH   1  23
BRANCH   5  30
HETATM   30  C11 UNL     1       7.147 -24.819  35.089  1.00  0.00     0.013 A 
HETATM   31  C12 UNL     1       7.364 -26.118  34.621  1.00  0.00     0.017 A 
HETATM   32  C13 UNL     1       6.316 -26.968  34.425  1.00  0.00     0.018 A 
HETATM   33  C14 UNL     1       5.034 -26.542  34.695  1.00  0.00     0.088 A 
HETATM   34  N2  UNL     1       4.863 -25.312  35.136  1.00  0.00    -0.368 N 
HETATM   35  C15 UNL     1       5.871 -24.389  35.358  1.00  0.00     0.023 A 
ATOM     36  H2  UNL     1       3.906 -25.013  35.329  1.00  0.00     0.165 HD
BRANCH  35  37
HETATM   37  C16 UNL     1       5.476 -23.049  35.764  1.00  0.00     0.077 C 
BRANCH  37  38
HETATM   38  C17 UNL     1       4.999 -22.184  34.620  1.00  0.00     0.128 C 
BRANCH  38  39
HETATM   39  N3  UNL     1       3.573 -22.322  34.470  1.00  0.00    -0.361 N 
HETATM   40  C18 UNL     1       2.918 -23.118  33.513  1.00  0.00     0.213 C 
HETATM   41  C19 UNL     1       1.424 -23.217  33.434  1.00  0.00     0.117 C 
HETATM   42  O2  UNL     1       3.571 -23.780  32.686  1.00  0.00    -0.274 OA
ATOM     43  H3  UNL     1       2.985 -21.794  35.116  1.00  0.00     0.162 HD
ENDBRANCH  38  39
ENDBRANCH  37  38
ENDBRANCH  35  37
ENDBRANCH   5  30
TORSDOF 12
ENDMDL
MODEL 5
REMARK VINA RESULT: -8.236429963      6.386     10.761
REMARK  12 active torsions:
REMARK  status: ('A' for Active; 'I' for Inactive)
REMARK    1  A    between atoms: C2_2  and  C3_3 
REMARK       I    between atoms: C3_3  and  N1_5 
REMARK    2  A    between atoms: N1_5  and  C5_7 
REMARK    3  A    between atoms: C5_7  and  C6_8 
REMARK    4  A    between atoms: C10_12  and  C11_13 
REMARK    5  A    between atoms: C15_19  and  C16_20 
REMARK    6  A    between atoms: C16_20  and  C17_21 
REMARK    7  A    between atoms: C17_21  and  N3_22 
REMARK       I    between atoms: N3_22  and  C18_24 
REMARK    8  A    between atoms: N4_27  and  C20_28 
REMARK    9  A    between atoms: C20_28  and  C21_29 
REMARK   10  A    between atoms: C21_29  and  C22_30 
REMARK   11  A    between atoms: C24_34  and  N6_35 
REMARK   12  A    between atoms: C25_40  and  N8_41 
ROOT
HETATM    1  C6  UNL     1      15.292 -18.101  34.916  1.00  0.00     0.036 A 
HETATM    2  C7  UNL     1      15.302 -18.424  33.592  1.00  0.00    -0.035 A 
HETATM    3  C8  UNL     1      16.127 -17.846  32.501  1.00  0.00     0.050 C 
HETATM    4  C9  UNL     1      14.374 -19.453  33.383  1.00  0.00     0.039 A 
HETATM    5  C10 UNL     1      13.797 -19.750  34.607  1.00  0.00     0.047 A 
HETATM    6  N4  UNL     1      14.343 -18.940  35.515  1.00  0.00    -0.347 N 
ENDROOT
BRANCH   6   7
HETATM    7  C20 UNL     1      14.117 -18.847  36.932  1.00  0.00     0.134 C 
BRANCH   7   8
HETATM    8  C21 UNL     1      14.814 -19.877  37.754  1.00  0.00     0.064 C 
BRANCH   8   9
HETATM    9  C22 UNL     1      15.579 -19.295  38.906  1.00  0.00     0.004 A 
HETATM   10  C23 UNL     1      16.914 -19.013  38.852  1.00  0.00     0.117 A 
HETATM   11  N5  UNL     1      17.550 -18.483  39.936  1.00  0.00    -0.202 N 
HETATM   12  C24 UNL     1      16.893 -18.226  41.076  1.00  0.00     0.677 A 
ATOM     13  H5  UNL     1      18.548 -18.278  39.877  1.00  0.00     0.183 HD
HETATM   14  N7  UNL     1      15.569 -18.506  41.124  1.00  0.00    -0.176 N 
HETATM   15  C25 UNL     1      14.888 -19.034  40.073  1.00  0.00     0.126 A 
ATOM     16  H7  UNL     1      15.061 -18.312  41.987  1.00  0.00     0.186 HD
BRANCH  12  17
HETATM   17  N6  UNL     1      17.502 -17.723  42.115  1.00  0.00    -0.234 N 
ATOM     18  H62 UNL     1      18.304 -17.104  41.996  1.00  0.00     0.174 HD
ATOM     19  H61 UNL     1      17.195 -17.932  43.065  1.00  0.00     0.174 HD
ENDBRANCH  12  17
BRANCH  15  20
HETATM   20  N8  UNL     1      13.504 -19.290  40.203  1.00  0.00    -0.375 N 
HETATM   21  C26 UNL     1      13.042 -20.586  40.616  1.00  0.00     0.150 C 
HETATM   22  C27 UNL     1      12.554 -18.249  39.921  1.00  0.00     0.150 C 
ENDBRANCH  15  20
ENDBRANCH   8   9
ENDBRANCH   7   8
ENDBRANCH   6   7
BRANCH   1  23
HETATM   23  C5  UNL     1      16.047 -17.100  35.697  1.00  0.00     0.183 C 
BRANCH  23  24
HETATM   24  N1  UNL     1      17.448 -17.258  35.757  1.00  0.00    -0.351 N 
HETATM   25  C3  UNL     1      18.351 -16.185  35.857  1.00  0.00     0.219 C 
HETATM   26  O1  UNL     1      18.003 -14.986  36.122  1.00  0.00    -0.273 OA
HETATM   27  C4  UNL     1      17.987 -18.609  35.594  1.00  0.00     0.153 C 
BRANCH  25  28
HETATM   28  C2  UNL     1      19.838 -16.338  35.665  1.00  0.00     0.098 C 
HETATM   29  C1  UNL     1      20.396 -15.031  35.089  1.00  0.00     0.014 C 
ENDBRANCH  25  28
ENDBRANCH  23  24
ENDBRANCH   1  23
BRANCH   5  30
HETATM   30  C11 UNL     1      12.893 -20.893  34.883  1.00  0.00     0.013 A 
HETATM   31  C12 UNL     1      13.377 -22.093  35.413  1.00  0.00     0.017 A 
HETATM   32  C13 UNL     1      12.552 -23.167  35.563  1.00  0.00     0.018 A 
HETATM   33  C14 UNL     1      11.228 -23.066  35.191  1.00  0.00     0.088 A 
HETATM   34  N2  UNL     1      10.803 -21.922  34.694  1.00  0.00    -0.368 N 
HETATM   35  C15 UNL     1      11.577 -20.788  34.509  1.00  0.00     0.023 A 
ATOM     36  H2  UNL     1       9.821 -21.866  34.423  1.00  0.00     0.165 HD
BRANCH  35  37
HETATM   37  C16 UNL     1      10.948 -19.645  33.865  1.00  0.00     0.077 C 
BRANCH  37  38
HETATM   38  C17 UNL     1       9.754 -20.009  33.012  1.00  0.00     0.128 C 
BRANCH  38  39
HETATM   39  N3  UNL     1      10.190 -20.314  31.673  1.00  0.00    -0.361 N 
HETATM   40  C18 UNL     1      10.281 -21.599  31.108  1.00  0.00     0.213 C 
HETATM   41  C19 UNL     1      10.732 -21.828  29.697  1.00  0.00     0.117 C 
HETATM   42  O2  UNL     1       9.983 -22.606  31.775  1.00  0.00    -0.274 OA
ATOM     43  H3  UNL     1      10.456 -19.526  31.081  1.00  0.00     0.162 HD
ENDBRANCH  38  39
ENDBRANCH  37  38
ENDBRANCH  35  37
ENDBRANCH   5  30
TORSDOF 12
ENDMDL
