MODEL 1
REMARK VINA RESULT: -8.389902507      0.000      0.000
REMARK  12 active torsions:
REMARK  status: ('A' for Active; 'I' for Inactive)
REMARK    1  A    between atoms: C2_2  and  C3_3 
REMARK    2  A    between atoms: C3_3  and  N1_6 
REMARK       I    between atoms: N1_6  and  C6_8 
REMARK    3  A    between atoms: C6_8  and  C7_10 
REMARK    4  A    between atoms: C7_10  and  C8_11 
REMARK    5  A    between atoms: C8_11  and  C9_12 
REMARK    6  A    between atoms: C9_12  and  C10_13 
REMARK    7  A    between atoms: C10_13  and  C11_14 
REMARK    8  A    between atoms: C11_14  and  C12_15 
REMARK       I    between atoms: C12_15  and  N2_17 
REMARK    9  A    between atoms: N2_17  and  C13_19 
REMARK   10  A    between atoms: C14_20  and  O3_21 
REMARK   11  A    between atoms: C19_29  and  C20_30 
REMARK   12  A    between atoms: C20_30  and  C21_31 
ROOT
HETATM    1  C13 UNL     1      10.419 -21.628  34.241  1.00  0.00     0.151 C 
HETATM    2  C14 UNL     1      10.354 -22.810  35.229  1.00  0.00     0.283 C 
HETATM    3  O4  UNL     1      10.728 -22.298  36.473  1.00  0.00    -0.351 OA
HETATM    4  C16 UNL     1      10.787 -20.938  36.384  1.00  0.00     0.158 C 
HETATM    5  C17 UNL     1      11.429 -20.788  34.994  1.00  0.00     0.082 C 
HETATM    6  C18 UNL     1      11.459 -19.354  34.681  1.00  0.00     0.066 C 
HETATM    7  N3  UNL     1      12.648 -18.990  34.038  1.00  0.00    -0.389 N 
ATOM      8  H3  UNL     1      12.635 -18.708  33.057  1.00  0.00     0.159 HD
HETATM    9  C19 UNL     1      13.876 -19.014  34.758  1.00  0.00     0.173 C 
HETATM   10  C24 UNL     1      13.837 -19.444  36.130  1.00  0.00     0.242 C 
HETATM   11  O5  UNL     1      14.918 -19.080  36.725  1.00  0.00    -0.271 OA
HETATM   12  N4  UNL     1      13.028 -20.135  37.086  1.00  0.00    -0.348 N 
HETATM   13  C25 UNL     1      13.816 -20.954  38.022  1.00  0.00     0.153 C 
HETATM   14  C26 UNL     1      11.633 -20.209  37.343  1.00  0.00     0.112 C 
HETATM   15  C27 UNL     1      11.416 -20.905  38.704  1.00  0.00     0.035 C 
ENDROOT
BRANCH   1  16
HETATM   16  N2  UNL     1      10.853 -22.035  32.942  1.00  0.00    -0.351 N 
HETATM   17  C12 UNL     1      10.399 -21.335  31.798  1.00  0.00     0.218 C 
HETATM   18  O2  UNL     1       9.619 -20.369  31.946  1.00  0.00    -0.274 OA
ATOM     19  H2  UNL     1      11.488 -22.828  32.839  1.00  0.00     0.163 HD
BRANCH  17  20
HETATM   20  C11 UNL     1      10.829 -21.726  30.436  1.00  0.00     0.103 C 
BRANCH  20  21
HETATM   21  C10 UNL     1       9.650 -21.806  29.483  1.00  0.00     0.009 C 
BRANCH  21  22
HETATM   22  C9  UNL     1       9.096 -23.204  29.420  1.00  0.00     0.001 C 
BRANCH  22  23
HETATM   23  C8  UNL     1       7.822 -23.364  30.195  1.00  0.00     0.009 C 
BRANCH  23  24
HETATM   24  C7  UNL     1       8.047 -24.284  31.368  1.00  0.00     0.103 C 
BRANCH  24  25
HETATM   25  C6  UNL     1       6.849 -24.253  32.289  1.00  0.00     0.218 C 
HETATM   26  N1  UNL     1       6.790 -23.259  33.288  1.00  0.00    -0.353 N 
ATOM     27  H1  UNL     1       7.545 -22.580  33.382  1.00  0.00     0.163 HD
HETATM   28  O1  UNL     1       5.957 -25.118  32.122  1.00  0.00    -0.274 OA
BRANCH  26  29
HETATM   29  C3  UNL     1       5.653 -23.213  34.178  1.00  0.00     0.025 C 
HETATM   30  C4  UNL     1       5.924 -22.109  35.190  1.00  0.00     0.038 C 
HETATM   31  C5  UNL     1       4.352 -23.013  33.465  1.00  0.00     0.038 C 
BRANCH  29  32
HETATM   32  C2  UNL     1       5.563 -24.504  34.980  1.00  0.00     0.026 C 
HETATM   33  C1  UNL     1       4.144 -24.588  35.525  1.00  0.00     0.007 C 
ENDBRANCH  29  32
ENDBRANCH  26  29
ENDBRANCH  24  25
ENDBRANCH  23  24
ENDBRANCH  22  23
ENDBRANCH  21  22
ENDBRANCH  20  21
ENDBRANCH  17  20
ENDBRANCH   1  16
BRANCH   2  34
HETATM   34  O3  UNL     1       9.117 -23.401  35.226  1.00  0.00    -0.364 OA
HETATM   35  C15 UNL     1       8.995 -24.170  36.383  1.00  0.00     0.204 C 
ENDBRANCH   2  34
BRANCH   9  36
HETATM   36  C20 UNL     1      14.807 -19.873  33.943  1.00  0.00     0.038 C 
BRANCH  36  37
HETATM   37  C21 UNL     1      16.007 -19.222  33.371  1.00  0.00    -0.020 C 
HETATM   38  C22 UNL     1      17.156 -19.021  34.305  1.00  0.00     0.009 C 
HETATM   39  C23 UNL     1      15.543 -17.836  32.876  1.00  0.00     0.009 C 
ENDBRANCH  36  37
ENDBRANCH   9  36
TORSDOF 12
ENDMDL
MODEL 2
REMARK VINA RESULT: -8.262246029      1.820      4.968
REMARK  12 active torsions:
REMARK  status: ('A' for Active; 'I' for Inactive)
REMARK    1  A    between atoms: C2_2  and  C3_3 
REMARK    2  A    between atoms: C3_3  and  N1_6 
REMARK       I    between atoms: N1_6  and  C6_8 
REMARK    3  A    between atoms: C6_8  and  C7_10 
REMARK    4  A    between atoms: C7_10  and  C8_11 
REMARK    5  A    between atoms: C8_11  and  C9_12 
REMARK    6  A    between atoms: C9_12  and  C10_13 
REMARK    7  A    between atoms: C10_13  and  C11_14 
REMARK    8  A    between atoms: C11_14  and  C12_15 
REMARK       I    between atoms: C12_15  and  N2_17 
REMARK    9  A    between atoms: N2_17  and  C13_19 
REMARK   10  A    between atoms: C14_20  and  O3_21 
REMARK   11  A    between atoms: C19_29  and  C20_30 
REMARK   12  A    between atoms: C20_30  and  C21_31 
ROOT
HETATM    1  C13 UNL     1      11.267 -21.029  34.942  1.00  0.00     0.151 C 
HETATM    2  C14 UNL     1      11.397 -20.035  33.770  1.00  0.00     0.283 C 
HETATM    3  O4  UNL     1      12.762 -19.784  33.621  1.00  0.00    -0.351 OA
HETATM    4  C16 UNL     1      13.454 -20.664  34.401  1.00  0.00     0.158 C 
HETATM    5  C17 UNL     1      12.557 -20.675  35.651  1.00  0.00     0.082 C 
HETATM    6  C18 UNL     1      13.103 -21.683  36.569  1.00  0.00     0.066 C 
HETATM    7  N3  UNL     1      13.046 -21.255  37.901  1.00  0.00    -0.389 N 
ATOM      8  H3  UNL     1      12.409 -21.707  38.558  1.00  0.00     0.159 HD
HETATM    9  C19 UNL     1      13.880 -20.186  38.335  1.00  0.00     0.173 C 
HETATM   10  C24 UNL     1      14.739 -19.570  37.359  1.00  0.00     0.242 C 
HETATM   11  O5  UNL     1      15.654 -18.893  37.958  1.00  0.00    -0.271 OA
HETATM   12  N4  UNL     1      14.950 -19.433  35.951  1.00  0.00    -0.348 N 
HETATM   13  C25 UNL     1      15.424 -18.093  35.569  1.00  0.00     0.153 C 
HETATM   14  C26 UNL     1      14.812 -20.299  34.834  1.00  0.00     0.112 C 
HETATM   15  C27 UNL     1      15.476 -19.635  33.608  1.00  0.00     0.035 C 
ENDROOT
BRANCH   1  16
HETATM   16  N2  UNL     1      10.092 -20.795  35.719  1.00  0.00    -0.351 N 
HETATM   17  C12 UNL     1       9.356 -21.892  36.227  1.00  0.00     0.218 C 
HETATM   18  O2  UNL     1       9.748 -23.054  35.981  1.00  0.00    -0.274 OA
ATOM     19  H2  UNL     1       9.784 -19.841  35.908  1.00  0.00     0.163 HD
BRANCH  17  20
HETATM   20  C11 UNL     1       8.134 -21.690  37.039  1.00  0.00     0.103 C 
BRANCH  20  21
HETATM   21  C10 UNL     1       7.007 -22.599  36.583  1.00  0.00     0.009 C 
BRANCH  21  22
HETATM   22  C9  UNL     1       6.483 -22.180  35.235  1.00  0.00     0.001 C 
BRANCH  22  23
HETATM   23  C8  UNL     1       6.003 -23.336  34.409  1.00  0.00     0.009 C 
BRANCH  23  24
HETATM   24  C7  UNL     1       7.175 -24.008  33.739  1.00  0.00     0.103 C 
BRANCH  24  25
HETATM   25  C6  UNL     1       7.090 -23.825  32.240  1.00  0.00     0.218 C 
HETATM   26  N1  UNL     1       7.930 -22.873  31.627  1.00  0.00    -0.353 N 
ATOM     27  H1  UNL     1       8.578 -22.321  32.190  1.00  0.00     0.163 HD
HETATM   28  O1  UNL     1       6.270 -24.533  31.608  1.00  0.00    -0.274 OA
BRANCH  26  29
HETATM   29  C3  UNL     1       7.864 -22.683  30.197  1.00  0.00     0.025 C 
HETATM   30  C4  UNL     1       8.588 -23.859  29.557  1.00  0.00     0.038 C 
HETATM   31  C5  UNL     1       6.465 -22.539  29.682  1.00  0.00     0.038 C 
BRANCH  29  32
HETATM   32  C2  UNL     1       8.649 -21.441  29.797  1.00  0.00     0.026 C 
HETATM   33  C1  UNL     1       9.798 -21.907  28.915  1.00  0.00     0.007 C 
ENDBRANCH  29  32
ENDBRANCH  26  29
ENDBRANCH  24  25
ENDBRANCH  23  24
ENDBRANCH  22  23
ENDBRANCH  21  22
ENDBRANCH  20  21
ENDBRANCH  17  20
ENDBRANCH   1  16
BRANCH   2  34
HETATM   34  O3  UNL     1      10.798 -20.517  32.634  1.00  0.00    -0.364 OA
HETATM   35  C15 UNL     1      11.205 -21.838  32.450  1.00  0.00     0.204 C 
ENDBRANCH   2  34
BRANCH   9  36
HETATM   36  C20 UNL     1      12.953 -19.177  38.961  1.00  0.00     0.038 C 
BRANCH  36  37
HETATM   37  C21 UNL     1      13.054 -18.977  40.424  1.00  0.00    -0.020 C 
HETATM   38  C22 UNL     1      14.276 -18.266  40.909  1.00  0.00     0.009 C 
HETATM   39  C23 UNL     1      13.042 -20.388  41.048  1.00  0.00     0.009 C 
ENDBRANCH  36  37
ENDBRANCH   9  36
TORSDOF 12
ENDMDL
MODEL 3
REMARK VINA RESULT: -8.206525215      2.764      8.934
REMARK  12 active torsions:
REMARK  status: ('A' for Active; 'I' for Inactive)
REMARK    1  A    between atoms: C2_2  and  C3_3 
REMARK    2  A    between atoms: C3_3  and  N1_6 
REMARK       I    between atoms: N1_6  and  C6_8 
REMARK    3  A    between atoms: C6_8  and  C7_10 
REMARK    4  A    between atoms: C7_10  and  C8_11 
REMARK    5  A    between atoms: C8_11  and  C9_12 
REMARK    6  A    between atoms: C9_12  and  C10_13 
REMARK    7  A    between atoms: C10_13  and  C11_14 
REMARK    8  A    between atoms: C11_14  and  C12_15 
REMARK       I    between atoms: C12_15  and  N2_17 
REMARK    9  A    between atoms: N2_17  and  C13_19 
REMARK   10  A    between atoms: C14_20  and  O3_21 
REMARK   11  A    between atoms: C19_29  and  C20_30 
REMARK   12  A    between atoms: C20_30  and  C21_31 
ROOT
HETATM    1  C13 UNL     1      10.477 -21.393  37.030  1.00  0.00     0.151 C 
HETATM    2  C14 UNL     1       9.008 -21.046  36.715  1.00  0.00     0.283 C 
HETATM    3  O4  UNL     1       8.716 -21.658  35.494  1.00  0.00    -0.351 OA
HETATM    4  C16 UNL     1       9.745 -22.493  35.169  1.00  0.00     0.158 C 
HETATM    5  C17 UNL     1      10.940 -21.628  35.608  1.00  0.00     0.082 C 
HETATM    6  C18 UNL     1      12.151 -22.439  35.433  1.00  0.00     0.066 C 
HETATM    7  N3  UNL     1      13.216 -21.678  34.935  1.00  0.00    -0.389 N 
ATOM      8  H3  UNL     1      14.023 -21.477  35.527  1.00  0.00     0.159 HD
HETATM    9  C19 UNL     1      13.168 -21.187  33.601  1.00  0.00     0.173 C 
HETATM   10  C24 UNL     1      11.995 -21.481  32.821  1.00  0.00     0.242 C 
HETATM   11  O5  UNL     1      12.248 -21.289  31.575  1.00  0.00    -0.271 OA
HETATM   12  N4  UNL     1      10.636 -21.913  32.927  1.00  0.00    -0.348 N 
HETATM   13  C25 UNL     1       9.746 -21.254  31.956  1.00  0.00     0.153 C 
HETATM   14  C26 UNL     1       9.946 -22.839  33.753  1.00  0.00     0.112 C 
HETATM   15  C27 UNL     1       8.532 -23.062  33.174  1.00  0.00     0.035 C 
ENDROOT
BRANCH   1  16
HETATM   16  N2  UNL     1      11.153 -20.324  37.693  1.00  0.00    -0.351 N 
HETATM   17  C12 UNL     1      12.086 -20.611  38.718  1.00  0.00     0.218 C 
HETATM   18  O2  UNL     1      12.300 -21.803  39.029  1.00  0.00    -0.274 OA
ATOM     19  H2  UNL     1      10.964 -19.356  37.430  1.00  0.00     0.163 HD
BRANCH  17  20
HETATM   20  C11 UNL     1      12.808 -19.530  39.427  1.00  0.00     0.103 C 
BRANCH  20  21
HETATM   21  C10 UNL     1      13.523 -20.055  40.660  1.00  0.00     0.009 C 
BRANCH  21  22
HETATM   22  C9  UNL     1      14.108 -18.928  41.469  1.00  0.00     0.001 C 
BRANCH  22  23
HETATM   23  C8  UNL     1      15.509 -19.205  41.928  1.00  0.00     0.009 C 
BRANCH  23  24
HETATM   24  C7  UNL     1      16.434 -18.123  41.432  1.00  0.00     0.103 C 
BRANCH  24  25
HETATM   25  C6  UNL     1      16.898 -18.440  40.028  1.00  0.00     0.218 C 
HETATM   26  N1  UNL     1      17.110 -17.375  39.129  1.00  0.00    -0.353 N 
ATOM     27  H1  UNL     1      16.951 -16.411  39.427  1.00  0.00     0.163 HD
HETATM   28  O1  UNL     1      17.072 -19.645  39.725  1.00  0.00    -0.274 OA
BRANCH  26  29
HETATM   29  C3  UNL     1      17.553 -17.657  37.784  1.00  0.00     0.025 C 
HETATM   30  C4  UNL     1      18.916 -18.324  37.894  1.00  0.00     0.038 C 
HETATM   31  C5  UNL     1      16.583 -18.489  37.003  1.00  0.00     0.038 C 
BRANCH  29  32
HETATM   32  C2  UNL     1      17.783 -16.357  37.024  1.00  0.00     0.026 C 
HETATM   33  C1  UNL     1      17.911 -16.721  35.553  1.00  0.00     0.007 C 
ENDBRANCH  29  32
ENDBRANCH  26  29
ENDBRANCH  24  25
ENDBRANCH  23  24
ENDBRANCH  22  23
ENDBRANCH  21  22
ENDBRANCH  20  21
ENDBRANCH  17  20
ENDBRANCH   1  16
BRANCH   2  34
HETATM   34  O3  UNL     1       8.172 -21.423  37.734  1.00  0.00    -0.364 OA
HETATM   35  C15 UNL     1       7.236 -22.323  37.224  1.00  0.00     0.204 C 
ENDBRANCH   2  34
BRANCH   9  36
HETATM   36  C20 UNL     1      13.395 -19.702  33.706  1.00  0.00     0.038 C 
BRANCH  36  37
HETATM   37  C21 UNL     1      14.714 -19.183  33.279  1.00  0.00    -0.020 C 
HETATM   38  C22 UNL     1      15.908 -19.933  33.773  1.00  0.00     0.009 C 
HETATM   39  C23 UNL     1      14.798 -17.740  33.820  1.00  0.00     0.009 C 
ENDBRANCH  36  37
ENDBRANCH   9  36
TORSDOF 12
ENDMDL
MODEL 4
REMARK VINA RESULT: -8.104455449      2.317      8.338
REMARK  12 active torsions:
REMARK  status: ('A' for Active; 'I' for Inactive)
REMARK    1  A    between atoms: C2_2  and  C3_3 
REMARK    2  A    between atoms: C3_3  and  N1_6 
REMARK       I    between atoms: N1_6  and  C6_8 
REMARK    3  A    between atoms: C6_8  and  C7_10 
REMARK    4  A    between atoms: C7_10  and  C8_11 
REMARK    5  A    between atoms: C8_11  and  C9_12 
REMARK    6  A    between atoms: C9_12  and  C10_13 
REMARK    7  A    between atoms: C10_13  and  C11_14 
REMARK    8  A    between atoms: C11_14  and  C12_15 
REMARK       I    between atoms: C12_15  and  N2_17 
REMARK    9  A    between atoms: N2_17  and  C13_19 
REMARK   10  A    between atoms: C14_20  and  O3_21 
REMARK   11  A    between atoms: C19_29  and  C20_30 
REMARK   12  A    between atoms: C20_30  and  C21_31 
ROOT
HETATM    1  C13 UNL     1      11.835 -20.921  35.984  1.00  0.00     0.151 C 
HETATM    2  C14 UNL     1      10.808 -20.493  37.051  1.00  0.00     0.283 C 
HETATM    3  O4  UNL     1       9.813 -21.473  37.050  1.00  0.00    -0.351 OA
HETATM    4  C16 UNL     1      10.236 -22.521  36.286  1.00  0.00     0.158 C 
HETATM    5  C17 UNL     1      10.905 -21.757  35.130  1.00  0.00     0.082 C 
HETATM    6  C18 UNL     1      11.532 -22.755  34.255  1.00  0.00     0.066 C 
HETATM    7  N3  UNL     1      11.378 -22.426  32.902  1.00  0.00    -0.389 N 
ATOM      8  H3  UNL     1      12.188 -22.144  32.348  1.00  0.00     0.159 HD
HETATM    9  C19 UNL     1      10.089 -22.487  32.303  1.00  0.00     0.173 C 
HETATM   10  C24 UNL     1       8.981 -22.866  33.139  1.00  0.00     0.242 C 
HETATM   11  O5  UNL     1       7.985 -23.213  32.402  1.00  0.00    -0.271 OA
HETATM   12  N4  UNL     1       8.577 -23.001  34.505  1.00  0.00    -0.348 N 
HETATM   13  C25 UNL     1       7.168 -22.634  34.726  1.00  0.00     0.153 C 
HETATM   14  C26 UNL     1       9.224 -23.414  35.699  1.00  0.00     0.112 C 
HETATM   15  C27 UNL     1       8.158 -23.614  36.798  1.00  0.00     0.035 C 
ENDROOT
BRANCH   1  16
HETATM   16  N2  UNL     1      12.403 -19.802  35.303  1.00  0.00    -0.351 N 
HETATM   17  C12 UNL     1      13.791 -19.781  35.021  1.00  0.00     0.218 C 
HETATM   18  O2  UNL     1      14.499 -20.747  35.380  1.00  0.00    -0.274 OA
ATOM     19  H2  UNL     1      11.812 -19.020  35.020  1.00  0.00     0.163 HD
BRANCH  17  20
HETATM   20  C11 UNL     1      14.415 -18.640  34.314  1.00  0.00     0.103 C 
BRANCH  20  21
HETATM   21  C10 UNL     1      15.920 -18.810  34.205  1.00  0.00     0.009 C 
BRANCH  21  22
HETATM   22  C9  UNL     1      16.645 -17.777  35.027  1.00  0.00     0.001 C 
BRANCH  22  23
HETATM   23  C8  UNL     1      16.232 -17.782  36.468  1.00  0.00     0.009 C 
BRANCH  23  24
HETATM   24  C7  UNL     1      17.049 -18.794  37.231  1.00  0.00     0.103 C 
BRANCH  24  25
HETATM   25  C6  UNL     1      16.611 -18.829  38.678  1.00  0.00     0.218 C 
HETATM   26  N1  UNL     1      15.266 -18.535  38.985  1.00  0.00    -0.353 N 
ATOM     27  H1  UNL     1      14.608 -18.303  38.240  1.00  0.00     0.163 HD
HETATM   28  O1  UNL     1      17.471 -19.118  39.545  1.00  0.00    -0.274 OA
BRANCH  26  29
HETATM   29  C3  UNL     1      14.828 -18.564  40.361  1.00  0.00     0.025 C 
HETATM   30  C4  UNL     1      15.655 -17.532  41.114  1.00  0.00     0.038 C 
HETATM   31  C5  UNL     1      13.358 -18.327  40.519  1.00  0.00     0.038 C 
BRANCH  29  32
HETATM   32  C2  UNL     1      15.163 -19.910  40.989  1.00  0.00     0.026 C 
HETATM   33  C1  UNL     1      14.688 -19.855  42.433  1.00  0.00     0.007 C 
ENDBRANCH  29  32
ENDBRANCH  26  29
ENDBRANCH  24  25
ENDBRANCH  23  24
ENDBRANCH  22  23
ENDBRANCH  21  22
ENDBRANCH  20  21
ENDBRANCH  17  20
ENDBRANCH   1  16
BRANCH   2  34
HETATM   34  O3  UNL     1      11.399 -20.309  38.274  1.00  0.00    -0.364 OA
HETATM   35  C15 UNL     1      12.363 -21.302  38.449  1.00  0.00     0.204 C 
ENDBRANCH   2  34
BRANCH   9  36
HETATM   36  C20 UNL     1       9.865 -21.132  31.683  1.00  0.00     0.038 C 
BRANCH  36  37
HETATM   37  C21 UNL     1       9.726 -21.073  30.210  1.00  0.00    -0.020 C 
HETATM   38  C22 UNL     1       8.515 -21.734  29.636  1.00  0.00     0.009 C 
HETATM   39  C23 UNL     1      10.974 -21.778  29.638  1.00  0.00     0.009 C 
ENDBRANCH  36  37
ENDBRANCH   9  36
TORSDOF 12
ENDMDL
MODEL 5
REMARK VINA RESULT: -8.090034176      1.828      4.475
REMARK  12 active torsions:
REMARK  status: ('A' for Active; 'I' for Inactive)
REMARK    1  A    between atoms: C2_2  and  C3_3 
REMARK    2  A    between atoms: C3_3  and  N1_6 
REMARK       I    between atoms: N1_6  and  C6_8 
REMARK    3  A    between atoms: C6_8  and  C7_10 
REMARK    4  A    between atoms: C7_10  and  C8_11 
REMARK    5  A    between atoms: C8_11  and  C9_12 
REMARK    6  A    between atoms: C9_12  and  C10_13 
REMARK    7  A    between atoms: C10_13  and  C11_14 
REMARK    8  A    between atoms: C11_14  and  C12_15 
REMARK       I    between atoms: C12_15  and  N2_17 
REMARK    9  A    between atoms: N2_17  and  C13_19 
REMARK   10  A    between atoms: C14_20  and  O3_21 
REMARK   11  A    between atoms: C19_29  and  C20_30 
REMARK   12  A    between atoms: C20_30  and  C21_31 
ROOT
HETATM    1  C13 UNL     1      13.441 -19.952  34.413  1.00  0.00     0.151 C 
HETATM    2  C14 UNL     1      14.020 -18.543  34.652  1.00  0.00     0.283 C 
HETATM    3  O4  UNL     1      14.630 -18.580  35.908  1.00  0.00    -0.351 OA
HETATM    4  C16 UNL     1      14.674 -19.877  36.331  1.00  0.00     0.158 C 
HETATM    5  C17 UNL     1      13.290 -20.359  35.863  1.00  0.00     0.082 C 
HETATM    6  C18 UNL     1      13.215 -21.799  36.140  1.00  0.00     0.066 C 
HETATM    7  N3  UNL     1      11.949 -22.170  36.609  1.00  0.00    -0.389 N 
ATOM      8  H3  UNL     1      11.335 -22.743  36.030  1.00  0.00     0.159 HD
HETATM    9  C19 UNL     1      11.522 -21.745  37.899  1.00  0.00     0.173 C 
HETATM   10  C24 UNL     1      12.419 -20.918  38.661  1.00  0.00     0.242 C 
HETATM   11  O5  UNL     1      12.059 -20.917  39.896  1.00  0.00    -0.271 OA
HETATM   12  N4  UNL     1      13.578 -20.087  38.547  1.00  0.00    -0.348 N 
HETATM   13  C25 UNL     1      13.533 -18.912  39.433  1.00  0.00     0.153 C 
HETATM   14  C26 UNL     1      14.769 -20.139  37.776  1.00  0.00     0.112 C 
HETATM   15  C27 UNL     1      15.762 -19.092  38.326  1.00  0.00     0.035 C 
ENDROOT
BRANCH   1  16
HETATM   16  N2  UNL     1      12.211 -19.912  33.688  1.00  0.00    -0.351 N 
HETATM   17  C12 UNL     1      11.864 -20.988  32.834  1.00  0.00     0.218 C 
HETATM   18  O2  UNL     1      12.647 -21.956  32.727  1.00  0.00    -0.274 OA
ATOM     19  H2  UNL     1      11.584 -19.113  33.785  1.00  0.00     0.163 HD
BRANCH  17  20
HETATM   20  C11 UNL     1      10.597 -20.984  32.069  1.00  0.00     0.103 C 
BRANCH  20  21
HETATM   21  C10 UNL     1      10.763 -21.654  30.716  1.00  0.00     0.009 C 
BRANCH  21  22
HETATM   22  C9  UNL     1       9.522 -21.500  29.878  1.00  0.00     0.001 C 
BRANCH  22  23
HETATM   23  C8  UNL     1       9.024 -22.802  29.326  1.00  0.00     0.009 C 
BRANCH  23  24
HETATM   24  C7  UNL     1       7.575 -22.996  29.696  1.00  0.00     0.103 C 
BRANCH  24  25
HETATM   25  C6  UNL     1       7.471 -23.729  31.015  1.00  0.00     0.218 C 
HETATM   26  N1  UNL     1       6.479 -23.328  31.933  1.00  0.00    -0.353 N 
ATOM     27  H1  UNL     1       5.849 -22.558  31.707  1.00  0.00     0.163 HD
HETATM   28  O1  UNL     1       8.277 -24.664  31.232  1.00  0.00    -0.274 OA
BRANCH  26  29
HETATM   29  C3  UNL     1       6.362 -24.015  33.198  1.00  0.00     0.025 C 
HETATM   30  C4  UNL     1       5.308 -23.279  34.011  1.00  0.00     0.038 C 
HETATM   31  C5  UNL     1       6.042 -25.471  33.053  1.00  0.00     0.038 C 
BRANCH  29  32
HETATM   32  C2  UNL     1       7.661 -23.891  33.984  1.00  0.00     0.026 C 
HETATM   33  C1  UNL     1       7.467 -24.658  35.283  1.00  0.00     0.007 C 
ENDBRANCH  29  32
ENDBRANCH  26  29
ENDBRANCH  24  25
ENDBRANCH  23  24
ENDBRANCH  22  23
ENDBRANCH  21  22
ENDBRANCH  20  21
ENDBRANCH  17  20
ENDBRANCH   1  16
BRANCH   2  34
HETATM   34  O3  UNL     1      14.865 -18.167  33.640  1.00  0.00    -0.364 OA
HETATM   35  C15 UNL     1      16.014 -17.619  34.209  1.00  0.00     0.204 C 
ENDBRANCH   2  34
BRANCH   9  36
HETATM   36  C20 UNL     1      10.199 -21.059  37.682  1.00  0.00     0.038 C 
BRANCH  36  37
HETATM   37  C21 UNL     1       9.248 -21.695  36.743  1.00  0.00    -0.020 C 
HETATM   38  C22 UNL     1       9.200 -21.121  35.364  1.00  0.00     0.009 C 
HETATM   39  C23 UNL     1       7.851 -21.532  37.378  1.00  0.00     0.009 C 
ENDBRANCH  36  37
ENDBRANCH   9  36
TORSDOF 12
ENDMDL
