MODEL 1
REMARK VINA RESULT: -8.591228324      0.000      0.000
REMARK  13 active torsions:
REMARK  status: ('A' for Active; 'I' for Inactive)
REMARK    1  A    between atoms: C4_4  and  C5_5 
REMARK    2  A    between atoms: C6_6  and  O1_7 
REMARK    3  A    between atoms: N2_13  and  C8_14 
REMARK    4  A    between atoms: C8_14  and  C9_15 
REMARK    5  A    between atoms: C9_15  and  C10_16 
REMARK    6  A    between atoms: N3_22  and  C15_23 
REMARK    7  A    between atoms: C17_25  and  O4_26 
REMARK    8  A    between atoms: O4_26  and  C18_27 
REMARK    9  A    between atoms: C18_27  and  C19_28 
REMARK   10  A    between atoms: C19_28  and  C20_29 
REMARK   11  A    between atoms: C20_29  and  C21_30 
REMARK   12  A    between atoms: C21_30  and  C22_31 
REMARK   13  A    between atoms: C22_31  and  O6_33 
ROOT
HETATM    1  C1  UNL     1      11.288 -19.046  36.356  1.00  0.00     0.044 C 
HETATM    2  C2  UNL     1      11.816 -20.275  36.110  1.00  0.00     0.040 A 
HETATM    3  C3  UNL     1      11.221 -21.163  35.223  1.00  0.00    -0.007 A 
HETATM    4  C4  UNL     1      10.108 -20.963  34.516  1.00  0.00     0.035 C 
HETATM    5  C13 UNL     1      12.017 -22.287  35.225  1.00  0.00     0.031 A 
HETATM    6  C14 UNL     1      13.049 -22.052  36.094  1.00  0.00     0.098 A 
HETATM    7  N3  UNL     1      12.916 -20.807  36.636  1.00  0.00    -0.322 N 
ENDROOT
BRANCH   7   8
HETATM    8  C15 UNL     1      13.795 -20.233  37.606  1.00  0.00     0.047 A 
HETATM    9  C16 UNL     1      14.913 -19.525  37.200  1.00  0.00     0.067 A 
HETATM   10  C17 UNL     1      15.787 -18.944  38.074  1.00  0.00     0.076 A 
HETATM   11  C24 UNL     1      15.543 -19.070  39.417  1.00  0.00    -0.028 A 
HETATM   12  C25 UNL     1      16.488 -18.437  40.397  1.00  0.00     0.051 C 
HETATM   13  C26 UNL     1      14.430 -19.775  39.888  1.00  0.00     0.018 A 
HETATM   14  C27 UNL     1      13.560 -20.354  38.945  1.00  0.00    -0.034 A 
HETATM   15  C28 UNL     1      12.382 -21.087  39.459  1.00  0.00     0.050 C 
BRANCH  10  16
HETATM   16  O4  UNL     1      16.908 -18.232  37.663  1.00  0.00    -0.351 OA
BRANCH  16  17
HETATM   17  C18 UNL     1      17.932 -18.849  36.899  1.00  0.00     0.175 C 
BRANCH  17  18
HETATM   18  C19 UNL     1      18.527 -17.880  35.909  1.00  0.00     0.027 C 
BRANCH  18  19
HETATM   19  C20 UNL     1      17.501 -17.417  34.914  1.00  0.00     0.012 C 
BRANCH  19  20
HETATM   20  C21 UNL     1      16.976 -18.590  34.103  1.00  0.00     0.111 C 
BRANCH  20  21
HETATM   21  C22 UNL     1      15.910 -18.113  33.205  1.00  0.00     0.258 C 
HETATM   22  O5  UNL     1      16.207 -17.524  32.149  1.00  0.00    -0.265 OA
BRANCH  21  23
HETATM   23  O6  UNL     1      14.587 -18.315  33.530  1.00  0.00    -0.326 OA
HETATM   24  C23 UNL     1      14.067 -19.634  33.396  1.00  0.00     0.213 C 
ENDBRANCH  21  23
ENDBRANCH  20  21
ENDBRANCH  19  20
ENDBRANCH  18  19
ENDBRANCH  17  18
ENDBRANCH  16  17
ENDBRANCH  10  16
ENDBRANCH   7   8
BRANCH   4  25
HETATM   25  C5  UNL     1       9.576 -21.974  33.614  1.00  0.00     0.084 A 
HETATM   26  C6  UNL     1       8.722 -22.944  34.073  1.00  0.00     0.160 A 
HETATM   27  N1  UNL     1       8.256 -23.865  33.203  1.00  0.00    -0.288 N 
HETATM   28  C7  UNL     1       8.618 -23.843  31.909  1.00  0.00     0.331 A 
ATOM     29  H1  UNL     1       7.620 -24.591  33.534  1.00  0.00     0.172 HD
HETATM   30  O2  UNL     1       8.128 -24.753  31.160  1.00  0.00    -0.246 OA
HETATM   31  N2  UNL     1       9.465 -22.898  31.405  1.00  0.00    -0.265 N 
HETATM   32  C12 UNL     1       9.932 -21.979  32.258  1.00  0.00     0.266 A 
HETATM   33  O3  UNL     1      10.716 -21.052  31.911  1.00  0.00    -0.267 OA
BRANCH  26  34
HETATM   34  O1  UNL     1       8.374 -22.927  35.424  1.00  0.00    -0.345 OA
ATOM     35  H1  UNL     1       8.820 -23.529  36.008  1.00  0.00     0.219 HD
ENDBRANCH  26  34
BRANCH  31  36
HETATM   36  C8  UNL     1       9.791 -22.864  30.022  1.00  0.00     0.137 C 
BRANCH  36  37
HETATM   37  C9  UNL     1       8.909 -22.190  29.066  1.00  0.00     0.020 C 
BRANCH  37  38
HETATM   38  C10 UNL     1       7.941 -22.936  28.250  1.00  0.00    -0.003 C 
HETATM   39  C11 UNL     1       6.525 -22.985  28.701  1.00  0.00     0.005 C 
ENDBRANCH  37  38
ENDBRANCH  36  37
ENDBRANCH  31  36
ENDBRANCH   4  25
TORSDOF 13
ENDMDL
MODEL 2
REMARK VINA RESULT: -8.421621336      2.074      9.840
REMARK  13 active torsions:
REMARK  status: ('A' for Active; 'I' for Inactive)
REMARK    1  A    between atoms: C4_4  and  C5_5 
REMARK    2  A    between atoms: C6_6  and  O1_7 
REMARK    3  A    between atoms: N2_13  and  C8_14 
REMARK    4  A    between atoms: C8_14  and  C9_15 
REMARK    5  A    between atoms: C9_15  and  C10_16 
REMARK    6  A    between atoms: N3_22  and  C15_23 
REMARK    7  A    between atoms: C17_25  and  O4_26 
REMARK    8  A    between atoms: O4_26  and  C18_27 
REMARK    9  A    between atoms: C18_27  and  C19_28 
REMARK   10  A    between atoms: C19_28  and  C20_29 
REMARK   11  A    between atoms: C20_29  and  C21_30 
REMARK   12  A    between atoms: C21_30  and  C22_31 
REMARK   13  A    between atoms: C22_31  and  O6_33 
ROOT
HETATM    1  C1  UNL     1       9.785 -19.619  32.976  1.00  0.00     0.044 C 
HETATM    2  C2  UNL     1      10.640 -20.638  33.259  1.00  0.00     0.040 A 
HETATM    3  C3  UNL     1      11.647 -20.508  34.206  1.00  0.00    -0.007 A 
HETATM    4  C4  UNL     1      11.917 -19.429  34.942  1.00  0.00     0.035 C 
HETATM    5  C13 UNL     1      12.303 -21.718  34.227  1.00  0.00     0.031 A 
HETATM    6  C14 UNL     1      11.688 -22.529  33.312  1.00  0.00     0.098 A 
HETATM    7  N3  UNL     1      10.661 -21.854  32.719  1.00  0.00    -0.322 N 
ENDROOT
BRANCH   7   8
HETATM    8  C15 UNL     1       9.814 -22.377  31.693  1.00  0.00     0.047 A 
HETATM    9  C16 UNL     1       8.663 -23.070  32.026  1.00  0.00     0.067 A 
HETATM   10  C17 UNL     1       7.807 -23.586  31.097  1.00  0.00     0.076 A 
HETATM   11  C24 UNL     1       8.105 -23.410  29.770  1.00  0.00    -0.028 A 
HETATM   12  C25 UNL     1       7.177 -23.967  28.729  1.00  0.00     0.051 C 
HETATM   13  C26 UNL     1       9.255 -22.720  29.371  1.00  0.00     0.018 A 
HETATM   14  C27 UNL     1      10.104 -22.207  30.370  1.00  0.00    -0.034 A 
HETATM   15  C28 UNL     1      11.311 -21.472  29.933  1.00  0.00     0.050 C 
BRANCH  10  16
HETATM   16  O4  UNL     1       6.650 -24.280  31.434  1.00  0.00    -0.351 OA
BRANCH  16  17
HETATM   17  C18 UNL     1       6.403 -24.693  32.769  1.00  0.00     0.175 C 
BRANCH  17  18
HETATM   18  C19 UNL     1       5.639 -23.639  33.529  1.00  0.00     0.027 C 
BRANCH  18  19
HETATM   19  C20 UNL     1       6.142 -23.511  34.939  1.00  0.00     0.012 C 
BRANCH  19  20
HETATM   20  C21 UNL     1       6.582 -22.085  35.222  1.00  0.00     0.111 C 
BRANCH  20  21
HETATM   21  C22 UNL     1       7.997 -22.092  35.632  1.00  0.00     0.258 C 
HETATM   22  O5  UNL     1       8.469 -21.119  36.248  1.00  0.00    -0.265 OA
BRANCH  21  23
HETATM   23  O6  UNL     1       8.799 -23.172  35.336  1.00  0.00    -0.326 OA
HETATM   24  C23 UNL     1       9.761 -23.569  36.307  1.00  0.00     0.213 C 
ENDBRANCH  21  23
ENDBRANCH  20  21
ENDBRANCH  19  20
ENDBRANCH  18  19
ENDBRANCH  17  18
ENDBRANCH  16  17
ENDBRANCH  10  16
ENDBRANCH   7   8
BRANCH   4  25
HETATM   25  C5  UNL     1      13.006 -19.409  35.907  1.00  0.00     0.084 A 
HETATM   26  C6  UNL     1      14.267 -19.013  35.537  1.00  0.00     0.160 A 
HETATM   27  N1  UNL     1      15.248 -19.015  36.463  1.00  0.00    -0.288 N 
HETATM   28  C7  UNL     1      15.008 -19.397  37.729  1.00  0.00     0.331 A 
ATOM     29  H1  UNL     1      16.189 -18.721  36.197  1.00  0.00     0.172 HD
HETATM   30  O2  UNL     1      15.996 -19.366  38.536  1.00  0.00    -0.246 OA
HETATM   31  N2  UNL     1      13.771 -19.799  38.146  1.00  0.00    -0.265 N 
HETATM   32  C12 UNL     1      12.790 -19.801  37.236  1.00  0.00     0.266 A 
HETATM   33  O3  UNL     1      11.605 -20.146  37.502  1.00  0.00    -0.267 OA
BRANCH  26  34
HETATM   34  O1  UNL     1      14.469 -18.624  34.212  1.00  0.00    -0.345 OA
ATOM     35  H1  UNL     1      14.597 -19.304  33.562  1.00  0.00     0.219 HD
ENDBRANCH  26  34
BRANCH  31  36
HETATM   36  C8  UNL     1      13.530 -20.149  39.502  1.00  0.00     0.137 C 
BRANCH  36  37
HETATM   37  C9  UNL     1      13.271 -19.111  40.503  1.00  0.00     0.020 C 
BRANCH  37  38
HETATM   38  C10 UNL     1      14.275 -18.743  41.511  1.00  0.00    -0.003 C 
HETATM   39  C11 UNL     1      14.562 -19.705  42.609  1.00  0.00     0.005 C 
ENDBRANCH  37  38
ENDBRANCH  36  37
ENDBRANCH  31  36
ENDBRANCH   4  25
TORSDOF 13
ENDMDL
MODEL 3
REMARK VINA RESULT: -8.334144524      1.154      1.331
REMARK  13 active torsions:
REMARK  status: ('A' for Active; 'I' for Inactive)
REMARK    1  A    between atoms: C4_4  and  C5_5 
REMARK    2  A    between atoms: C6_6  and  O1_7 
REMARK    3  A    between atoms: N2_13  and  C8_14 
REMARK    4  A    between atoms: C8_14  and  C9_15 
REMARK    5  A    between atoms: C9_15  and  C10_16 
REMARK    6  A    between atoms: N3_22  and  C15_23 
REMARK    7  A    between atoms: C17_25  and  O4_26 
REMARK    8  A    between atoms: O4_26  and  C18_27 
REMARK    9  A    between atoms: C18_27  and  C19_28 
REMARK   10  A    between atoms: C19_28  and  C20_29 
REMARK   11  A    between atoms: C20_29  and  C21_30 
REMARK   12  A    between atoms: C21_30  and  C22_31 
REMARK   13  A    between atoms: C22_31  and  O6_33 
ROOT
HETATM    1  C1  UNL     1      11.792 -18.743  37.199  1.00  0.00     0.044 C 
HETATM    2  C2  UNL     1      12.265 -19.992  36.941  1.00  0.00     0.040 A 
HETATM    3  C3  UNL     1      11.710 -20.796  35.955  1.00  0.00    -0.007 A 
HETATM    4  C4  UNL     1      10.688 -20.489  35.154  1.00  0.00     0.035 C 
HETATM    5  C13 UNL     1      12.430 -21.969  35.975  1.00  0.00     0.031 A 
HETATM    6  C14 UNL     1      13.381 -21.844  36.952  1.00  0.00     0.098 A 
HETATM    7  N3  UNL     1      13.271 -20.620  37.544  1.00  0.00    -0.322 N 
ENDROOT
BRANCH   7   8
HETATM    8  C15 UNL     1      14.082 -20.151  38.624  1.00  0.00     0.047 A 
HETATM    9  C16 UNL     1      15.296 -19.538  38.369  1.00  0.00     0.067 A 
HETATM   10  C17 UNL     1      16.113 -19.059  39.353  1.00  0.00     0.076 A 
HETATM   11  C24 UNL     1      15.708 -19.196  40.656  1.00  0.00    -0.028 A 
HETATM   12  C25 UNL     1      16.588 -18.674  41.755  1.00  0.00     0.051 C 
HETATM   13  C26 UNL     1      14.492 -19.808  40.976  1.00  0.00     0.018 A 
HETATM   14  C27 UNL     1      13.688 -20.283  39.924  1.00  0.00    -0.034 A 
HETATM   15  C28 UNL     1      12.400 -20.919  40.279  1.00  0.00     0.050 C 
BRANCH  10  16
HETATM   16  O4  UNL     1      17.331 -18.441  39.094  1.00  0.00    -0.351 OA
BRANCH  16  17
HETATM   17  C18 UNL     1      17.520 -17.647  37.933  1.00  0.00     0.175 C 
BRANCH  17  18
HETATM   18  C19 UNL     1      18.278 -18.406  36.874  1.00  0.00     0.027 C 
BRANCH  18  19
HETATM   19  C20 UNL     1      17.679 -18.189  35.513  1.00  0.00     0.012 C 
BRANCH  19  20
HETATM   20  C21 UNL     1      16.440 -17.314  35.608  1.00  0.00     0.111 C 
BRANCH  20  21
HETATM   21  C22 UNL     1      15.326 -17.984  34.916  1.00  0.00     0.258 C 
HETATM   22  O5  UNL     1      14.500 -17.309  34.275  1.00  0.00    -0.265 OA
BRANCH  21  23
HETATM   23  O6  UNL     1      15.196 -19.353  34.976  1.00  0.00    -0.326 OA
HETATM   24  C23 UNL     1      14.836 -20.037  33.780  1.00  0.00     0.213 C 
ENDBRANCH  21  23
ENDBRANCH  20  21
ENDBRANCH  19  20
ENDBRANCH  18  19
ENDBRANCH  17  18
ENDBRANCH  16  17
ENDBRANCH  10  16
ENDBRANCH   7   8
BRANCH   4  25
HETATM   25  C5  UNL     1      10.189 -21.419  34.152  1.00  0.00     0.084 A 
HETATM   26  C6  UNL     1       9.217 -22.335  34.467  1.00  0.00     0.160 A 
HETATM   27  N1  UNL     1       8.786 -23.182  33.508  1.00  0.00    -0.288 N 
HETATM   28  C7  UNL     1       9.294 -23.140  32.264  1.00  0.00     0.331 A 
ATOM     29  H1  UNL     1       8.063 -23.867  33.732  1.00  0.00     0.172 HD
HETATM   30  O2  UNL     1       8.826 -23.979  31.424  1.00  0.00    -0.246 OA
HETATM   31  N2  UNL     1      10.263 -22.247  31.903  1.00  0.00    -0.265 N 
HETATM   32  C12 UNL     1      10.697 -21.402  32.845  1.00  0.00     0.266 A 
HETATM   33  O3  UNL     1      11.583 -20.528  32.632  1.00  0.00    -0.267 OA
BRANCH  26  34
HETATM   34  O1  UNL     1       8.719 -22.341  35.770  1.00  0.00    -0.345 OA
ATOM     35  H1  UNL     1       8.615 -23.179  36.204  1.00  0.00     0.219 HD
ENDBRANCH  26  34
BRANCH  31  36
HETATM   36  C8  UNL     1      10.747 -22.187  30.569  1.00  0.00     0.137 C 
BRANCH  36  37
HETATM   37  C9  UNL     1      10.019 -21.431  29.546  1.00  0.00     0.020 C 
BRANCH  37  38
HETATM   38  C10 UNL     1       9.676 -22.023  28.246  1.00  0.00    -0.003 C 
HETATM   39  C11 UNL     1       8.578 -23.025  28.192  1.00  0.00     0.005 C 
ENDBRANCH  37  38
ENDBRANCH  36  37
ENDBRANCH  31  36
ENDBRANCH   4  25
TORSDOF 13
ENDMDL
MODEL 4
REMARK VINA RESULT: -8.307531171      1.229      2.389
REMARK  13 active torsions:
REMARK  status: ('A' for Active; 'I' for Inactive)
REMARK    1  A    between atoms: C4_4  and  C5_5 
REMARK    2  A    between atoms: C6_6  and  O1_7 
REMARK    3  A    between atoms: N2_13  and  C8_14 
REMARK    4  A    between atoms: C8_14  and  C9_15 
REMARK    5  A    between atoms: C9_15  and  C10_16 
REMARK    6  A    between atoms: N3_22  and  C15_23 
REMARK    7  A    between atoms: C17_25  and  O4_26 
REMARK    8  A    between atoms: O4_26  and  C18_27 
REMARK    9  A    between atoms: C18_27  and  C19_28 
REMARK   10  A    between atoms: C19_28  and  C20_29 
REMARK   11  A    between atoms: C20_29  and  C21_30 
REMARK   12  A    between atoms: C21_30  and  C22_31 
REMARK   13  A    between atoms: C22_31  and  O6_33 
ROOT
HETATM    1  C1  UNL     1      11.404 -19.003  36.292  1.00  0.00     0.044 C 
HETATM    2  C2  UNL     1      11.831 -20.283  36.120  1.00  0.00     0.040 A 
HETATM    3  C3  UNL     1      11.249 -21.130  35.186  1.00  0.00    -0.007 A 
HETATM    4  C4  UNL     1      10.241 -20.840  34.362  1.00  0.00     0.035 C 
HETATM    5  C13 UNL     1      11.925 -22.325  35.288  1.00  0.00     0.031 A 
HETATM    6  C14 UNL     1      12.878 -22.170  36.259  1.00  0.00     0.098 A 
HETATM    7  N3  UNL     1      12.812 -20.906  36.768  1.00  0.00    -0.322 N 
ENDROOT
BRANCH   7   8
HETATM    8  C15 UNL     1      13.636 -20.396  37.818  1.00  0.00     0.047 A 
HETATM    9  C16 UNL     1      14.818 -19.740  37.521  1.00  0.00     0.067 A 
HETATM   10  C17 UNL     1      15.645 -19.221  38.475  1.00  0.00     0.076 A 
HETATM   11  C24 UNL     1      15.286 -19.360  39.791  1.00  0.00    -0.028 A 
HETATM   12  C25 UNL     1      16.179 -18.795  40.859  1.00  0.00     0.051 C 
HETATM   13  C26 UNL     1      14.105 -20.015  40.154  1.00  0.00     0.018 A 
HETATM   14  C27 UNL     1      13.287 -20.531  39.131  1.00  0.00    -0.034 A 
HETATM   15  C28 UNL     1      12.036 -21.212  39.531  1.00  0.00     0.050 C 
BRANCH  10  16
HETATM   16  O4  UNL     1      16.830 -18.560  38.173  1.00  0.00    -0.351 OA
BRANCH  16  17
HETATM   17  C18 UNL     1      17.314 -18.488  36.841  1.00  0.00     0.175 C 
BRANCH  17  18
HETATM   18  C19 UNL     1      17.251 -17.076  36.317  1.00  0.00     0.027 C 
BRANCH  18  19
HETATM   19  C20 UNL     1      17.509 -17.031  34.838  1.00  0.00     0.012 C 
BRANCH  19  20
HETATM   20  C21 UNL     1      17.065 -18.326  34.178  1.00  0.00     0.111 C 
BRANCH  20  21
HETATM   21  C22 UNL     1      15.964 -18.035  33.244  1.00  0.00     0.258 C 
HETATM   22  O5  UNL     1      16.211 -17.526  32.135  1.00  0.00    -0.265 OA
BRANCH  21  23
HETATM   23  O6  UNL     1      14.664 -18.324  33.594  1.00  0.00    -0.326 OA
HETATM   24  C23 UNL     1      14.264 -19.691  33.586  1.00  0.00     0.213 C 
ENDBRANCH  21  23
ENDBRANCH  20  21
ENDBRANCH  19  20
ENDBRANCH  18  19
ENDBRANCH  17  18
ENDBRANCH  16  17
ENDBRANCH  10  16
ENDBRANCH   7   8
BRANCH   4  25
HETATM   25  C5  UNL     1       9.711 -21.816  33.421  1.00  0.00     0.084 A 
HETATM   26  C6  UNL     1      10.300 -22.004  32.197  1.00  0.00     0.160 A 
HETATM   27  N1  UNL     1       9.772 -22.916  31.354  1.00  0.00    -0.288 N 
HETATM   28  C7  UNL     1       8.687 -23.632  31.696  1.00  0.00     0.331 A 
ATOM     29  H1  UNL     1      10.204 -23.064  30.441  1.00  0.00     0.172 HD
HETATM   30  O2  UNL     1       8.258 -24.471  30.835  1.00  0.00    -0.246 OA
HETATM   31  N2  UNL     1       8.064 -23.480  32.902  1.00  0.00    -0.265 N 
HETATM   32  C12 UNL     1       8.580 -22.579  33.746  1.00  0.00     0.266 A 
HETATM   33  O3  UNL     1       8.098 -22.353  34.891  1.00  0.00    -0.267 OA
BRANCH  26  34
HETATM   34  O1  UNL     1      11.425 -21.239  31.886  1.00  0.00    -0.345 OA
ATOM     35  H1  UNL     1      12.236 -21.433  32.340  1.00  0.00     0.219 HD
ENDBRANCH  26  34
BRANCH  31  36
HETATM   36  C8  UNL     1       6.950 -24.285  33.261  1.00  0.00     0.137 C 
BRANCH  36  37
HETATM   37  C9  UNL     1       5.585 -23.835  32.978  1.00  0.00     0.020 C 
BRANCH  37  38
HETATM   38  C10 UNL     1       4.783 -23.123  33.982  1.00  0.00    -0.003 C 
HETATM   39  C11 UNL     1       4.805 -23.615  35.386  1.00  0.00     0.005 C 
ENDBRANCH  37  38
ENDBRANCH  36  37
ENDBRANCH  31  36
ENDBRANCH   4  25
TORSDOF 13
ENDMDL
MODEL 5
REMARK VINA RESULT: -8.191900503      2.413      5.213
REMARK  13 active torsions:
REMARK  status: ('A' for Active; 'I' for Inactive)
REMARK    1  A    between atoms: C4_4  and  C5_5 
REMARK    2  A    between atoms: C6_6  and  O1_7 
REMARK    3  A    between atoms: N2_13  and  C8_14 
REMARK    4  A    between atoms: C8_14  and  C9_15 
REMARK    5  A    between atoms: C9_15  and  C10_16 
REMARK    6  A    between atoms: N3_22  and  C15_23 
REMARK    7  A    between atoms: C17_25  and  O4_26 
REMARK    8  A    between atoms: O4_26  and  C18_27 
REMARK    9  A    between atoms: C18_27  and  C19_28 
REMARK   10  A    between atoms: C19_28  and  C20_29 
REMARK   11  A    between atoms: C20_29  and  C21_30 
REMARK   12  A    between atoms: C21_30  and  C22_31 
REMARK   13  A    between atoms: C22_31  and  O6_33 
ROOT
HETATM    1  C1  UNL     1      11.147 -19.304  34.898  1.00  0.00     0.044 C 
HETATM    2  C2  UNL     1      11.574 -20.595  34.956  1.00  0.00     0.040 A 
HETATM    3  C3  UNL     1      10.768 -21.651  34.552  1.00  0.00    -0.007 A 
HETATM    4  C4  UNL     1       9.527 -21.571  34.071  1.00  0.00     0.035 C 
HETATM    5  C13 UNL     1      11.515 -22.791  34.749  1.00  0.00     0.031 A 
HETATM    6  C14 UNL     1      12.726 -22.400  35.255  1.00  0.00     0.098 A 
HETATM    7  N3  UNL     1      12.753 -21.042  35.380  1.00  0.00    -0.322 N 
ENDROOT
BRANCH   7   8
HETATM    8  C15 UNL     1      13.847 -20.284  35.902  1.00  0.00     0.047 A 
HETATM    9  C16 UNL     1      14.012 -20.149  37.269  1.00  0.00     0.067 A 
HETATM   10  C17 UNL     1      15.039 -19.448  37.832  1.00  0.00     0.076 A 
HETATM   11  C24 UNL     1      15.949 -18.848  36.999  1.00  0.00    -0.028 A 
HETATM   12  C25 UNL     1      17.090 -18.074  37.595  1.00  0.00     0.051 C 
HETATM   13  C26 UNL     1      15.834 -18.948  35.609  1.00  0.00     0.018 A 
HETATM   14  C27 UNL     1      14.757 -19.683  35.081  1.00  0.00    -0.034 A 
HETATM   15  C28 UNL     1      14.655 -19.788  33.609  1.00  0.00     0.050 C 
BRANCH  10  16
HETATM   16  O4  UNL     1      15.204 -19.316  39.206  1.00  0.00    -0.351 OA
BRANCH  16  17
HETATM   17  C18 UNL     1      14.108 -19.463  40.096  1.00  0.00     0.175 C 
BRANCH  17  18
HETATM   18  C19 UNL     1      14.558 -20.028  41.419  1.00  0.00     0.027 C 
BRANCH  18  19
HETATM   19  C20 UNL     1      14.989 -18.938  42.359  1.00  0.00     0.012 C 
BRANCH  19  20
HETATM   20  C21 UNL     1      16.482 -18.683  42.232  1.00  0.00     0.111 C 
BRANCH  20  21
HETATM   21  C22 UNL     1      16.705 -17.243  42.021  1.00  0.00     0.258 C 
HETATM   22  O5  UNL     1      15.945 -16.600  41.275  1.00  0.00    -0.265 OA
BRANCH  21  23
HETATM   23  O6  UNL     1      17.754 -16.605  42.647  1.00  0.00    -0.326 OA
HETATM   24  C23 UNL     1      17.441 -15.612  43.618  1.00  0.00     0.213 C 
ENDBRANCH  21  23
ENDBRANCH  20  21
ENDBRANCH  19  20
ENDBRANCH  18  19
ENDBRANCH  17  18
ENDBRANCH  16  17
ENDBRANCH  10  16
ENDBRANCH   7   8
BRANCH   4  25
HETATM   25  C5  UNL     1       8.776 -22.755  33.680  1.00  0.00     0.084 A 
HETATM   26  C6  UNL     1       8.876 -23.261  32.408  1.00  0.00     0.160 A 
HETATM   27  N1  UNL     1       8.157 -24.358  32.086  1.00  0.00    -0.288 N 
HETATM   28  C7  UNL     1       7.354 -24.951  32.986  1.00  0.00     0.331 A 
ATOM     29  H1  UNL     1       8.225 -24.743  31.143  1.00  0.00     0.172 HD
HETATM   30  O2  UNL     1       6.714 -25.982  32.592  1.00  0.00    -0.246 OA
HETATM   31  N2  UNL     1       7.220 -24.484  34.263  1.00  0.00    -0.265 N 
HETATM   32  C12 UNL     1       7.929 -23.398  34.593  1.00  0.00     0.266 A 
HETATM   33  O3  UNL     1       7.895 -22.877  35.743  1.00  0.00    -0.267 OA
BRANCH  26  34
HETATM   34  O1  UNL     1       9.723 -22.613  31.508  1.00  0.00    -0.345 OA
ATOM     35  H1  UNL     1       9.864 -21.681  31.621  1.00  0.00     0.219 HD
ENDBRANCH  26  34
BRANCH  31  36
HETATM   36  C8  UNL     1       6.405 -25.159  35.211  1.00  0.00     0.137 C 
BRANCH  36  37
HETATM   37  C9  UNL     1       4.952 -24.972  35.209  1.00  0.00     0.020 C 
BRANCH  37  38
HETATM   38  C10 UNL     1       4.341 -23.665  35.484  1.00  0.00    -0.003 C 
HETATM   39  C11 UNL     1       4.084 -22.749  34.341  1.00  0.00     0.005 C 
ENDBRANCH  37  38
ENDBRANCH  36  37
ENDBRANCH  31  36
ENDBRANCH   4  25
TORSDOF 13
ENDMDL
