MODEL 1
REMARK VINA RESULT: -8.633048698      0.000      0.000
REMARK  12 active torsions:
REMARK  status: ('A' for Active; 'I' for Inactive)
REMARK    1  A    between atoms: C1_2  and  C2_4 
REMARK    2  A    between atoms: C4_8  and  N3_9 
REMARK    3  A    between atoms: N3_9  and  C5_11 
REMARK    4  A    between atoms: C5_11  and  C6_12 
REMARK    5  A    between atoms: C6_12  and  C7_13 
REMARK    6  A    between atoms: C7_13  and  C8_14 
REMARK    7  A    between atoms: C15_23  and  N5_24 
REMARK    8  A    between atoms: C18_27  and  C19_28 
REMARK    9  A    between atoms: C19_28  and  N6_29 
REMARK   10  A    between atoms: N6_29  and  C20_32 
REMARK   11  A    between atoms: C20_32  and  C21_33 
REMARK   12  A    between atoms: C21_33  and  N7_34 
ROOT
HETATM    1  C2  UNL     1      13.026 -20.721  34.447  1.00  0.00     0.142 A 
HETATM    2  N2  UNL     1      12.859 -21.144  33.155  1.00  0.00    -0.355 N 
ATOM      3  H2  UNL     1      13.526 -20.829  32.451  1.00  0.00     0.165 HD
HETATM    4  C3  UNL     1      11.862 -21.952  32.772  1.00  0.00     0.137 A 
HETATM    5  C4  UNL     1      10.960 -22.382  33.705  1.00  0.00     0.118 A 
HETATM    6  N4  UNL     1      11.121 -21.971  34.973  1.00  0.00    -0.326 N 
ATOM      7  H4  UNL     1      10.450 -22.292  35.670  1.00  0.00     0.169 HD
HETATM    8  C15 UNL     1      12.129 -21.150  35.382  1.00  0.00     0.137 A 
ENDROOT
BRANCH   8   9
HETATM    9  N5  UNL     1      12.203 -20.783  36.771  1.00  0.00    -0.365 N 
HETATM   10  C16 UNL     1      12.869 -21.621  37.741  1.00  0.00     0.125 C 
HETATM   11  C17 UNL     1      12.489 -21.297  39.156  1.00  0.00     0.026 C 
HETATM   12  C18 UNL     1      12.688 -19.849  39.487  1.00  0.00     0.014 C 
HETATM   13  C26 UNL     1      12.705 -18.989  38.243  1.00  0.00     0.026 C 
HETATM   14  C27 UNL     1      11.646 -19.533  37.257  1.00  0.00     0.125 C 
BRANCH  12  15
HETATM   15  C19 UNL     1      13.944 -19.651  40.312  1.00  0.00     0.237 C 
BRANCH  15  16
HETATM   16  N6  UNL     1      14.801 -18.642  39.764  1.00  0.00    -0.073 N 
ATOM     17  H62 UNL     1      14.341 -18.173  38.983  1.00  0.00     0.277 HD
ATOM     18  H61 UNL     1      14.887 -17.860  40.413  1.00  0.00     0.277 HD
BRANCH  16  19
HETATM   19  C20 UNL     1      16.093 -19.104  39.373  1.00  0.00     0.262 C 
BRANCH  19  20
HETATM   20  C21 UNL     1      16.480 -18.813  37.954  1.00  0.00     0.300 C 
BRANCH  20  21
HETATM   21  N7  UNL     1      17.371 -17.703  37.787  1.00  0.00     0.094 N 
HETATM   22  C22 UNL     1      18.735 -17.997  38.187  1.00  0.00     0.298 C 
HETATM   23  C23 UNL     1      19.363 -19.005  37.263  1.00  0.00     0.198 C 
HETATM   24  O2  UNL     1      19.373 -18.495  35.982  1.00  0.00    -0.388 OA
HETATM   25  C24 UNL     1      18.082 -18.353  35.521  1.00  0.00     0.198 C 
HETATM   26  C25 UNL     1      17.345 -17.338  36.364  1.00  0.00     0.298 C 
ENDBRANCH  20  21
ENDBRANCH  19  20
ENDBRANCH  16  19
ENDBRANCH  15  16
ENDBRANCH  12  15
ENDBRANCH   8   9
BRANCH   1  27
HETATM   27  C1  UNL     1      14.140 -19.835  34.762  1.00  0.00     0.285 C 
HETATM   28  N1  UNL     1      13.956 -18.409  34.732  1.00  0.00    -0.056 NA
HETATM   29  O1  UNL     1      15.256 -20.264  35.062  1.00  0.00    -0.269 OA
ENDBRANCH   1  27
BRANCH   5  30
HETATM   30  N3  UNL     1       9.982 -23.149  33.357  1.00  0.00    -0.375 N 
ATOM     31  H3  UNL     1      10.220 -23.987  32.827  1.00  0.00     0.161 HD
BRANCH  30  32
HETATM   32  C5  UNL     1       8.593 -22.937  33.644  1.00  0.00     0.121 C 
BRANCH  32  33
HETATM   33  C6  UNL     1       7.659 -23.491  32.587  1.00  0.00     0.020 C 
BRANCH  33  34
HETATM   34  C7  UNL     1       8.333 -23.885  31.318  1.00  0.00     0.006 C 
BRANCH  34  35
HETATM   35  C8  UNL     1       7.870 -23.128  30.115  1.00  0.00    -0.014 C 
HETATM   36  C9  UNL     1       8.149 -21.672  30.282  1.00  0.00     0.004 C 
HETATM   37  C10 UNL     1       9.563 -21.257  30.169  1.00  0.00     0.000 C 
HETATM   38  C11 UNL     1      10.453 -22.081  29.309  1.00  0.00     0.000 C 
HETATM   39  C12 UNL     1      10.019 -22.194  27.870  1.00  0.00     0.000 C 
HETATM   40  C13 UNL     1       8.593 -22.682  27.736  1.00  0.00     0.000 C 
HETATM   41  C14 UNL     1       8.343 -23.695  28.818  1.00  0.00     0.004 C 
ENDBRANCH  34  35
ENDBRANCH  33  34
ENDBRANCH  32  33
ENDBRANCH  30  32
ENDBRANCH   5  30
TORSDOF 12
ENDMDL
MODEL 2
REMARK VINA RESULT: -8.416440772      2.744      9.323
REMARK  12 active torsions:
REMARK  status: ('A' for Active; 'I' for Inactive)
REMARK    1  A    between atoms: C1_2  and  C2_4 
REMARK    2  A    between atoms: C4_8  and  N3_9 
REMARK    3  A    between atoms: N3_9  and  C5_11 
REMARK    4  A    between atoms: C5_11  and  C6_12 
REMARK    5  A    between atoms: C6_12  and  C7_13 
REMARK    6  A    between atoms: C7_13  and  C8_14 
REMARK    7  A    between atoms: C15_23  and  N5_24 
REMARK    8  A    between atoms: C18_27  and  C19_28 
REMARK    9  A    between atoms: C19_28  and  N6_29 
REMARK   10  A    between atoms: N6_29  and  C20_32 
REMARK   11  A    between atoms: C20_32  and  C21_33 
REMARK   12  A    between atoms: C21_33  and  N7_34 
ROOT
HETATM    1  C2  UNL     1      15.911 -18.097  34.747  1.00  0.00     0.142 A 
HETATM    2  N2  UNL     1      17.076 -17.556  35.221  1.00  0.00    -0.355 N 
ATOM      3  H2  UNL     1      17.545 -16.844  34.661  1.00  0.00     0.165 HD
HETATM    4  C3  UNL     1      17.630 -17.917  36.386  1.00  0.00     0.137 A 
HETATM    5  C4  UNL     1      17.014 -18.871  37.147  1.00  0.00     0.118 A 
HETATM    6  N4  UNL     1      15.870 -19.403  36.686  1.00  0.00    -0.326 N 
ATOM      7  H4  UNL     1      15.409 -20.114  37.253  1.00  0.00     0.169 HD
HETATM    8  C15 UNL     1      15.291 -19.049  35.505  1.00  0.00     0.137 A 
ENDROOT
BRANCH   8   9
HETATM    9  N5  UNL     1      14.059 -19.683  35.119  1.00  0.00    -0.365 N 
HETATM   10  C16 UNL     1      12.777 -19.150  35.513  1.00  0.00     0.125 C 
HETATM   11  C17 UNL     1      11.661 -20.145  35.383  1.00  0.00     0.026 C 
HETATM   12  C18 UNL     1      11.583 -20.743  34.011  1.00  0.00     0.014 C 
HETATM   13  C26 UNL     1      12.898 -20.626  33.274  1.00  0.00     0.026 C 
HETATM   14  C27 UNL     1      14.047 -20.870  34.281  1.00  0.00     0.125 C 
BRANCH  12  15
HETATM   15  C19 UNL     1      10.448 -20.126  33.217  1.00  0.00     0.237 C 
BRANCH  15  16
HETATM   16  N6  UNL     1       9.585 -21.115  32.643  1.00  0.00    -0.073 N 
ATOM     17  H62 UNL     1       8.623 -20.775  32.621  1.00  0.00     0.277 HD
ATOM     18  H61 UNL     1       9.764 -21.203  31.643  1.00  0.00     0.277 HD
BRANCH  16  19
HETATM   19  C20 UNL     1       9.643 -22.396  33.270  1.00  0.00     0.262 C 
BRANCH  19  20
HETATM   20  C21 UNL     1       8.450 -22.763  34.099  1.00  0.00     0.300 C 
BRANCH  20  21
HETATM   21  N7  UNL     1       8.750 -23.476  35.306  1.00  0.00     0.094 N 
HETATM   22  C22 UNL     1       9.259 -22.623  36.364  1.00  0.00     0.298 C 
HETATM   23  C23 UNL     1       8.197 -21.676  36.852  1.00  0.00     0.198 C 
HETATM   24  O2  UNL     1       7.134 -22.405  37.339  1.00  0.00    -0.388 OA
HETATM   25  C24 UNL     1       6.534 -23.107  36.315  1.00  0.00     0.198 C 
HETATM   26  C25 UNL     1       7.505 -24.118  35.749  1.00  0.00     0.298 C 
ENDBRANCH  20  21
ENDBRANCH  19  20
ENDBRANCH  16  19
ENDBRANCH  15  16
ENDBRANCH  12  15
ENDBRANCH   8   9
BRANCH   1  27
HETATM   27  C1  UNL     1      15.392 -17.642  33.462  1.00  0.00     0.285 C 
HETATM   28  N1  UNL     1      16.191 -17.779  32.274  1.00  0.00    -0.056 NA
HETATM   29  O1  UNL     1      14.274 -17.136  33.348  1.00  0.00    -0.269 OA
ENDBRANCH   1  27
BRANCH   5  30
HETATM   30  N3  UNL     1      17.536 -19.246  38.265  1.00  0.00    -0.375 N 
ATOM     31  H3  UNL     1      18.153 -20.058  38.237  1.00  0.00     0.161 HD
BRANCH  30  32
HETATM   32  C5  UNL     1      17.335 -18.631  39.545  1.00  0.00     0.121 C 
BRANCH  32  33
HETATM   33  C6  UNL     1      16.183 -19.220  40.333  1.00  0.00     0.020 C 
BRANCH  33  34
HETATM   34  C7  UNL     1      15.221 -18.212  40.860  1.00  0.00     0.006 C 
BRANCH  34  35
HETATM   35  C8  UNL     1      13.909 -18.782  41.294  1.00  0.00    -0.014 C 
HETATM   36  C9  UNL     1      12.805 -18.239  40.452  1.00  0.00     0.004 C 
HETATM   37  C10 UNL     1      12.724 -18.749  39.066  1.00  0.00     0.000 C 
HETATM   38  C11 UNL     1      13.236 -20.120  38.809  1.00  0.00     0.000 C 
HETATM   39  C12 UNL     1      12.567 -21.209  39.608  1.00  0.00     0.000 C 
HETATM   40  C13 UNL     1      12.593 -20.929  41.095  1.00  0.00     0.000 C 
HETATM   41  C14 UNL     1      13.903 -20.269  41.423  1.00  0.00     0.004 C 
ENDBRANCH  34  35
ENDBRANCH  33  34
ENDBRANCH  32  33
ENDBRANCH  30  32
ENDBRANCH   5  30
TORSDOF 12
ENDMDL
MODEL 3
REMARK VINA RESULT: -8.413738831      2.508      9.276
REMARK  12 active torsions:
REMARK  status: ('A' for Active; 'I' for Inactive)
REMARK    1  A    between atoms: C1_2  and  C2_4 
REMARK    2  A    between atoms: C4_8  and  N3_9 
REMARK    3  A    between atoms: N3_9  and  C5_11 
REMARK    4  A    between atoms: C5_11  and  C6_12 
REMARK    5  A    between atoms: C6_12  and  C7_13 
REMARK    6  A    between atoms: C7_13  and  C8_14 
REMARK    7  A    between atoms: C15_23  and  N5_24 
REMARK    8  A    between atoms: C18_27  and  C19_28 
REMARK    9  A    between atoms: C19_28  and  N6_29 
REMARK   10  A    between atoms: N6_29  and  C20_32 
REMARK   11  A    between atoms: C20_32  and  C21_33 
REMARK   12  A    between atoms: C21_33  and  N7_34 
ROOT
HETATM    1  C2  UNL     1      18.752 -16.385  38.407  1.00  0.00     0.142 A 
HETATM    2  N2  UNL     1      19.008 -16.052  39.710  1.00  0.00    -0.355 N 
ATOM      3  H2  UNL     1      19.851 -15.515  39.917  1.00  0.00     0.165 HD
HETATM    4  C3  UNL     1      18.206 -16.397  40.725  1.00  0.00     0.137 A 
HETATM    5  C4  UNL     1      17.074 -17.117  40.463  1.00  0.00     0.118 A 
HETATM    6  N4  UNL     1      16.818 -17.445  39.185  1.00  0.00    -0.326 N 
ATOM      7  H4  UNL     1      15.974 -17.981  38.987  1.00  0.00     0.169 HD
HETATM    8  C15 UNL     1      17.621 -17.103  38.139  1.00  0.00     0.137 A 
ENDROOT
BRANCH   8   9
HETATM    9  N5  UNL     1      17.239 -17.504  36.812  1.00  0.00    -0.365 N 
HETATM   10  C16 UNL     1      17.719 -18.732  36.224  1.00  0.00     0.125 C 
HETATM   11  C17 UNL     1      17.562 -18.771  34.733  1.00  0.00     0.026 C 
HETATM   12  C18 UNL     1      16.155 -18.494  34.296  1.00  0.00     0.014 C 
HETATM   13  C26 UNL     1      15.379 -17.746  35.356  1.00  0.00     0.026 C 
HETATM   14  C27 UNL     1      16.320 -16.710  36.014  1.00  0.00     0.125 C 
BRANCH  12  15
HETATM   15  C19 UNL     1      15.451 -19.775  33.898  1.00  0.00     0.237 C 
BRANCH  15  16
HETATM   16  N6  UNL     1      14.078 -19.557  33.551  1.00  0.00    -0.073 N 
ATOM     17  H62 UNL     1      13.769 -18.644  33.887  1.00  0.00     0.277 HD
ATOM     18  H61 UNL     1      13.986 -19.414  32.545  1.00  0.00     0.277 HD
BRANCH  16  19
HETATM   19  C20 UNL     1      13.181 -20.575  33.991  1.00  0.00     0.262 C 
BRANCH  19  20
HETATM   20  C21 UNL     1      12.171 -21.027  32.979  1.00  0.00     0.300 C 
BRANCH  20  21
HETATM   21  N7  UNL     1      10.860 -20.474  33.147  1.00  0.00     0.094 N 
HETATM   22  C22 UNL     1       9.914 -20.929  32.145  1.00  0.00     0.298 C 
HETATM   23  C23 UNL     1       9.623 -22.397  32.304  1.00  0.00     0.198 C 
HETATM   24  O2  UNL     1       9.089 -22.616  33.556  1.00  0.00    -0.388 OA
HETATM   25  C24 UNL     1      10.028 -22.337  34.525  1.00  0.00     0.198 C 
HETATM   26  C25 UNL     1      10.390 -20.870  34.481  1.00  0.00     0.298 C 
ENDBRANCH  20  21
ENDBRANCH  19  20
ENDBRANCH  16  19
ENDBRANCH  15  16
ENDBRANCH  12  15
ENDBRANCH   8   9
BRANCH   1  27
HETATM   27  C1  UNL     1      19.691 -15.969  37.372  1.00  0.00     0.285 C 
HETATM   28  N1  UNL     1      19.618 -14.640  36.826  1.00  0.00    -0.056 NA
HETATM   29  O1  UNL     1      20.566 -16.721  36.937  1.00  0.00    -0.269 OA
ENDBRANCH   1  27
BRANCH   5  30
HETATM   30  N3  UNL     1      16.294 -17.474  41.426  1.00  0.00    -0.375 N 
ATOM     31  H3  UNL     1      15.734 -16.741  41.861  1.00  0.00     0.161 HD
BRANCH  30  32
HETATM   32  C5  UNL     1      16.137 -18.802  41.945  1.00  0.00     0.121 C 
BRANCH  32  33
HETATM   33  C6  UNL     1      14.698 -19.184  42.222  1.00  0.00     0.020 C 
BRANCH  33  34
HETATM   34  C7  UNL     1      14.200 -20.330  41.410  1.00  0.00     0.006 C 
BRANCH  34  35
HETATM   35  C8  UNL     1      12.950 -20.042  40.642  1.00  0.00    -0.014 C 
HETATM   36  C9  UNL     1      13.175 -18.914  39.693  1.00  0.00     0.004 C 
HETATM   37  C10 UNL     1      14.002 -19.211  38.503  1.00  0.00     0.000 C 
HETATM   38  C11 UNL     1      13.994 -20.608  37.994  1.00  0.00     0.000 C 
HETATM   39  C12 UNL     1      12.637 -21.133  37.601  1.00  0.00     0.000 C 
HETATM   40  C13 UNL     1      11.623 -20.995  38.716  1.00  0.00     0.000 C 
HETATM   41  C14 UNL     1      12.326 -21.247  40.020  1.00  0.00     0.004 C 
ENDBRANCH  34  35
ENDBRANCH  33  34
ENDBRANCH  32  33
ENDBRANCH  30  32
ENDBRANCH   5  30
TORSDOF 12
ENDMDL
MODEL 4
REMARK VINA RESULT: -8.399873829      2.665      9.106
REMARK  12 active torsions:
REMARK  status: ('A' for Active; 'I' for Inactive)
REMARK    1  A    between atoms: C1_2  and  C2_4 
REMARK    2  A    between atoms: C4_8  and  N3_9 
REMARK    3  A    between atoms: N3_9  and  C5_11 
REMARK    4  A    between atoms: C5_11  and  C6_12 
REMARK    5  A    between atoms: C6_12  and  C7_13 
REMARK    6  A    between atoms: C7_13  and  C8_14 
REMARK    7  A    between atoms: C15_23  and  N5_24 
REMARK    8  A    between atoms: C18_27  and  C19_28 
REMARK    9  A    between atoms: C19_28  and  N6_29 
REMARK   10  A    between atoms: N6_29  and  C20_32 
REMARK   11  A    between atoms: C20_32  and  C21_33 
REMARK   12  A    between atoms: C21_33  and  N7_34 
ROOT
HETATM    1  C2  UNL     1      18.580 -17.151  37.043  1.00  0.00     0.142 A 
HETATM    2  N2  UNL     1      19.124 -16.741  38.230  1.00  0.00    -0.355 N 
ATOM      3  H2  UNL     1      20.083 -16.391  38.231  1.00  0.00     0.165 HD
HETATM    4  C3  UNL     1      18.459 -16.778  39.392  1.00  0.00     0.137 A 
HETATM    5  C4  UNL     1      17.174 -17.245  39.407  1.00  0.00     0.118 A 
HETATM    6  N4  UNL     1      16.636 -17.647  38.244  1.00  0.00    -0.326 N 
ATOM      7  H4  UNL     1      15.678 -17.995  38.253  1.00  0.00     0.169 HD
HETATM    8  C15 UNL     1      17.297 -17.617  37.052  1.00  0.00     0.137 A 
ENDROOT
BRANCH   8   9
HETATM    9  N5  UNL     1      16.614 -18.067  35.869  1.00  0.00    -0.365 N 
HETATM   10  C16 UNL     1      16.610 -19.457  35.479  1.00  0.00     0.125 C 
HETATM   11  C17 UNL     1      16.221 -19.664  34.045  1.00  0.00     0.026 C 
HETATM   12  C18 UNL     1      14.912 -19.019  33.706  1.00  0.00     0.014 C 
HETATM   13  C26 UNL     1      14.565 -17.914  34.678  1.00  0.00     0.026 C 
HETATM   14  C27 UNL     1      15.862 -17.148  35.031  1.00  0.00     0.125 C 
BRANCH  12  15
HETATM   15  C19 UNL     1      13.805 -20.053  33.629  1.00  0.00     0.237 C 
BRANCH  15  16
HETATM   16  N6  UNL     1      12.715 -19.749  34.508  1.00  0.00    -0.073 N 
ATOM     17  H62 UNL     1      12.754 -20.342  35.337  1.00  0.00     0.277 HD
ATOM     18  H61 UNL     1      12.852 -18.834  34.938  1.00  0.00     0.277 HD
BRANCH  16  19
HETATM   19  C20 UNL     1      11.424 -19.824  33.906  1.00  0.00     0.262 C 
BRANCH  19  20
HETATM   20  C21 UNL     1      10.458 -20.761  34.564  1.00  0.00     0.300 C 
BRANCH  20  21
HETATM   21  N7  UNL     1      10.560 -22.128  34.143  1.00  0.00     0.094 N 
HETATM   22  C22 UNL     1      10.841 -23.044  35.233  1.00  0.00     0.298 C 
HETATM   23  C23 UNL     1       9.677 -23.128  36.182  1.00  0.00     0.198 C 
HETATM   24  O2  UNL     1       8.569 -23.576  35.495  1.00  0.00    -0.388 OA
HETATM   25  C24 UNL     1       8.188 -22.644  34.554  1.00  0.00     0.198 C 
HETATM   26  C25 UNL     1       9.278 -22.484  33.520  1.00  0.00     0.298 C 
ENDBRANCH  20  21
ENDBRANCH  19  20
ENDBRANCH  16  19
ENDBRANCH  15  16
ENDBRANCH  12  15
ENDBRANCH   8   9
BRANCH   1  27
HETATM   27  C1  UNL     1      19.390 -17.079  35.832  1.00  0.00     0.285 C 
HETATM   28  N1  UNL     1      19.454 -15.854  35.081  1.00  0.00    -0.056 NA
HETATM   29  O1  UNL     1      20.037 -18.043  35.416  1.00  0.00    -0.269 OA
ENDBRANCH   1  27
BRANCH   5  30
HETATM   30  N3  UNL     1      16.518 -17.304  40.516  1.00  0.00    -0.375 N 
ATOM     31  H3  UNL     1      16.029 -16.457  40.808  1.00  0.00     0.161 HD
BRANCH  30  32
HETATM   32  C5  UNL     1      16.409 -18.444  41.379  1.00  0.00     0.121 C 
BRANCH  32  33
HETATM   33  C6  UNL     1      14.992 -18.738  41.828  1.00  0.00     0.020 C 
BRANCH  33  34
HETATM   34  C7  UNL     1      14.438 -20.021  41.311  1.00  0.00     0.006 C 
BRANCH  34  35
HETATM   35  C8  UNL     1      13.097 -19.895  40.662  1.00  0.00    -0.014 C 
HETATM   36  C9  UNL     1      13.131 -18.844  39.605  1.00  0.00     0.004 C 
HETATM   37  C10 UNL     1      13.854 -19.185  38.362  1.00  0.00     0.000 C 
HETATM   38  C11 UNL     1      13.909 -20.619  37.972  1.00  0.00     0.000 C 
HETATM   39  C12 UNL     1      12.567 -21.275  37.772  1.00  0.00     0.000 C 
HETATM   40  C13 UNL     1      11.663 -21.112  38.975  1.00  0.00     0.000 C 
HETATM   41  C14 UNL     1      12.513 -21.193  40.212  1.00  0.00     0.004 C 
ENDBRANCH  34  35
ENDBRANCH  33  34
ENDBRANCH  32  33
ENDBRANCH  30  32
ENDBRANCH   5  30
TORSDOF 12
ENDMDL
MODEL 5
REMARK VINA RESULT: -8.361014360      2.903      9.436
REMARK  12 active torsions:
REMARK  status: ('A' for Active; 'I' for Inactive)
REMARK    1  A    between atoms: C1_2  and  C2_4 
REMARK    2  A    between atoms: C4_8  and  N3_9 
REMARK    3  A    between atoms: N3_9  and  C5_11 
REMARK    4  A    between atoms: C5_11  and  C6_12 
REMARK    5  A    between atoms: C6_12  and  C7_13 
REMARK    6  A    between atoms: C7_13  and  C8_14 
REMARK    7  A    between atoms: C15_23  and  N5_24 
REMARK    8  A    between atoms: C18_27  and  C19_28 
REMARK    9  A    between atoms: C19_28  and  N6_29 
REMARK   10  A    between atoms: N6_29  and  C20_32 
REMARK   11  A    between atoms: C20_32  and  C21_33 
REMARK   12  A    between atoms: C21_33  and  N7_34 
ROOT
HETATM    1  C2  UNL     1      11.217 -21.533  36.935  1.00  0.00     0.142 A 
HETATM    2  N2  UNL     1      11.647 -21.508  38.235  1.00  0.00    -0.355 N 
ATOM      3  H2  UNL     1      10.997 -21.797  38.967  1.00  0.00     0.165 HD
HETATM    4  C3  UNL     1      12.878 -21.122  38.592  1.00  0.00     0.137 A 
HETATM    5  C4  UNL     1      13.760 -20.731  37.622  1.00  0.00     0.118 A 
HETATM    6  N4  UNL     1      13.342 -20.755  36.346  1.00  0.00    -0.326 N 
ATOM      7  H4  UNL     1      13.998 -20.465  35.621  1.00  0.00     0.169 HD
HETATM    8  C15 UNL     1      12.094 -21.145  35.963  1.00  0.00     0.137 A 
ENDROOT
BRANCH   8   9
HETATM    9  N5  UNL     1      11.764 -21.137  34.563  1.00  0.00    -0.365 N 
HETATM   10  C16 UNL     1      11.953 -22.304  33.734  1.00  0.00     0.125 C 
HETATM   11  C17 UNL     1      11.955 -21.988  32.267  1.00  0.00     0.026 C 
HETATM   12  C18 UNL     1      10.733 -21.232  31.840  1.00  0.00     0.014 C 
HETATM   13  C26 UNL     1      10.078 -20.526  33.006  1.00  0.00     0.026 C 
HETATM   14  C27 UNL     1      11.188 -19.965  33.926  1.00  0.00     0.125 C 
BRANCH  12  15
HETATM   15  C19 UNL     1       9.754 -22.145  31.128  1.00  0.00     0.237 C 
BRANCH  15  16
HETATM   16  N6  UNL     1       8.596 -22.426  31.923  1.00  0.00    -0.073 N 
ATOM     17  H62 UNL     1       8.735 -22.098  32.879  1.00  0.00     0.277 HD
ATOM     18  H61 UNL     1       7.820 -21.826  31.642  1.00  0.00     0.277 HD
BRANCH  16  19
HETATM   19  C20 UNL     1       8.188 -23.793  31.923  1.00  0.00     0.262 C 
BRANCH  19  20
HETATM   20  C21 UNL     1       7.001 -24.113  32.779  1.00  0.00     0.300 C 
BRANCH  20  21
HETATM   21  N7  UNL     1       7.183 -23.872  34.180  1.00  0.00     0.094 N 
HETATM   22  C22 UNL     1       6.256 -22.895  34.719  1.00  0.00     0.298 C 
HETATM   23  C23 UNL     1       4.847 -23.421  34.705  1.00  0.00     0.198 C 
HETATM   24  O2  UNL     1       4.787 -24.565  35.473  1.00  0.00    -0.388 OA
HETATM   25  C24 UNL     1       5.541 -25.563  34.892  1.00  0.00     0.198 C 
HETATM   26  C25 UNL     1       6.996 -25.157  34.867  1.00  0.00     0.298 C 
ENDBRANCH  20  21
ENDBRANCH  19  20
ENDBRANCH  16  19
ENDBRANCH  15  16
ENDBRANCH  12  15
ENDBRANCH   8   9
BRANCH   1  27
HETATM   27  C1  UNL     1       9.853 -21.962  36.649  1.00  0.00     0.285 C 
HETATM   28  N1  UNL     1       8.786 -20.997  36.624  1.00  0.00    -0.056 NA
HETATM   29  O1  UNL     1       9.569 -23.140  36.421  1.00  0.00    -0.269 OA
ENDBRANCH   1  27
BRANCH   5  30
HETATM   30  N3  UNL     1      14.946 -20.341  37.943  1.00  0.00    -0.375 N 
ATOM     31  H3  UNL     1      15.727 -20.843  37.519  1.00  0.00     0.161 HD
BRANCH  30  32
HETATM   32  C5  UNL     1      15.276 -19.270  38.838  1.00  0.00     0.121 C 
BRANCH  32  33
HETATM   33  C6  UNL     1      16.363 -18.352  38.319  1.00  0.00     0.020 C 
BRANCH  33  34
HETATM   34  C7  UNL     1      16.923 -18.749  36.997  1.00  0.00     0.006 C 
BRANCH  34  35
HETATM   35  C8  UNL     1      16.571 -17.822  35.877  1.00  0.00    -0.014 C 
HETATM   36  C9  UNL     1      17.445 -18.082  34.697  1.00  0.00     0.004 C 
HETATM   37  C10 UNL     1      17.174 -19.322  33.939  1.00  0.00     0.000 C 
HETATM   38  C11 UNL     1      15.780 -19.841  33.949  1.00  0.00     0.000 C 
HETATM   39  C12 UNL     1      14.743 -18.886  33.415  1.00  0.00     0.000 C 
HETATM   40  C13 UNL     1      14.788 -17.542  34.110  1.00  0.00     0.000 C 
HETATM   41  C14 UNL     1      15.113 -17.777  35.559  1.00  0.00     0.004 C 
ENDBRANCH  34  35
ENDBRANCH  33  34
ENDBRANCH  32  33
ENDBRANCH  30  32
ENDBRANCH   5  30
TORSDOF 12
ENDMDL
