MODEL 1
REMARK VINA RESULT: -6.110654102      0.000      0.000
REMARK  5 active torsions:
REMARK  status: ('A' for Active; 'I' for Inactive)
REMARK    1  A    between atoms: N1_2  and  C2_4 
REMARK    2  A    between atoms: C2_4  and  N2_6 
REMARK    3  A    between atoms: N2_6  and  C3_8 
REMARK    4  A    between atoms: C4_11  and  C5_12 
REMARK    5  A    between atoms: C8_16  and  C9_17 
ROOT
HETATM    1  C3  UNL     1      17.408  -3.444  52.324  1.00  0.00     0.151 A 
HETATM    2  N3  UNL     1      17.026  -2.277  51.837  1.00  0.00    -0.335 N 
ATOM      3  H3  UNL     1      17.006  -1.450  52.434  1.00  0.00     0.168 HD
HETATM    4  C4  UNL     1      16.670  -2.192  50.568  1.00  0.00     0.058 A 
HETATM    5  C12 UNL     1      16.723  -3.340  49.838  1.00  0.00     0.084 A 
HETATM    6  S3  UNL     1      17.284  -4.495  51.004  1.00  0.00    -0.063 SA
ENDROOT
BRANCH   4   7
HETATM    7  C5  UNL     1      16.177  -0.890  50.008  1.00  0.00     0.038 A 
HETATM    8  S2  UNL     1      17.230   0.405  49.521  1.00  0.00    -0.099 SA
HETATM    9  C6  UNL     1      16.069   1.563  49.105  1.00  0.00     0.051 A 
HETATM   10  C7  UNL     1      14.895   0.913  49.354  1.00  0.00     0.016 A 
HETATM   11  C8  UNL     1      14.961  -0.363  49.822  1.00  0.00    -0.035 A 
BRANCH  11  12
HETATM   12  C9  UNL     1      13.675  -1.141  50.047  1.00  0.00     0.012 C 
HETATM   13  C10 UNL     1      13.005  -0.705  51.358  1.00  0.00     0.015 C 
HETATM   14  C11 UNL     1      12.733  -0.835  48.890  1.00  0.00     0.015 C 
ENDBRANCH  11  12
ENDBRANCH   4   7
BRANCH   1  15
HETATM   15  N2  UNL     1      17.796  -3.708  53.561  1.00  0.00    -0.314 N 
ATOM     16  H2  UNL     1      18.708  -4.110  53.778  1.00  0.00     0.170 HD
BRANCH  15  17
HETATM   17  C2  UNL     1      16.843  -3.388  54.564  1.00  0.00     0.173 C 
HETATM   18  S1  UNL     1      15.482  -4.289  54.614  1.00  0.00    -0.041 SA
BRANCH  17  19
HETATM   19  N1  UNL     1      17.046  -2.336  55.492  1.00  0.00    -0.371 N 
HETATM   20  C1  UNL     1      16.651  -0.996  55.135  1.00  0.00     0.148 C 
ATOM     21  H1  UNL     1      17.467  -2.525  56.402  1.00  0.00     0.161 HD
ENDBRANCH  17  19
ENDBRANCH  15  17
ENDBRANCH   1  15
TORSDOF 5
ENDMDL
MODEL 2
REMARK VINA RESULT: -6.101293654      2.270      3.054
REMARK  5 active torsions:
REMARK  status: ('A' for Active; 'I' for Inactive)
REMARK    1  A    between atoms: N1_2  and  C2_4 
REMARK    2  A    between atoms: C2_4  and  N2_6 
REMARK    3  A    between atoms: N2_6  and  C3_8 
REMARK    4  A    between atoms: C4_11  and  C5_12 
REMARK    5  A    between atoms: C8_16  and  C9_17 
ROOT
HETATM    1  C3  UNL     1      17.289  -4.571  51.557  1.00  0.00     0.151 A 
HETATM    2  N3  UNL     1      16.857  -3.583  50.793  1.00  0.00    -0.335 N 
ATOM      3  H3  UNL     1      16.619  -3.753  49.816  1.00  0.00     0.168 HD
HETATM    4  C4  UNL     1      16.739  -2.373  51.308  1.00  0.00     0.058 A 
HETATM    5  C12 UNL     1      17.077  -2.228  52.618  1.00  0.00     0.084 A 
HETATM    6  S3  UNL     1      17.552  -3.837  53.059  1.00  0.00    -0.063 SA
ENDROOT
BRANCH   4   7
HETATM    7  C5  UNL     1      16.307  -1.225  50.444  1.00  0.00     0.038 A 
HETATM    8  S2  UNL     1      17.418  -0.101  49.717  1.00  0.00    -0.099 SA
HETATM    9  C6  UNL     1      16.310   0.957  48.998  1.00  0.00     0.051 A 
HETATM   10  C7  UNL     1      15.107   0.409  49.341  1.00  0.00     0.016 A 
HETATM   11  C8  UNL     1      15.116  -0.726  50.092  1.00  0.00    -0.035 A 
BRANCH  11  12
HETATM   12  C9  UNL     1      13.799  -1.401  50.436  1.00  0.00     0.012 C 
HETATM   13  C10 UNL     1      13.295  -0.929  51.809  1.00  0.00     0.015 C 
HETATM   14  C11 UNL     1      12.778  -1.007  49.378  1.00  0.00     0.015 C 
ENDBRANCH  11  12
ENDBRANCH   4   7
BRANCH   1  15
HETATM   15  N2  UNL     1      17.465  -5.835  51.210  1.00  0.00    -0.314 N 
ATOM     16  H2  UNL     1      17.850  -6.109  50.306  1.00  0.00     0.170 HD
BRANCH  15  17
HETATM   17  C2  UNL     1      17.074  -6.782  52.193  1.00  0.00     0.173 C 
HETATM   18  S1  UNL     1      15.474  -6.941  52.482  1.00  0.00    -0.041 SA
BRANCH  17  19
HETATM   19  N1  UNL     1      18.016  -7.566  52.905  1.00  0.00    -0.371 N 
HETATM   20  C1  UNL     1      18.383  -8.864  52.395  1.00  0.00     0.148 C 
ATOM     21  H1  UNL     1      18.430  -7.215  53.769  1.00  0.00     0.161 HD
ENDBRANCH  17  19
ENDBRANCH  15  17
ENDBRANCH   1  15
TORSDOF 5
ENDMDL
MODEL 3
REMARK VINA RESULT: -6.080248088      3.026      3.834
REMARK  5 active torsions:
REMARK  status: ('A' for Active; 'I' for Inactive)
REMARK    1  A    between atoms: N1_2  and  C2_4 
REMARK    2  A    between atoms: C2_4  and  N2_6 
REMARK    3  A    between atoms: N2_6  and  C3_8 
REMARK    4  A    between atoms: C4_11  and  C5_12 
REMARK    5  A    between atoms: C8_16  and  C9_17 
ROOT
HETATM    1  C3  UNL     1      12.739  -1.492  54.053  1.00  0.00     0.151 A 
HETATM    2  N3  UNL     1      13.658  -1.002  53.241  1.00  0.00    -0.335 N 
ATOM      3  H3  UNL     1      13.973  -0.037  53.339  1.00  0.00     0.168 HD
HETATM    4  C4  UNL     1      14.166  -1.776  52.300  1.00  0.00     0.058 A 
HETATM    5  C12 UNL     1      13.694  -3.051  52.232  1.00  0.00     0.084 A 
HETATM    6  S3  UNL     1      12.540  -3.088  53.526  1.00  0.00    -0.063 SA
ENDROOT
BRANCH   4   7
HETATM    7  C5  UNL     1      15.169  -1.225  51.328  1.00  0.00     0.038 A 
HETATM    8  S2  UNL     1      16.843  -1.694  51.308  1.00  0.00    -0.099 SA
HETATM    9  C6  UNL     1      17.405  -0.659  50.093  1.00  0.00     0.051 A 
HETATM   10  C7  UNL     1      16.278   0.022  49.734  1.00  0.00     0.016 A 
HETATM   11  C8  UNL     1      15.120  -0.280  50.381  1.00  0.00    -0.035 A 
BRANCH  11  12
HETATM   12  C9  UNL     1      13.831   0.409  49.963  1.00  0.00     0.012 C 
HETATM   13  C10 UNL     1      14.101   1.875  49.591  1.00  0.00     0.015 C 
HETATM   14  C11 UNL     1      13.287  -0.314  48.739  1.00  0.00     0.015 C 
ENDBRANCH  11  12
ENDBRANCH   4   7
BRANCH   1  15
HETATM   15  N2  UNL     1      12.129  -0.863  55.045  1.00  0.00    -0.314 N 
ATOM     16  H2  UNL     1      11.122  -0.701  55.057  1.00  0.00     0.170 HD
BRANCH  15  17
HETATM   17  C2  UNL     1      12.986  -0.430  56.091  1.00  0.00     0.173 C 
HETATM   18  S1  UNL     1      13.942  -1.557  56.787  1.00  0.00    -0.041 SA
BRANCH  17  19
HETATM   19  N1  UNL     1      13.024   0.917  56.528  1.00  0.00    -0.371 N 
HETATM   20  C1  UNL     1      13.832   1.265  57.672  1.00  0.00     0.148 C 
ATOM     21  H1  UNL     1      12.486   1.633  56.040  1.00  0.00     0.161 HD
ENDBRANCH  17  19
ENDBRANCH  15  17
ENDBRANCH   1  15
TORSDOF 5
ENDMDL
MODEL 4
REMARK VINA RESULT: -6.077452010      1.549      1.907
REMARK  5 active torsions:
REMARK  status: ('A' for Active; 'I' for Inactive)
REMARK    1  A    between atoms: N1_2  and  C2_4 
REMARK    2  A    between atoms: C2_4  and  N2_6 
REMARK    3  A    between atoms: N2_6  and  C3_8 
REMARK    4  A    between atoms: C4_11  and  C5_12 
REMARK    5  A    between atoms: C8_16  and  C9_17 
ROOT
HETATM    1  C3  UNL     1      16.468  -3.893  52.237  1.00  0.00     0.151 A 
HETATM    2  N3  UNL     1      16.184  -2.688  51.776  1.00  0.00    -0.335 N 
ATOM      3  H3  UNL     1      15.710  -2.007  52.370  1.00  0.00     0.168 HD
HETATM    4  C4  UNL     1      16.520  -2.375  50.539  1.00  0.00     0.058 A 
HETATM    5  C12 UNL     1      17.149  -3.338  49.811  1.00  0.00     0.084 A 
HETATM    6  S3  UNL     1      17.232  -4.656  50.935  1.00  0.00    -0.063 SA
ENDROOT
BRANCH   4   7
HETATM    7  C5  UNL     1      16.156  -1.032  49.975  1.00  0.00     0.038 A 
HETATM    8  S2  UNL     1      17.326   0.195  49.588  1.00  0.00    -0.099 SA
HETATM    9  C6  UNL     1      16.278   1.438  49.119  1.00  0.00     0.051 A 
HETATM   10  C7  UNL     1      15.047   0.866  49.274  1.00  0.00     0.016 A 
HETATM   11  C8  UNL     1      14.995  -0.419  49.718  1.00  0.00    -0.035 A 
BRANCH  11  12
HETATM   12  C9  UNL     1      13.647  -1.110  49.839  1.00  0.00     0.012 C 
HETATM   13  C10 UNL     1      12.937  -0.684  51.133  1.00  0.00     0.015 C 
HETATM   14  C11 UNL     1      12.794  -0.687  48.651  1.00  0.00     0.015 C 
ENDBRANCH  11  12
ENDBRANCH   4   7
BRANCH   1  15
HETATM   15  N2  UNL     1      16.207  -4.372  53.443  1.00  0.00    -0.314 N 
ATOM     16  H2  UNL     1      16.918  -4.817  54.024  1.00  0.00     0.170 HD
BRANCH  15  17
HETATM   17  C2  UNL     1      14.860  -4.219  53.865  1.00  0.00     0.173 C 
HETATM   18  S1  UNL     1      14.595  -3.320  55.203  1.00  0.00    -0.041 SA
BRANCH  17  19
HETATM   19  N1  UNL     1      13.778  -4.813  53.170  1.00  0.00    -0.371 N 
HETATM   20  C1  UNL     1      12.662  -3.992  52.768  1.00  0.00     0.148 C 
ATOM     21  H1  UNL     1      13.787  -5.811  52.956  1.00  0.00     0.161 HD
ENDBRANCH  17  19
ENDBRANCH  15  17
ENDBRANCH   1  15
TORSDOF 5
ENDMDL
MODEL 5
REMARK VINA RESULT: -5.998377738      3.807      4.777
REMARK  5 active torsions:
REMARK  status: ('A' for Active; 'I' for Inactive)
REMARK    1  A    between atoms: N1_2  and  C2_4 
REMARK    2  A    between atoms: C2_4  and  N2_6 
REMARK    3  A    between atoms: N2_6  and  C3_8 
REMARK    4  A    between atoms: C4_11  and  C5_12 
REMARK    5  A    between atoms: C8_16  and  C9_17 
ROOT
HETATM    1  C3  UNL     1      12.486  -2.319  54.105  1.00  0.00     0.151 A 
HETATM    2  N3  UNL     1      13.083  -2.317  52.926  1.00  0.00    -0.335 N 
ATOM      3  H3  UNL     1      12.610  -2.704  52.108  1.00  0.00     0.168 HD
HETATM    4  C4  UNL     1      14.297  -1.810  52.817  1.00  0.00     0.058 A 
HETATM    5  C12 UNL     1      14.859  -1.315  53.954  1.00  0.00     0.084 A 
HETATM    6  S3  UNL     1      13.620  -1.598  55.134  1.00  0.00    -0.063 SA
ENDROOT
BRANCH   4   7
HETATM    7  C5  UNL     1      15.016  -1.850  51.501  1.00  0.00     0.038 A 
HETATM    8  S2  UNL     1      16.354  -2.912  51.172  1.00  0.00    -0.099 SA
HETATM    9  C6  UNL     1      16.745  -2.388  49.611  1.00  0.00     0.051 A 
HETATM   10  C7  UNL     1      15.826  -1.403  49.387  1.00  0.00     0.016 A 
HETATM   11  C8  UNL     1      14.931  -1.132  50.375  1.00  0.00    -0.035 A 
BRANCH  11  12
HETATM   12  C9  UNL     1      13.851  -0.090  50.137  1.00  0.00     0.012 C 
HETATM   13  C10 UNL     1      14.480   1.261  49.762  1.00  0.00     0.015 C 
HETATM   14  C11 UNL     1      12.987  -0.566  48.977  1.00  0.00     0.015 C 
ENDBRANCH  11  12
ENDBRANCH   4   7
BRANCH   1  15
HETATM   15  N2  UNL     1      11.280  -2.781  54.392  1.00  0.00    -0.314 N 
ATOM     16  H2  UNL     1      10.873  -3.588  53.920  1.00  0.00     0.170 HD
BRANCH  15  17
HETATM   17  C2  UNL     1      10.597  -2.065  55.411  1.00  0.00     0.173 C 
HETATM   18  S1  UNL     1       9.980  -0.607  55.012  1.00  0.00    -0.041 SA
BRANCH  17  19
HETATM   19  N1  UNL     1      10.445  -2.577  56.723  1.00  0.00    -0.371 N 
HETATM   20  C1  UNL     1       9.203  -3.207  57.096  1.00  0.00     0.148 C 
ATOM     21  H1  UNL     1      11.207  -2.501  57.398  1.00  0.00     0.161 HD
ENDBRANCH  17  19
ENDBRANCH  15  17
ENDBRANCH   1  15
TORSDOF 5
ENDMDL
