MODEL 1
REMARK VINA RESULT: -7.032183600      0.000      0.000
REMARK  3 active torsions:
REMARK  status: ('A' for Active; 'I' for Inactive)
REMARK    1  A    between atoms: C12_12  and  O1_13 
REMARK    2  A    between atoms: C14_16  and  C16_18 
REMARK    3  A    between atoms: C17_19  and  C18_20 
ROOT
HETATM    1  C1  UNL     1      13.789  -2.715  51.755  1.00  0.00     0.011 C 
HETATM    2  C2  UNL     1      14.945  -1.948  52.228  1.00  0.00    -0.001 C 
HETATM    3  C3  UNL     1      16.313  -2.398  51.829  1.00  0.00     0.009 C 
HETATM    4  C4  UNL     1      16.709  -2.064  50.443  1.00  0.00    -0.043 C 
HETATM    5  C5  UNL     1      15.621  -2.162  49.403  1.00  0.00     0.015 C 
HETATM    6  C6  UNL     1      17.178  -0.598  50.386  1.00  0.00     0.015 C 
HETATM    7  C7  UNL     1      17.866  -2.878  49.931  1.00  0.00     0.009 C 
HETATM    8  C8  UNL     1      17.697  -4.348  50.060  1.00  0.00     0.002 C 
HETATM    9  C9  UNL     1      16.723  -4.778  51.117  1.00  0.00     0.012 C 
HETATM   10  C10 UNL     1      16.632  -3.802  52.270  1.00  0.00    -0.013 C 
HETATM   11  C11 UNL     1      18.006  -3.891  52.957  1.00  0.00     0.018 C 
HETATM   12  C12 UNL     1      15.639  -4.367  53.252  1.00  0.00     0.127 C 
HETATM   13  C13 UNL     1      15.106  -3.389  54.235  1.00  0.00     0.046 C 
HETATM   14  C14 UNL     1      14.931  -2.000  53.765  1.00  0.00    -0.020 C 
HETATM   15  C15 UNL     1      15.915  -1.020  54.335  1.00  0.00     0.020 C 
ENDROOT
BRANCH  14  16
HETATM   16  C16 UNL     1      13.569  -1.511  54.173  1.00  0.00    -0.010 C 
HETATM   17  C17 UNL     1      13.453  -0.556  55.075  1.00  0.00     0.081 C 
BRANCH  17  18
HETATM   18  C18 UNL     1      12.152  -0.061  55.488  1.00  0.00     0.198 C 
HETATM   19  O2  UNL     1      11.117  -0.776  55.489  1.00  0.00    -0.645 OA
HETATM   20  O3  UNL     1      12.015   1.254  55.906  1.00  0.00    -0.645 OA
ENDBRANCH  17  18
ENDBRANCH  14  16
BRANCH  12  21
HETATM   21  O1  UNL     1      16.310  -5.355  54.023  1.00  0.00    -0.395 OA
ATOM     22  H1  UNL     1      16.201  -6.188  53.581  1.00  0.00     0.210 HD
ENDBRANCH  12  21
TORSDOF 3
ENDMDL
MODEL 2
REMARK VINA RESULT: -6.904719656      1.608      3.253
REMARK  3 active torsions:
REMARK  status: ('A' for Active; 'I' for Inactive)
REMARK    1  A    between atoms: C12_12  and  O1_13 
REMARK    2  A    between atoms: C14_16  and  C16_18 
REMARK    3  A    between atoms: C17_19  and  C18_20 
ROOT
HETATM    1  C1  UNL     1      14.933  -3.297  55.028  1.00  0.00     0.011 C 
HETATM    2  C2  UNL     1      14.400  -3.667  53.713  1.00  0.00    -0.001 C 
HETATM    3  C3  UNL     1      15.329  -4.267  52.708  1.00  0.00     0.009 C 
HETATM    4  C4  UNL     1      15.667  -5.691  52.929  1.00  0.00    -0.043 C 
HETATM    5  C5  UNL     1      15.842  -6.113  54.366  1.00  0.00     0.015 C 
HETATM    6  C6  UNL     1      14.523  -6.574  52.394  1.00  0.00     0.015 C 
HETATM    7  C7  UNL     1      16.901  -6.141  52.197  1.00  0.00     0.009 C 
HETATM    8  C8  UNL     1      18.104  -5.302  52.432  1.00  0.00     0.002 C 
HETATM    9  C9  UNL     1      17.815  -3.901  52.881  1.00  0.00     0.012 C 
HETATM   10  C10 UNL     1      16.493  -3.374  52.364  1.00  0.00    -0.013 C 
HETATM   11  C11 UNL     1      16.696  -3.255  50.843  1.00  0.00     0.018 C 
HETATM   12  C12 UNL     1      16.345  -1.966  52.876  1.00  0.00     0.127 C 
HETATM   13  C13 UNL     1      14.963  -1.425  52.829  1.00  0.00     0.046 C 
HETATM   14  C14 UNL     1      13.864  -2.384  53.058  1.00  0.00    -0.020 C 
HETATM   15  C15 UNL     1      13.058  -2.713  51.835  1.00  0.00     0.020 C 
ENDROOT
BRANCH  14  16
HETATM   16  C16 UNL     1      12.898  -1.798  54.051  1.00  0.00    -0.010 C 
HETATM   17  C17 UNL     1      12.765  -0.489  54.150  1.00  0.00     0.081 C 
BRANCH  17  18
HETATM   18  C18 UNL     1      11.841   0.107  55.098  1.00  0.00     0.198 C 
HETATM   19  O2  UNL     1      10.722  -0.398  55.372  1.00  0.00    -0.645 OA
HETATM   20  O3  UNL     1      12.181   1.285  55.744  1.00  0.00    -0.645 OA
ENDBRANCH  17  18
ENDBRANCH  14  16
BRANCH  12  21
HETATM   21  O1  UNL     1      17.115  -1.118  52.034  1.00  0.00    -0.395 OA
ATOM     22  H1  UNL     1      16.513  -0.657  51.461  1.00  0.00     0.210 HD
ENDBRANCH  12  21
TORSDOF 3
ENDMDL
MODEL 3
REMARK VINA RESULT: -6.872975593      3.050      5.759
REMARK  3 active torsions:
REMARK  status: ('A' for Active; 'I' for Inactive)
REMARK    1  A    between atoms: C12_12  and  O1_13 
REMARK    2  A    between atoms: C14_16  and  C16_18 
REMARK    3  A    between atoms: C17_19  and  C18_20 
ROOT
HETATM    1  C1  UNL     1      14.563  -4.891  52.461  1.00  0.00     0.011 C 
HETATM    2  C2  UNL     1      15.338  -3.821  53.095  1.00  0.00    -0.001 C 
HETATM    3  C3  UNL     1      15.071  -2.408  52.690  1.00  0.00     0.009 C 
HETATM    4  C4  UNL     1      13.846  -1.806  53.262  1.00  0.00    -0.043 C 
HETATM    5  C5  UNL     1      12.656  -2.723  53.387  1.00  0.00     0.015 C 
HETATM    6  C6  UNL     1      14.135  -1.335  54.701  1.00  0.00     0.015 C 
HETATM    7  C7  UNL     1      13.370  -0.585  52.525  1.00  0.00     0.009 C 
HETATM    8  C8  UNL     1      13.197  -0.770  51.061  1.00  0.00     0.002 C 
HETATM    9  C9  UNL     1      13.997  -1.892  50.471  1.00  0.00     0.012 C 
HETATM   10  C10 UNL     1      15.286  -2.158  51.220  1.00  0.00    -0.013 C 
HETATM   11  C11 UNL     1      16.142  -0.904  50.969  1.00  0.00     0.018 C 
HETATM   12  C12 UNL     1      15.986  -3.288  50.512  1.00  0.00     0.127 C 
HETATM   13  C13 UNL     1      17.042  -3.965  51.305  1.00  0.00     0.046 C 
HETATM   14  C14 UNL     1      16.819  -4.068  52.761  1.00  0.00    -0.020 C 
HETATM   15  C15 UNL     1      17.702  -3.183  53.593  1.00  0.00     0.020 C 
ENDROOT
BRANCH  14  16
HETATM   16  C16 UNL     1      17.103  -5.477  53.204  1.00  0.00    -0.010 C 
HETATM   17  C17 UNL     1      17.652  -6.334  52.366  1.00  0.00     0.081 C 
BRANCH  17  18
HETATM   18  C18 UNL     1      17.938  -7.701  52.764  1.00  0.00     0.198 C 
HETATM   19  O2  UNL     1      18.083  -8.048  53.964  1.00  0.00    -0.645 OA
HETATM   20  O3  UNL     1      18.063  -8.688  51.799  1.00  0.00    -0.645 OA
ENDBRANCH  17  18
ENDBRANCH  14  16
BRANCH  12  21
HETATM   21  O1  UNL     1      16.651  -2.741  49.380  1.00  0.00    -0.395 OA
ATOM     22  H1  UNL     1      16.116  -2.030  49.048  1.00  0.00     0.210 HD
ENDBRANCH  12  21
TORSDOF 3
ENDMDL
MODEL 4
REMARK VINA RESULT: -6.725480996      2.923      5.223
REMARK  3 active torsions:
REMARK  status: ('A' for Active; 'I' for Inactive)
REMARK    1  A    between atoms: C12_12  and  O1_13 
REMARK    2  A    between atoms: C14_16  and  C16_18 
REMARK    3  A    between atoms: C17_19  and  C18_20 
ROOT
HETATM    1  C1  UNL     1      15.667  -1.118  53.535  1.00  0.00     0.011 C 
HETATM    2  C2  UNL     1      14.391  -1.333  52.847  1.00  0.00    -0.001 C 
HETATM    3  C3  UNL     1      13.499  -2.433  53.324  1.00  0.00     0.009 C 
HETATM    4  C4  UNL     1      12.739  -2.141  54.560  1.00  0.00    -0.043 C 
HETATM    5  C5  UNL     1      13.468  -1.342  55.610  1.00  0.00     0.015 C 
HETATM    6  C6  UNL     1      11.501  -1.294  54.208  1.00  0.00     0.015 C 
HETATM    7  C7  UNL     1      12.207  -3.368  55.248  1.00  0.00     0.009 C 
HETATM    8  C8  UNL     1      13.223  -4.416  55.524  1.00  0.00     0.002 C 
HETATM    9  C9  UNL     1      14.435  -4.362  54.644  1.00  0.00     0.012 C 
HETATM   10  C10 UNL     1      14.147  -3.792  53.272  1.00  0.00    -0.013 C 
HETATM   11  C11 UNL     1      13.236  -4.838  52.605  1.00  0.00     0.018 C 
HETATM   12  C12 UNL     1      15.440  -3.815  52.501  1.00  0.00     0.127 C 
HETATM   13  C13 UNL     1      15.469  -2.938  51.302  1.00  0.00     0.046 C 
HETATM   14  C14 UNL     1      14.711  -1.674  51.382  1.00  0.00    -0.020 C 
HETATM   15  C15 UNL     1      13.463  -1.640  50.548  1.00  0.00     0.020 C 
ENDROOT
BRANCH  14  16
HETATM   16  C16 UNL     1      15.576  -0.549  50.886  1.00  0.00    -0.010 C 
HETATM   17  C17 UNL     1      15.066   0.382  50.104  1.00  0.00     0.081 C 
BRANCH  17  18
HETATM   18  C18 UNL     1      15.875   1.481  49.610  1.00  0.00     0.198 C 
HETATM   19  O2  UNL     1      17.111   1.381  49.403  1.00  0.00    -0.645 OA
HETATM   20  O3  UNL     1      15.285   2.708  49.346  1.00  0.00    -0.645 OA
ENDBRANCH  17  18
ENDBRANCH  14  16
BRANCH  12  21
HETATM   21  O1  UNL     1      15.627  -5.136  52.011  1.00  0.00    -0.395 OA
ATOM     22  H1  UNL     1      16.510  -5.192  51.664  1.00  0.00     0.210 HD
ENDBRANCH  12  21
TORSDOF 3
ENDMDL
MODEL 5
REMARK VINA RESULT: -6.710713108      3.006      4.911
REMARK  3 active torsions:
REMARK  status: ('A' for Active; 'I' for Inactive)
REMARK    1  A    between atoms: C12_12  and  O1_13 
REMARK    2  A    between atoms: C14_16  and  C16_18 
REMARK    3  A    between atoms: C17_19  and  C18_20 
ROOT
HETATM    1  C1  UNL     1      14.316  -1.005  52.767  1.00  0.00     0.011 C 
HETATM    2  C2  UNL     1      14.672  -2.196  51.990  1.00  0.00    -0.001 C 
HETATM    3  C3  UNL     1      15.070  -3.435  52.723  1.00  0.00     0.009 C 
HETATM    4  C4  UNL     1      13.954  -4.204  53.318  1.00  0.00    -0.043 C 
HETATM    5  C5  UNL     1      12.829  -3.390  53.904  1.00  0.00     0.015 C 
HETATM    6  C6  UNL     1      13.291  -5.067  52.226  1.00  0.00     0.015 C 
HETATM    7  C7  UNL     1      14.387  -5.169  54.388  1.00  0.00     0.009 C 
HETATM    8  C8  UNL     1      15.211  -4.570  55.469  1.00  0.00     0.002 C 
HETATM    9  C9  UNL     1      15.925  -3.307  55.088  1.00  0.00     0.012 C 
HETATM   10  C10 UNL     1      16.268  -3.242  53.615  1.00  0.00    -0.013 C 
HETATM   11  C11 UNL     1      17.318  -4.350  53.416  1.00  0.00     0.018 C 
HETATM   12  C12 UNL     1      16.988  -1.940  53.385  1.00  0.00     0.127 C 
HETATM   13  C13 UNL     1      17.047  -1.500  51.967  1.00  0.00     0.046 C 
HETATM   14  C14 UNL     1      15.885  -1.830  51.118  1.00  0.00    -0.020 C 
HETATM   15  C15 UNL     1      16.141  -2.898  50.096  1.00  0.00     0.020 C 
ENDROOT
BRANCH  14  16
HETATM   16  C16 UNL     1      15.474  -0.605  50.349  1.00  0.00    -0.010 C 
HETATM   17  C17 UNL     1      16.385   0.259  49.947  1.00  0.00     0.081 C 
BRANCH  17  18
HETATM   18  C18 UNL     1      16.020   1.451  49.202  1.00  0.00     0.198 C 
HETATM   19  O2  UNL     1      16.673   1.864  48.210  1.00  0.00    -0.645 OA
HETATM   20  O3  UNL     1      14.907   2.186  49.579  1.00  0.00    -0.645 OA
ENDBRANCH  17  18
ENDBRANCH  14  16
BRANCH  12  21
HETATM   21  O1  UNL     1      18.341  -2.119  53.784  1.00  0.00    -0.395 OA
ATOM     22  H1  UNL     1      18.527  -3.050  53.762  1.00  0.00     0.210 HD
ENDBRANCH  12  21
TORSDOF 3
ENDMDL
