MODEL 1
REMARK VINA RESULT: -7.143055499      0.000      0.000
REMARK  3 active torsions:
REMARK  status: ('A' for Active; 'I' for Inactive)
REMARK    1  A    between atoms: N1_2  and  C2_4 
REMARK    2  A    between atoms: C4_6  and  C5_7 
REMARK    3  A    between atoms: C5_7  and  O1_8 
ROOT
HETATM    1  C2  UNL     1      13.157  -1.461  56.365  1.00  0.00     0.081 C 
HETATM    2  C3  UNL     1      11.950  -2.290  56.134  1.00  0.00     0.031 C 
HETATM    3  C4  UNL     1      11.174  -1.983  54.900  1.00  0.00     0.012 C 
HETATM    4  C6  UNL     1      11.705  -0.793  54.158  1.00  0.00     0.013 C 
HETATM    5  C7  UNL     1      13.195  -0.814  53.915  1.00  0.00     0.004 C 
HETATM    6  C8  UNL     1      13.951  -1.053  55.160  1.00  0.00     0.013 C 
HETATM    7  C9  UNL     1      15.181  -1.953  54.953  1.00  0.00     0.015 C 
HETATM    8  C10 UNL     1      15.922  -1.354  53.765  1.00  0.00     0.012 C 
HETATM    9  C11 UNL     1      17.260  -2.034  53.573  1.00  0.00     0.015 C 
HETATM   10  C12 UNL     1      15.088  -1.363  52.536  1.00  0.00    -0.064 C 
HETATM   11  C13 UNL     1      15.728  -1.225  51.392  1.00  0.00     0.054 C 
HETATM   12  C14 UNL     1      14.976  -1.225  50.158  1.00  0.00     0.149 C 
HETATM   13  O2  UNL     1      15.536  -1.298  49.031  1.00  0.00    -0.293 OA
HETATM   14  C15 UNL     1      13.518  -1.140  50.187  1.00  0.00     0.084 C 
HETATM   15  C16 UNL     1      12.950  -0.768  51.516  1.00  0.00     0.022 C 
HETATM   16  C17 UNL     1      13.627  -1.522  52.676  1.00  0.00    -0.016 C 
HETATM   17  C18 UNL     1      13.269  -2.933  52.490  1.00  0.00     0.020 C 
ENDROOT
BRANCH   1  18
HETATM   18  N1  UNL     1      13.949  -2.135  57.356  1.00  0.00    -0.421 N 
HETATM   19  C1  UNL     1      14.124  -1.460  58.588  1.00  0.00     0.140 C 
ATOM     20  H1  UNL     1      14.363  -3.051  57.182  1.00  0.00     0.153 HD
ENDBRANCH   1  18
BRANCH   3  21
HETATM   21  C5  UNL     1       9.699  -1.668  55.185  1.00  0.00     0.168 C 
BRANCH  21  22
HETATM   22  O1  UNL     1       9.481  -1.695  56.556  1.00  0.00    -0.400 OA
ATOM     23  H1  UNL     1      10.146  -1.172  56.991  1.00  0.00     0.209 HD
ENDBRANCH  21  22
ENDBRANCH   3  21
TORSDOF 3
ENDMDL
MODEL 2
REMARK VINA RESULT: -7.114789788      3.104      6.404
REMARK  3 active torsions:
REMARK  status: ('A' for Active; 'I' for Inactive)
REMARK    1  A    between atoms: N1_2  and  C2_4 
REMARK    2  A    between atoms: C4_6  and  C5_7 
REMARK    3  A    between atoms: C5_7  and  O1_8 
ROOT
HETATM    1  C2  UNL     1      16.706  -2.627  49.410  1.00  0.00     0.081 C 
HETATM    2  C3  UNL     1      17.255  -1.252  49.492  1.00  0.00     0.031 C 
HETATM    3  C4  UNL     1      16.376  -0.235  50.133  1.00  0.00     0.012 C 
HETATM    4  C6  UNL     1      15.022  -0.774  50.486  1.00  0.00     0.013 C 
HETATM    5  C7  UNL     1      15.041  -2.082  51.241  1.00  0.00     0.004 C 
HETATM    6  C8  UNL     1      15.864  -3.099  50.558  1.00  0.00     0.013 C 
HETATM    7  C9  UNL     1      16.664  -3.980  51.532  1.00  0.00     0.015 C 
HETATM    8  C10 UNL     1      15.655  -4.450  52.570  1.00  0.00     0.012 C 
HETATM    9  C11 UNL     1      16.274  -5.484  53.485  1.00  0.00     0.015 C 
HETATM   10  C12 UNL     1      15.056  -3.310  53.310  1.00  0.00    -0.064 C 
HETATM   11  C13 UNL     1      14.471  -3.596  54.456  1.00  0.00     0.054 C 
HETATM   12  C14 UNL     1      13.867  -2.532  55.226  1.00  0.00     0.149 C 
HETATM   13  O2  UNL     1      13.471  -2.703  56.410  1.00  0.00    -0.293 OA
HETATM   14  C15 UNL     1      13.698  -1.206  54.638  1.00  0.00     0.084 C 
HETATM   15  C16 UNL     1      13.915  -1.155  53.162  1.00  0.00     0.022 C 
HETATM   16  C17 UNL     1      15.154  -1.959  52.724  1.00  0.00    -0.016 C 
HETATM   17  C18 UNL     1      16.305  -1.256  53.303  1.00  0.00     0.020 C 
ENDROOT
BRANCH   1  18
HETATM   18  N1  UNL     1      17.807  -3.505  49.124  1.00  0.00    -0.421 N 
HETATM   19  C1  UNL     1      19.006  -2.890  48.694  1.00  0.00     0.140 C 
ATOM     20  H1  UNL     1      17.728  -4.517  49.226  1.00  0.00     0.153 HD
ENDBRANCH   1  18
BRANCH   3  21
HETATM   21  C5  UNL     1      16.115   0.980  49.233  1.00  0.00     0.168 C 
BRANCH  21  22
HETATM   22  O1  UNL     1      17.184   1.861  49.330  1.00  0.00    -0.400 OA
ATOM     23  H1  UNL     1      17.949   1.472  48.924  1.00  0.00     0.209 HD
ENDBRANCH  21  22
ENDBRANCH   3  21
TORSDOF 3
ENDMDL
MODEL 3
REMARK VINA RESULT: -7.047026451      2.659      3.978
REMARK  3 active torsions:
REMARK  status: ('A' for Active; 'I' for Inactive)
REMARK    1  A    between atoms: N1_2  and  C2_4 
REMARK    2  A    between atoms: C4_6  and  C5_7 
REMARK    3  A    between atoms: C5_7  and  O1_8 
ROOT
HETATM    1  C2  UNL     1      12.910  -1.976  54.087  1.00  0.00     0.081 C 
HETATM    2  C3  UNL     1      13.804  -2.116  55.261  1.00  0.00     0.031 C 
HETATM    3  C4  UNL     1      14.765  -3.254  55.218  1.00  0.00     0.012 C 
HETATM    4  C6  UNL     1      14.573  -4.134  54.020  1.00  0.00     0.013 C 
HETATM    5  C7  UNL     1      14.487  -3.398  52.704  1.00  0.00     0.004 C 
HETATM    6  C8  UNL     1      13.483  -2.317  52.744  1.00  0.00     0.013 C 
HETATM    7  C9  UNL     1      13.920  -1.061  51.972  1.00  0.00     0.015 C 
HETATM    8  C10 UNL     1      14.380  -1.565  50.611  1.00  0.00     0.012 C 
HETATM    9  C11 UNL     1      14.659  -0.407  49.679  1.00  0.00     0.015 C 
HETATM   10  C12 UNL     1      15.529  -2.500  50.731  1.00  0.00    -0.064 C 
HETATM   11  C13 UNL     1      16.237  -2.701  49.638  1.00  0.00     0.054 C 
HETATM   12  C14 UNL     1      17.369  -3.600  49.686  1.00  0.00     0.149 C 
HETATM   13  O2  UNL     1      18.199  -3.683  48.741  1.00  0.00    -0.293 OA
HETATM   14  C15 UNL     1      17.583  -4.449  50.854  1.00  0.00     0.084 C 
HETATM   15  C16 UNL     1      16.421  -4.511  51.790  1.00  0.00     0.022 C 
HETATM   16  C17 UNL     1      15.795  -3.127  52.041  1.00  0.00    -0.016 C 
HETATM   17  C18 UNL     1      16.818  -2.355  52.754  1.00  0.00     0.020 C 
ENDROOT
BRANCH   1  18
HETATM   18  N1  UNL     1      12.349  -0.654  54.138  1.00  0.00    -0.421 N 
HETATM   19  C1  UNL     1      12.228  -0.072  55.423  1.00  0.00     0.140 C 
ATOM     20  H1  UNL     1      12.056  -0.161  53.295  1.00  0.00     0.153 HD
ENDBRANCH   1  18
BRANCH   3  21
HETATM   21  C5  UNL     1      14.647  -4.181  56.435  1.00  0.00     0.168 C 
BRANCH  21  22
HETATM   22  O1  UNL     1      15.887  -4.747  56.703  1.00  0.00    -0.400 OA
ATOM     23  H1  UNL     1      15.768  -5.533  57.224  1.00  0.00     0.209 HD
ENDBRANCH  21  22
ENDBRANCH   3  21
TORSDOF 3
ENDMDL
MODEL 4
REMARK VINA RESULT: -6.929554630      3.599      5.219
REMARK  3 active torsions:
REMARK  status: ('A' for Active; 'I' for Inactive)
REMARK    1  A    between atoms: N1_2  and  C2_4 
REMARK    2  A    between atoms: C4_6  and  C5_7 
REMARK    3  A    between atoms: C5_7  and  O1_8 
ROOT
HETATM    1  C2  UNL     1      14.738  -5.002  52.924  1.00  0.00     0.081 C 
HETATM    2  C3  UNL     1      16.064  -5.117  53.576  1.00  0.00     0.031 C 
HETATM    3  C4  UNL     1      17.240  -4.770  52.730  1.00  0.00     0.012 C 
HETATM    4  C6  UNL     1      16.867  -4.468  51.309  1.00  0.00     0.013 C 
HETATM    5  C7  UNL     1      15.729  -3.488  51.151  1.00  0.00     0.004 C 
HETATM    6  C8  UNL     1      14.549  -3.882  51.945  1.00  0.00     0.013 C 
HETATM    7  C9  UNL     1      13.821  -2.684  52.577  1.00  0.00     0.015 C 
HETATM    8  C10 UNL     1      13.624  -1.689  51.443  1.00  0.00     0.012 C 
HETATM    9  C11 UNL     1      12.746  -0.540  51.888  1.00  0.00     0.015 C 
HETATM   10  C12 UNL     1      14.921  -1.239  50.875  1.00  0.00    -0.064 C 
HETATM   11  C13 UNL     1      14.897  -0.128  50.167  1.00  0.00     0.054 C 
HETATM   12  C14 UNL     1      16.125   0.366  49.585  1.00  0.00     0.149 C 
HETATM   13  O2  UNL     1      16.209   1.514  49.071  1.00  0.00    -0.293 OA
HETATM   14  C15 UNL     1      17.323  -0.470  49.581  1.00  0.00     0.084 C 
HETATM   15  C16 UNL     1      17.077  -1.899  49.936  1.00  0.00     0.022 C 
HETATM   16  C17 UNL     1      16.126  -2.050  51.138  1.00  0.00    -0.016 C 
HETATM   17  C18 UNL     1      16.850  -1.492  52.286  1.00  0.00     0.020 C 
ENDROOT
BRANCH   1  18
HETATM   18  N1  UNL     1      13.752  -5.005  53.970  1.00  0.00    -0.421 N 
HETATM   19  C1  UNL     1      14.161  -5.531  55.218  1.00  0.00     0.140 C 
ATOM     20  H1  UNL     1      12.809  -4.646  53.820  1.00  0.00     0.153 HD
ENDBRANCH   1  18
BRANCH   3  21
HETATM   21  C5  UNL     1      18.275  -5.901  52.653  1.00  0.00     0.168 C 
BRANCH  21  22
HETATM   22  O1  UNL     1      17.785  -7.017  53.319  1.00  0.00    -0.400 OA
ATOM     23  H1  UNL     1      18.495  -7.632  53.464  1.00  0.00     0.209 HD
ENDBRANCH  21  22
ENDBRANCH   3  21
TORSDOF 3
ENDMDL
MODEL 5
REMARK VINA RESULT: -6.928624502      2.115      2.699
REMARK  3 active torsions:
REMARK  status: ('A' for Active; 'I' for Inactive)
REMARK    1  A    between atoms: N1_2  and  C2_4 
REMARK    2  A    between atoms: C4_6  and  C5_7 
REMARK    3  A    between atoms: C5_7  and  O1_8 
ROOT
HETATM    1  C2  UNL     1      12.713  -3.376  55.747  1.00  0.00     0.081 C 
HETATM    2  C3  UNL     1      11.601  -2.491  55.325  1.00  0.00     0.031 C 
HETATM    3  C4  UNL     1      11.994  -1.250  54.602  1.00  0.00     0.012 C 
HETATM    4  C6  UNL     1      13.480  -1.062  54.529  1.00  0.00     0.013 C 
HETATM    5  C7  UNL     1      14.246  -2.275  54.056  1.00  0.00     0.004 C 
HETATM    6  C8  UNL     1      13.892  -3.483  54.827  1.00  0.00     0.013 C 
HETATM    7  C9  UNL     1      13.832  -4.752  53.961  1.00  0.00     0.015 C 
HETATM    8  C10 UNL     1      15.130  -4.760  53.168  1.00  0.00     0.012 C 
HETATM    9  C11 UNL     1      15.286  -6.062  52.412  1.00  0.00     0.015 C 
HETATM   10  C12 UNL     1      15.246  -3.567  52.291  1.00  0.00    -0.064 C 
HETATM   11  C13 UNL     1      16.117  -3.645  51.305  1.00  0.00     0.054 C 
HETATM   12  C14 UNL     1      16.279  -2.518  50.413  1.00  0.00     0.149 C 
HETATM   13  O2  UNL     1      16.940  -2.599  49.344  1.00  0.00    -0.293 OA
HETATM   14  C15 UNL     1      15.666  -1.233  50.738  1.00  0.00     0.084 C 
HETATM   15  C16 UNL     1      15.154  -1.131  52.137  1.00  0.00     0.022 C 
HETATM   16  C17 UNL     1      14.393  -2.396  52.577  1.00  0.00    -0.016 C 
HETATM   17  C18 UNL     1      13.193  -2.447  51.734  1.00  0.00     0.020 C 
ENDROOT
BRANCH   1  18
HETATM   18  N1  UNL     1      12.137  -4.653  56.070  1.00  0.00    -0.421 N 
HETATM   19  C1  UNL     1      10.897  -4.629  56.751  1.00  0.00     0.140 C 
ATOM     20  H1  UNL     1      12.597  -5.529  55.821  1.00  0.00     0.153 HD
ENDBRANCH   1  18
BRANCH   3  21
HETATM   21  C5  UNL     1      11.449   0.024  55.263  1.00  0.00     0.168 C 
BRANCH  21  22
HETATM   22  O1  UNL     1      12.448   0.989  55.293  1.00  0.00    -0.400 OA
ATOM     23  H1  UNL     1      13.288   0.576  55.127  1.00  0.00     0.209 HD
ENDBRANCH  21  22
ENDBRANCH   3  21
TORSDOF 3
ENDMDL
