MODEL 1
REMARK VINA RESULT: -7.227528514      0.000      0.000
REMARK  3 active torsions:
REMARK  status: ('A' for Active; 'I' for Inactive)
REMARK    1  A    between atoms: C3_3  and  C4_4 
REMARK    2  A    between atoms: C4_4  and  N1_5 
REMARK    3  A    between atoms: C6_12  and  C7_13 
ROOT
HETATM    1  N1  UNL     1      12.395  -1.197  54.124  1.00  0.00    -0.343 N 
ATOM      2  H1  UNL     1      11.482  -0.991  53.721  1.00  0.00     0.167 HD
HETATM    3  C5  UNL     1      13.404  -1.103  53.335  1.00  0.00     0.165 A 
HETATM    4  N2  UNL     1      14.707  -1.274  53.460  1.00  0.00    -0.279 N 
ATOM      5  H2  UNL     1      15.115  -1.454  54.377  1.00  0.00     0.189 HD
HETATM    6  N3  UNL     1      15.454  -1.212  52.430  1.00  0.00    -0.295 N 
ATOM      7  H3  UNL     1      16.459  -1.348  52.539  1.00  0.00     0.187 HD
HETATM    8  C6  UNL     1      14.974  -0.981  51.246  1.00  0.00     0.077 A 
HETATM    9  S1  UNL     1      13.298  -0.835  51.598  1.00  0.00    -0.037 SA
ENDROOT
BRANCH   1  10
HETATM   10  C4  UNL     1      12.416  -1.554  55.480  1.00  0.00     0.120 C 
BRANCH  10  11
HETATM   11  C3  UNL     1      11.106  -2.174  55.891  1.00  0.00     0.054 A 
HETATM   12  C2  UNL     1      10.931  -3.467  56.350  1.00  0.00    -0.026 A 
HETATM   13  C1  UNL     1      12.055  -4.450  56.399  1.00  0.00     0.051 C 
HETATM   14  C12 UNL     1       9.612  -3.617  56.684  1.00  0.00    -0.027 A 
HETATM   15  C11 UNL     1       8.996  -2.416  56.428  1.00  0.00     0.016 A 
HETATM   16  C13 UNL     1       8.626  -4.632  57.175  1.00  0.00     0.041 C 
HETATM   17  N4  UNL     1       9.931  -1.563  55.947  1.00  0.00    -0.358 N 
HETATM   18  C15 UNL     1       7.553  -2.526  56.802  1.00  0.00     0.058 C 
ATOM     19  H4  UNL     1       9.757  -0.598  55.669  1.00  0.00     0.166 HD
HETATM   20  C14 UNL     1       7.318  -4.032  56.664  1.00  0.00     0.011 C 
ENDBRANCH  10  11
ENDBRANCH   1  10
BRANCH   8  21
HETATM   21  C7  UNL     1      15.655  -0.920  49.915  1.00  0.00    -0.001 C 
HETATM   22  C8  UNL     1      16.712   0.161  49.914  1.00  0.00     0.021 C 
HETATM   23  C9  UNL     1      16.162  -2.289  49.585  1.00  0.00     0.021 C 
HETATM   24  C10 UNL     1      14.575  -0.494  48.925  1.00  0.00     0.021 C 
ENDBRANCH   8  21
TORSDOF 3
ENDMDL
MODEL 2
REMARK VINA RESULT: -7.094160754      4.248      7.357
REMARK  3 active torsions:
REMARK  status: ('A' for Active; 'I' for Inactive)
REMARK    1  A    between atoms: C3_3  and  C4_4 
REMARK    2  A    between atoms: C4_4  and  N1_5 
REMARK    3  A    between atoms: C6_12  and  C7_13 
ROOT
HETATM    1  N1  UNL     1      14.940  -2.181  54.910  1.00  0.00    -0.343 N 
ATOM      2  H1  UNL     1      14.071  -2.666  55.132  1.00  0.00     0.167 HD
HETATM    3  C5  UNL     1      15.295  -1.244  55.714  1.00  0.00     0.165 A 
HETATM    4  N2  UNL     1      16.316  -0.410  55.784  1.00  0.00    -0.279 N 
ATOM      5  H2  UNL     1      17.096  -0.499  55.133  1.00  0.00     0.189 HD
HETATM    6  N3  UNL     1      16.323   0.507  56.668  1.00  0.00    -0.295 N 
ATOM      7  H3  UNL     1      17.116   1.147  56.711  1.00  0.00     0.187 HD
HETATM    8  C6  UNL     1      15.351   0.651  57.517  1.00  0.00     0.077 A 
HETATM    9  S1  UNL     1      14.308  -0.627  57.034  1.00  0.00    -0.037 SA
ENDROOT
BRANCH   1  10
HETATM   10  C4  UNL     1      15.620  -2.608  53.760  1.00  0.00     0.120 C 
BRANCH  10  11
HETATM   11  C3  UNL     1      15.071  -1.932  52.531  1.00  0.00     0.054 A 
HETATM   12  C2  UNL     1      13.874  -2.234  51.907  1.00  0.00    -0.026 A 
HETATM   13  C1  UNL     1      13.012  -3.370  52.353  1.00  0.00     0.051 C 
HETATM   14  C12 UNL     1      13.707  -1.351  50.875  1.00  0.00    -0.027 A 
HETATM   15  C11 UNL     1      14.800  -0.518  50.879  1.00  0.00     0.016 A 
HETATM   16  C13 UNL     1      12.785  -1.021  49.741  1.00  0.00     0.041 C 
HETATM   17  N4  UNL     1      15.608  -0.900  51.896  1.00  0.00    -0.358 N 
HETATM   18  C15 UNL     1      14.647   0.482  49.779  1.00  0.00     0.058 C 
ATOM     19  H4  UNL     1      16.497  -0.460  52.136  1.00  0.00     0.166 HD
HETATM   20  C14 UNL     1      13.734  -0.271  48.809  1.00  0.00     0.011 C 
ENDBRANCH  10  11
ENDBRANCH   1  10
BRANCH   8  21
HETATM   21  C7  UNL     1      15.136   1.675  58.586  1.00  0.00    -0.001 C 
HETATM   22  C8  UNL     1      13.833   2.407  58.360  1.00  0.00     0.021 C 
HETATM   23  C9  UNL     1      15.248   0.995  59.915  1.00  0.00     0.021 C 
HETATM   24  C10 UNL     1      16.260   2.691  58.407  1.00  0.00     0.021 C 
ENDBRANCH   8  21
TORSDOF 3
ENDMDL
MODEL 3
REMARK VINA RESULT: -7.093666935      1.259      1.600
REMARK  3 active torsions:
REMARK  status: ('A' for Active; 'I' for Inactive)
REMARK    1  A    between atoms: C3_3  and  C4_4 
REMARK    2  A    between atoms: C4_4  and  N1_5 
REMARK    3  A    between atoms: C6_12  and  C7_13 
ROOT
HETATM    1  N1  UNL     1      13.064  -3.022  54.600  1.00  0.00    -0.343 N 
ATOM      2  H1  UNL     1      13.319  -3.994  54.426  1.00  0.00     0.167 HD
HETATM    3  C5  UNL     1      13.084  -2.233  53.587  1.00  0.00     0.165 A 
HETATM    4  N2  UNL     1      12.825  -0.953  53.394  1.00  0.00    -0.279 N 
ATOM      5  H2  UNL     1      12.443  -0.388  54.152  1.00  0.00     0.189 HD
HETATM    6  N3  UNL     1      13.053  -0.427  52.257  1.00  0.00    -0.295 N 
ATOM      7  H3  UNL     1      12.851   0.563  52.120  1.00  0.00     0.187 HD
HETATM    8  C6  UNL     1      13.535  -1.114  51.266  1.00  0.00     0.077 A 
HETATM    9  S1  UNL     1      13.692  -2.663  51.992  1.00  0.00    -0.037 SA
ENDROOT
BRANCH   1  10
HETATM   10  C4  UNL     1      12.731  -2.689  55.922  1.00  0.00     0.120 C 
BRANCH  10  11
HETATM   11  C3  UNL     1      11.277  -2.971  56.195  1.00  0.00     0.054 A 
HETATM   12  C2  UNL     1      10.750  -4.180  56.612  1.00  0.00    -0.026 A 
HETATM   13  C1  UNL     1      11.593  -5.406  56.752  1.00  0.00     0.051 C 
HETATM   14  C12 UNL     1       9.408  -4.003  56.816  1.00  0.00    -0.027 A 
HETATM   15  C11 UNL     1       9.129  -2.690  56.523  1.00  0.00     0.016 A 
HETATM   16  C13 UNL     1       8.163  -4.746  57.192  1.00  0.00     0.041 C 
HETATM   17  N4  UNL     1      10.285  -2.093  56.148  1.00  0.00    -0.358 N 
HETATM   18  C15 UNL     1       7.672  -2.444  56.756  1.00  0.00     0.058 C 
ATOM     19  H4  UNL     1      10.377  -1.116  55.872  1.00  0.00     0.166 HD
HETATM   20  C14 UNL     1       7.095  -3.850  56.570  1.00  0.00     0.011 C 
ENDBRANCH  10  11
ENDBRANCH   1  10
BRANCH   8  21
HETATM   21  C7  UNL     1      13.921  -0.689  49.884  1.00  0.00    -0.001 C 
HETATM   22  C8  UNL     1      15.201  -1.373  49.462  1.00  0.00     0.021 C 
HETATM   23  C9  UNL     1      12.755  -0.932  48.977  1.00  0.00     0.021 C 
HETATM   24  C10 UNL     1      14.220   0.803  49.986  1.00  0.00     0.021 C 
ENDBRANCH   8  21
TORSDOF 3
ENDMDL
MODEL 4
REMARK VINA RESULT: -7.055120332      1.458      2.047
REMARK  3 active torsions:
REMARK  status: ('A' for Active; 'I' for Inactive)
REMARK    1  A    between atoms: C3_3  and  C4_4 
REMARK    2  A    between atoms: C4_4  and  N1_5 
REMARK    3  A    between atoms: C6_12  and  C7_13 
ROOT
HETATM    1  N1  UNL     1      12.577  -2.814  54.496  1.00  0.00    -0.343 N 
ATOM      2  H1  UNL     1      12.687  -3.814  54.331  1.00  0.00     0.167 HD
HETATM    3  C5  UNL     1      12.774  -2.042  53.489  1.00  0.00     0.165 A 
HETATM    4  N2  UNL     1      12.728  -0.738  53.289  1.00  0.00    -0.279 N 
ATOM      5  H2  UNL     1      12.397  -0.117  54.028  1.00  0.00     0.189 HD
HETATM    6  N3  UNL     1      13.097  -0.258  52.169  1.00  0.00    -0.295 N 
ATOM      7  H3  UNL     1      13.059   0.752  52.026  1.00  0.00     0.187 HD
HETATM    8  C6  UNL     1      13.520  -1.015  51.202  1.00  0.00     0.077 A 
HETATM    9  S1  UNL     1      13.394  -2.567  51.928  1.00  0.00    -0.037 SA
ENDROOT
BRANCH   1  10
HETATM   10  C4  UNL     1      12.227  -2.429  55.799  1.00  0.00     0.120 C 
BRANCH  10  11
HETATM   11  C3  UNL     1      10.787  -2.762  56.089  1.00  0.00     0.054 A 
HETATM   12  C2  UNL     1       9.701  -1.940  55.848  1.00  0.00    -0.026 A 
HETATM   13  C1  UNL     1       9.861  -0.544  55.341  1.00  0.00     0.051 C 
HETATM   14  C12 UNL     1       8.570  -2.635  56.180  1.00  0.00    -0.027 A 
HETATM   15  C11 UNL     1       8.974  -3.873  56.618  1.00  0.00     0.016 A 
HETATM   16  C13 UNL     1       7.081  -2.492  56.274  1.00  0.00     0.041 C 
HETATM   17  N4  UNL     1      10.326  -3.916  56.551  1.00  0.00    -0.358 N 
HETATM   18  C15 UNL     1       7.764  -4.678  56.970  1.00  0.00     0.058 C 
ATOM     19  H4  UNL     1      10.901  -4.715  56.816  1.00  0.00     0.166 HD
HETATM   20  C14 UNL     1       6.753  -3.577  57.297  1.00  0.00     0.011 C 
ENDBRANCH  10  11
ENDBRANCH   1  10
BRANCH   8  21
HETATM   21  C7  UNL     1      14.042  -0.660  49.846  1.00  0.00    -0.001 C 
HETATM   22  C8  UNL     1      14.380   0.812  49.780  1.00  0.00     0.021 C 
HETATM   23  C9  UNL     1      15.183  -1.576  49.529  1.00  0.00     0.021 C 
HETATM   24  C10 UNL     1      12.880  -0.898  48.887  1.00  0.00     0.021 C 
ENDBRANCH   8  21
TORSDOF 3
ENDMDL
MODEL 5
REMARK VINA RESULT: -6.895588117      1.977      8.288
REMARK  3 active torsions:
REMARK  status: ('A' for Active; 'I' for Inactive)
REMARK    1  A    between atoms: C3_3  and  C4_4 
REMARK    2  A    between atoms: C4_4  and  N1_5 
REMARK    3  A    between atoms: C6_12  and  C7_13 
ROOT
HETATM    1  N1  UNL     1      12.887  -2.005  53.140  1.00  0.00    -0.343 N 
ATOM      2  H1  UNL     1      12.651  -1.014  53.100  1.00  0.00     0.167 HD
HETATM    3  C5  UNL     1      12.257  -2.710  54.009  1.00  0.00     0.165 A 
HETATM    4  N2  UNL     1      12.264  -3.982  54.363  1.00  0.00    -0.279 N 
ATOM      5  H2  UNL     1      12.813  -4.658  53.833  1.00  0.00     0.189 HD
HETATM    6  N3  UNL     1      11.582  -4.360  55.369  1.00  0.00    -0.295 N 
ATOM      7  H3  UNL     1      11.597  -5.345  55.635  1.00  0.00     0.187 HD
HETATM    8  C6  UNL     1      10.867  -3.531  56.067  1.00  0.00     0.077 A 
HETATM    9  S1  UNL     1      11.177  -2.059  55.236  1.00  0.00    -0.037 SA
ENDROOT
BRANCH   1  10
HETATM   10  C4  UNL     1      13.866  -2.452  52.240  1.00  0.00     0.120 C 
BRANCH  10  11
HETATM   11  C3  UNL     1      14.372  -1.317  51.389  1.00  0.00     0.054 A 
HETATM   12  C2  UNL     1      15.636  -1.220  50.837  1.00  0.00    -0.026 A 
HETATM   13  C1  UNL     1      16.704  -2.227  51.116  1.00  0.00     0.051 C 
HETATM   14  C12 UNL     1      15.673  -0.081  50.077  1.00  0.00    -0.027 A 
HETATM   15  C11 UNL     1      14.433   0.503  50.172  1.00  0.00     0.016 A 
HETATM   16  C13 UNL     1      16.596   0.749  49.240  1.00  0.00     0.041 C 
HETATM   17  N4  UNL     1      13.669  -0.272  50.976  1.00  0.00    -0.358 N 
HETATM   18  C15 UNL     1      14.420   1.742  49.335  1.00  0.00     0.058 C 
ATOM     19  H4  UNL     1      12.699  -0.080  51.227  1.00  0.00     0.166 HD
HETATM   20  C14 UNL     1      15.906   2.110  49.315  1.00  0.00     0.011 C 
ENDBRANCH  10  11
ENDBRANCH   1  10
BRANCH   8  21
HETATM   21  C7  UNL     1      10.044  -3.751  57.297  1.00  0.00    -0.001 C 
HETATM   22  C8  UNL     1      10.913  -3.670  58.532  1.00  0.00     0.021 C 
HETATM   23  C9  UNL     1       8.900  -2.786  57.274  1.00  0.00     0.021 C 
HETATM   24  C10 UNL     1       9.538  -5.186  57.196  1.00  0.00     0.021 C 
ENDBRANCH   8  21
TORSDOF 3
ENDMDL
