MODEL 1
REMARK VINA RESULT: -7.833768352      0.000      0.000
REMARK  3 active torsions:
REMARK  status: ('A' for Active; 'I' for Inactive)
REMARK    1  A    between atoms: C5_5  and  N1_7 
REMARK    2  A    between atoms: N1_7  and  C7_9 
REMARK    3  A    between atoms: C10_18  and  C11_19 
ROOT
HETATM    1  C7  UNL     1      15.167  -2.369  53.830  1.00  0.00     0.133 A 
HETATM    2  N2  UNL     1      16.160  -2.776  54.716  1.00  0.00    -0.337 N 
ATOM      3  H2  UNL     1      15.884  -3.232  55.586  1.00  0.00     0.168 HD
HETATM    4  C8  UNL     1      17.446  -2.593  54.473  1.00  0.00     0.183 A 
HETATM    5  N3  UNL     1      17.811  -1.993  53.328  1.00  0.00    -0.337 N 
ATOM      6  H3  UNL     1      18.803  -1.851  53.139  1.00  0.00     0.168 HD
HETATM    7  C9  UNL     1      16.908  -1.573  52.423  1.00  0.00     0.138 A 
HETATM    8  N4  UNL     1      16.990  -0.956  51.224  1.00  0.00    -0.330 N 
ATOM      9  H4  UNL     1      17.860  -0.683  50.766  1.00  0.00     0.168 HD
HETATM   10  C10 UNL     1      15.759  -0.754  50.721  1.00  0.00     0.087 A 
HETATM   11  N5  UNL     1      14.869  -1.244  51.601  1.00  0.00    -0.339 N 
ATOM     12  H5  UNL     1      13.854  -1.235  51.494  1.00  0.00     0.167 HD
HETATM   13  C16 UNL     1      15.554  -1.754  52.657  1.00  0.00     0.122 A 
ENDROOT
BRANCH   1  14
HETATM   14  N1  UNL     1      13.982  -2.576  54.137  1.00  0.00    -0.365 N 
ATOM     15  H1  UNL     1      13.572  -3.193  53.436  1.00  0.00     0.162 HD
BRANCH  14  16
HETATM   16  C5  UNL     1      13.017  -2.281  55.074  1.00  0.00     0.028 C 
HETATM   17  C4  UNL     1      11.988  -3.371  55.332  1.00  0.00     0.031 C 
HETATM   18  C3  UNL     1      10.849  -2.608  56.019  1.00  0.00     0.007 C 
HETATM   19  C2  UNL     1      10.811  -1.284  55.302  1.00  0.00    -0.016 C 
HETATM   20  C1  UNL     1       9.550  -1.222  54.441  1.00  0.00     0.010 C 
HETATM   21  C17 UNL     1      12.058  -1.207  54.479  1.00  0.00     0.034 C 
HETATM   22  C6  UNL     1      13.463  -1.709  56.394  1.00  0.00     0.038 C 
ENDBRANCH  14  16
ENDBRANCH   1  14
BRANCH  10  23
HETATM   23  C11 UNL     1      15.487  -0.094  49.411  1.00  0.00     0.053 C 
HETATM   24  C12 UNL     1      14.117   0.536  49.390  1.00  0.00     0.012 C 
HETATM   25  C13 UNL     1      14.320   2.007  49.711  1.00  0.00     0.001 C 
HETATM   26  C14 UNL     1      15.737   2.325  49.290  1.00  0.00     0.001 C 
HETATM   27  C15 UNL     1      16.479   1.037  49.204  1.00  0.00     0.012 C 
ENDBRANCH  10  23
TORSDOF 3
ENDMDL
MODEL 2
REMARK VINA RESULT: -7.767621521      0.716      1.232
REMARK  3 active torsions:
REMARK  status: ('A' for Active; 'I' for Inactive)
REMARK    1  A    between atoms: C5_5  and  N1_7 
REMARK    2  A    between atoms: N1_7  and  C7_9 
REMARK    3  A    between atoms: C10_18  and  C11_19 
ROOT
HETATM    1  C7  UNL     1      15.340  -2.797  53.664  1.00  0.00     0.133 A 
HETATM    2  N2  UNL     1      16.340  -3.119  54.576  1.00  0.00    -0.337 N 
ATOM      3  H2  UNL     1      16.091  -3.658  55.406  1.00  0.00     0.168 HD
HETATM    4  C8  UNL     1      17.599  -2.753  54.409  1.00  0.00     0.183 A 
HETATM    5  N3  UNL     1      17.928  -2.043  53.316  1.00  0.00    -0.337 N 
ATOM      6  H3  UNL     1      18.899  -1.759  53.185  1.00  0.00     0.168 HD
HETATM    7  C9  UNL     1      17.016  -1.695  52.390  1.00  0.00     0.138 A 
HETATM    8  N4  UNL     1      17.064  -1.004  51.230  1.00  0.00    -0.330 N 
ATOM      9  H4  UNL     1      17.908  -0.591  50.831  1.00  0.00     0.168 HD
HETATM   10  C10 UNL     1      15.841  -0.939  50.677  1.00  0.00     0.087 A 
HETATM   11  N5  UNL     1      14.988  -1.594  51.484  1.00  0.00    -0.339 N 
ATOM     12  H5  UNL     1      13.987  -1.713  51.327  1.00  0.00     0.167 HD
HETATM   13  C16 UNL     1      15.690  -2.068  52.546  1.00  0.00     0.122 A 
ENDROOT
BRANCH   1  14
HETATM   14  N1  UNL     1      14.182  -3.178  53.900  1.00  0.00    -0.365 N 
ATOM     15  H1  UNL     1      14.083  -4.133  53.558  1.00  0.00     0.162 HD
BRANCH  14  16
HETATM   16  C5  UNL     1      12.982  -2.787  54.452  1.00  0.00     0.028 C 
HETATM   17  C4  UNL     1      12.032  -2.050  53.522  1.00  0.00     0.031 C 
HETATM   18  C3  UNL     1      11.061  -1.371  54.495  1.00  0.00     0.007 C 
HETATM   19  C2  UNL     1      11.934  -0.948  55.647  1.00  0.00    -0.016 C 
HETATM   20  C1  UNL     1      12.066   0.575  55.635  1.00  0.00     0.010 C 
HETATM   21  C17 UNL     1      13.253  -1.628  55.458  1.00  0.00     0.034 C 
HETATM   22  C6  UNL     1      12.202  -3.805  55.241  1.00  0.00     0.038 C 
ENDBRANCH  14  16
ENDBRANCH   1  14
BRANCH  10  23
HETATM   23  C11 UNL     1      15.537  -0.246  49.391  1.00  0.00     0.053 C 
HETATM   24  C12 UNL     1      14.141   0.323  49.392  1.00  0.00     0.012 C 
HETATM   25  C13 UNL     1      14.278   1.789  49.765  1.00  0.00     0.001 C 
HETATM   26  C14 UNL     1      15.679   2.186  49.357  1.00  0.00     0.001 C 
HETATM   27  C15 UNL     1      16.477   0.936  49.225  1.00  0.00     0.012 C 
ENDBRANCH  10  23
TORSDOF 3
ENDMDL
MODEL 3
REMARK VINA RESULT: -7.637248832      0.808      1.547
REMARK  3 active torsions:
REMARK  status: ('A' for Active; 'I' for Inactive)
REMARK    1  A    between atoms: C5_5  and  N1_7 
REMARK    2  A    between atoms: N1_7  and  C7_9 
REMARK    3  A    between atoms: C10_18  and  C11_19 
ROOT
HETATM    1  C7  UNL     1      15.199  -1.749  54.270  1.00  0.00     0.133 A 
HETATM    2  N2  UNL     1      16.180  -2.270  55.107  1.00  0.00    -0.337 N 
ATOM      3  H2  UNL     1      15.922  -2.544  56.055  1.00  0.00     0.168 HD
HETATM    4  C8  UNL     1      17.435  -2.423  54.720  1.00  0.00     0.183 A 
HETATM    5  N3  UNL     1      17.777  -2.062  53.472  1.00  0.00    -0.337 N 
ATOM      6  H3  UNL     1      18.745  -2.179  53.171  1.00  0.00     0.168 HD
HETATM    7  C9  UNL     1      16.882  -1.552  52.605  1.00  0.00     0.138 A 
HETATM    8  N4  UNL     1      16.946  -1.117  51.328  1.00  0.00    -0.330 N 
ATOM      9  H4  UNL     1      17.791  -1.111  50.756  1.00  0.00     0.168 HD
HETATM   10  C10 UNL     1      15.737  -0.694  50.921  1.00  0.00     0.087 A 
HETATM   11  N5  UNL     1      14.878  -0.856  51.942  1.00  0.00    -0.339 N 
ATOM     12  H5  UNL     1      13.884  -0.623  51.931  1.00  0.00     0.167 HD
HETATM   13  C16 UNL     1      15.562  -1.384  52.991  1.00  0.00     0.122 A 
ENDROOT
BRANCH   1  14
HETATM   14  N1  UNL     1      14.044  -1.637  54.715  1.00  0.00    -0.365 N 
ATOM     15  H1  UNL     1      13.970  -0.738  55.189  1.00  0.00     0.162 HD
BRANCH  14  16
HETATM   16  C5  UNL     1      12.828  -2.277  54.804  1.00  0.00     0.028 C 
HETATM   17  C4  UNL     1      11.676  -1.441  55.337  1.00  0.00     0.031 C 
HETATM   18  C3  UNL     1      10.645  -2.501  55.745  1.00  0.00     0.007 C 
HETATM   19  C2  UNL     1      11.478  -3.619  56.316  1.00  0.00    -0.016 C 
HETATM   20  C1  UNL     1      11.265  -3.673  57.829  1.00  0.00     0.010 C 
HETATM   21  C17 UNL     1      12.900  -3.320  55.960  1.00  0.00     0.034 C 
HETATM   22  C6  UNL     1      12.351  -3.061  53.609  1.00  0.00     0.038 C 
ENDBRANCH  14  16
ENDBRANCH   1  14
BRANCH  10  23
HETATM   23  C11 UNL     1      15.454  -0.147  49.562  1.00  0.00     0.053 C 
HETATM   24  C12 UNL     1      14.128   0.568  49.525  1.00  0.00     0.012 C 
HETATM   25  C13 UNL     1      14.436   2.046  49.691  1.00  0.00     0.001 C 
HETATM   26  C14 UNL     1      15.852   2.228  49.193  1.00  0.00     0.001 C 
HETATM   27  C15 UNL     1      16.507   0.890  49.210  1.00  0.00     0.012 C 
ENDBRANCH  10  23
TORSDOF 3
ENDMDL
MODEL 4
REMARK VINA RESULT: -7.588270240      1.250      1.937
REMARK  3 active torsions:
REMARK  status: ('A' for Active; 'I' for Inactive)
REMARK    1  A    between atoms: C5_5  and  N1_7 
REMARK    2  A    between atoms: N1_7  and  C7_9 
REMARK    3  A    between atoms: C10_18  and  C11_19 
ROOT
HETATM    1  C7  UNL     1      15.169  -1.183  54.911  1.00  0.00     0.133 A 
HETATM    2  N2  UNL     1      15.790  -1.618  56.077  1.00  0.00    -0.337 N 
ATOM      3  H2  UNL     1      15.301  -1.504  56.966  1.00  0.00     0.168 HD
HETATM    4  C8  UNL     1      16.990  -2.173  56.079  1.00  0.00     0.183 A 
HETATM    5  N3  UNL     1      17.635  -2.324  54.910  1.00  0.00    -0.337 N 
ATOM      6  H3  UNL     1      18.561  -2.752  54.908  1.00  0.00     0.168 HD
HETATM    7  C9  UNL     1      17.098  -1.929  53.741  1.00  0.00     0.138 A 
HETATM    8  N4  UNL     1      17.510  -1.956  52.455  1.00  0.00    -0.330 N 
ATOM      9  H4  UNL     1      18.404  -2.331  52.137  1.00  0.00     0.168 HD
HETATM   10  C10 UNL     1      16.572  -1.420  51.655  1.00  0.00     0.087 A 
HETATM   11  N5  UNL     1      15.539  -1.041  52.428  1.00  0.00    -0.339 N 
ATOM     12  H5  UNL     1      14.678  -0.601  52.103  1.00  0.00     0.167 HD
HETATM   13  C16 UNL     1      15.841  -1.345  53.717  1.00  0.00     0.122 A 
ENDROOT
BRANCH   1  14
HETATM   14  N1  UNL     1      14.042  -0.670  55.000  1.00  0.00    -0.365 N 
ATOM     15  H1  UNL     1      14.129   0.209  55.510  1.00  0.00     0.162 HD
BRANCH  14  16
HETATM   16  C5  UNL     1      12.718  -0.848  54.665  1.00  0.00     0.028 C 
HETATM   17  C4  UNL     1      11.721   0.015  55.421  1.00  0.00     0.031 C 
HETATM   18  C3  UNL     1      10.392  -0.713  55.184  1.00  0.00     0.007 C 
HETATM   19  C2  UNL     1      10.761  -2.172  55.236  1.00  0.00    -0.016 C 
HETATM   20  C1  UNL     1      10.194  -2.782  56.518  1.00  0.00     0.010 C 
HETATM   21  C17 UNL     1      12.255  -2.238  55.194  1.00  0.00     0.034 C 
HETATM   22  C6  UNL     1      12.352  -0.852  53.204  1.00  0.00     0.038 C 
ENDBRANCH  14  16
ENDBRANCH   1  14
BRANCH  10  23
HETATM   23  C11 UNL     1      16.705  -1.292  50.175  1.00  0.00     0.053 C 
HETATM   24  C12 UNL     1      15.362  -1.369  49.496  1.00  0.00     0.012 C 
HETATM   25  C13 UNL     1      14.927   0.065  49.247  1.00  0.00     0.001 C 
HETATM   26  C14 UNL     1      16.202   0.873  49.178  1.00  0.00     0.001 C 
HETATM   27  C15 UNL     1      17.273   0.077  49.840  1.00  0.00     0.012 C 
ENDBRANCH  10  23
TORSDOF 3
ENDMDL
MODEL 5
REMARK VINA RESULT: -7.469552552      2.822      4.348
REMARK  3 active torsions:
REMARK  status: ('A' for Active; 'I' for Inactive)
REMARK    1  A    between atoms: C5_5  and  N1_7 
REMARK    2  A    between atoms: N1_7  and  C7_9 
REMARK    3  A    between atoms: C10_18  and  C11_19 
ROOT
HETATM    1  C7  UNL     1      13.737  -1.039  56.635  1.00  0.00     0.133 A 
HETATM    2  N2  UNL     1      13.674  -0.172  57.721  1.00  0.00    -0.337 N 
ATOM      3  H2  UNL     1      12.816  -0.137  58.272  1.00  0.00     0.168 HD
HETATM    4  C8  UNL     1      14.684   0.607  58.067  1.00  0.00     0.183 A 
HETATM    5  N3  UNL     1      15.815   0.562  57.343  1.00  0.00    -0.337 N 
ATOM      6  H3  UNL     1      16.596   1.162  57.607  1.00  0.00     0.168 HD
HETATM    7  C9  UNL     1      15.950  -0.253  56.279  1.00  0.00     0.138 A 
HETATM    8  N4  UNL     1      16.942  -0.496  55.396  1.00  0.00    -0.330 N 
ATOM      9  H4  UNL     1      17.856  -0.042  55.406  1.00  0.00     0.168 HD
HETATM   10  C10 UNL     1      16.553  -1.422  54.504  1.00  0.00     0.087 A 
HETATM   11  N5  UNL     1      15.295  -1.786  54.809  1.00  0.00    -0.339 N 
ATOM     12  H5  UNL     1      14.732  -2.474  54.308  1.00  0.00     0.167 HD
HETATM   13  C16 UNL     1      14.903  -1.078  55.900  1.00  0.00     0.122 A 
ENDROOT
BRANCH   1  14
HETATM   14  N1  UNL     1      12.740  -1.735  56.378  1.00  0.00    -0.365 N 
ATOM     15  H1  UNL     1      12.746  -2.545  56.997  1.00  0.00     0.162 HD
BRANCH  14  16
HETATM   16  C5  UNL     1      11.630  -1.816  55.567  1.00  0.00     0.028 C 
HETATM   17  C4  UNL     1      10.842  -0.528  55.390  1.00  0.00     0.031 C 
HETATM   18  C3  UNL     1       9.490  -1.025  54.863  1.00  0.00     0.007 C 
HETATM   19  C2  UNL     1       9.249  -2.302  55.624  1.00  0.00    -0.016 C 
HETATM   20  C1  UNL     1       8.115  -2.076  56.624  1.00  0.00     0.010 C 
HETATM   21  C17 UNL     1      10.536  -2.646  56.303  1.00  0.00     0.034 C 
HETATM   22  C6  UNL     1      11.781  -2.484  54.225  1.00  0.00     0.038 C 
ENDBRANCH  14  16
ENDBRANCH   1  14
BRANCH  10  23
HETATM   23  C11 UNL     1      17.407  -1.923  53.387  1.00  0.00     0.053 C 
HETATM   24  C12 UNL     1      18.154  -3.170  53.787  1.00  0.00     0.012 C 
HETATM   25  C13 UNL     1      17.347  -4.340  53.251  1.00  0.00     0.001 C 
HETATM   26  C14 UNL     1      16.569  -3.796  52.076  1.00  0.00     0.001 C 
HETATM   27  C15 UNL     1      16.522  -2.315  52.217  1.00  0.00     0.012 C 
ENDBRANCH  10  23
TORSDOF 3
ENDMDL
