MODEL 1
REMARK VINA RESULT: -7.363426205      0.000      0.000
REMARK  17 active torsions:
REMARK  status: ('A' for Active; 'I' for Inactive)
REMARK    1  A    between atoms: C2_2  and  C4_4 
REMARK    2  A    between atoms: C4_4  and  C5_5 
REMARK    3  A    between atoms: C4_4  and  N4_25 
REMARK    4  A    between atoms: C5_5  and  O1_6 
REMARK    5  A    between atoms: C5_5  and  N1_8 
REMARK    6  A    between atoms: N1_8  and  C6_10 
REMARK    7  A    between atoms: C6_10  and  C7_11 
REMARK    8  A    between atoms: C6_10  and  C12_21 
REMARK    9  A    between atoms: C7_11  and  C8_12 
REMARK   10  A    between atoms: C8_12  and  C9_13 
REMARK   11  A    between atoms: C9_13  and  N2_14 
REMARK   12  A    between atoms: N2_14  and  C10_16 
REMARK   13  A    between atoms: C12_21  and  O3_23 
REMARK   14  A    between atoms: C15_28  and  C16_29 
REMARK       I    between atoms: N5_32  and  C19_33 
REMARK   15  A    between atoms: C19_33  and  O6_35 
REMARK   16  A    between atoms: O6_35  and  C20_36 
REMARK   17  A    between atoms: C23_39  and  C24_40 
ROOT
HETATM    1  C4  UNL     1      18.389  40.797  -9.068  1.00  0.00     0.198 C 
ENDROOT
BRANCH   1   2
HETATM    2  C2  UNL     1      19.783  40.637  -8.677  1.00  0.00    -0.062 C 
HETATM    3  C1  UNL     1      20.855  40.584  -9.442  1.00  0.00     0.016 C 
HETATM    4  C3  UNL     1      20.062  40.473  -7.185  1.00  0.00     0.045 C 
ENDBRANCH   1   2
BRANCH   1   5
HETATM    5  C5  UNL     1      17.904  42.096  -9.486  1.00  0.00     0.140 C 
BRANCH   5   6
HETATM    6  O1  UNL     1      16.662  42.354  -9.184  1.00  0.00    -0.348 OA
ATOM      7  H1  UNL     1      16.309  43.154  -9.556  1.00  0.00     0.219 HD
ENDBRANCH   5   6
BRANCH   5   8
HETATM    8  N1  UNL     1      18.546  43.121 -10.166  1.00  0.00    -0.359 N 
ATOM      9  H1  UNL     1      18.427  43.186 -11.177  1.00  0.00     0.162 HD
BRANCH   8  10
HETATM   10  C6  UNL     1      19.389  44.115  -9.496  1.00  0.00     0.183 C 
BRANCH  10  11
HETATM   11  C7  UNL     1      20.784  44.105 -10.114  1.00  0.00     0.037 C 
BRANCH  11  12
HETATM   12  C8  UNL     1      21.312  45.495 -10.383  1.00  0.00     0.022 C 
BRANCH  12  13
HETATM   13  C9  UNL     1      22.671  45.698  -9.756  1.00  0.00     0.121 C 
BRANCH  13  14
HETATM   14  N2  UNL     1      22.616  45.911  -8.346  1.00  0.00    -0.380 N 
ATOM     15  H2  UNL     1      22.934  45.154  -7.741  1.00  0.00     0.160 HD
BRANCH  14  16
HETATM   16  C10 UNL     1      22.152  47.098  -7.724  1.00  0.00     0.066 C 
HETATM   17  C11 UNL     1      22.989  48.332  -7.763  1.00  0.00     0.088 C 
HETATM   18  N3  UNL     1      21.018  47.168  -7.115  1.00  0.00    -0.389 N 
ATOM     19  H32 UNL     1      20.445  46.324  -7.089  1.00  0.00     0.157 HD
ATOM     20  H31 UNL     1      20.684  48.022  -6.668  1.00  0.00     0.157 HD
ENDBRANCH  14  16
ENDBRANCH  13  14
ENDBRANCH  12  13
ENDBRANCH  11  12
ENDBRANCH  10  11
BRANCH  10  21
HETATM   21  C12 UNL     1      19.387  43.986  -8.035  1.00  0.00     0.281 C 
HETATM   22  O2  UNL     1      18.315  43.910  -7.358  1.00  0.00    -0.263 OA
BRANCH  21  23
HETATM   23  O3  UNL     1      20.569  43.937  -7.308  1.00  0.00    -0.325 OA
HETATM   24  C13 UNL     1      20.499  43.871  -5.901  1.00  0.00     0.213 C 
ENDBRANCH  21  23
ENDBRANCH  10  21
ENDBRANCH   8  10
ENDBRANCH   5   8
ENDBRANCH   1   5
BRANCH   1  25
HETATM   25  N4  UNL     1      17.891  39.773 -10.016  1.00  0.00    -0.265 N 
HETATM   26  C14 UNL     1      18.009  40.024 -11.407  1.00  0.00     0.274 C 
HETATM   27  O4  UNL     1      18.530  41.079 -11.809  1.00  0.00    -0.266 OA
HETATM   28  C15 UNL     1      17.516  39.056 -12.373  1.00  0.00     0.089 C 
HETATM   29  N5  UNL     1      16.470  38.175 -11.826  1.00  0.00    -0.277 N 
HETATM   30  C19 UNL     1      15.502  37.770 -12.773  1.00  0.00     0.368 C 
HETATM   31  C23 UNL     1      16.383  37.806 -10.458  1.00  0.00     0.191 C 
HETATM   32  O5  UNL     1      14.515  37.032 -12.603  1.00  0.00    -0.238 OA
HETATM   33  C27 UNL     1      17.304  38.573  -9.567  1.00  0.00     0.251 C 
HETATM   34  O7  UNL     1      17.532  38.121  -8.426  1.00  0.00    -0.271 OA
BRANCH  28  35
HETATM   35  C16 UNL     1      18.473  38.436 -13.304  1.00  0.00     0.033 C 
HETATM   36  C17 UNL     1      19.352  37.347 -12.795  1.00  0.00     0.016 C 
HETATM   37  C18 UNL     1      19.389  39.444 -13.984  1.00  0.00     0.016 C 
ENDBRANCH  28  35
BRANCH  30  38
HETATM   38  O6  UNL     1      15.570  38.211 -14.127  1.00  0.00    -0.299 OA
BRANCH  38  39
HETATM   39  C20 UNL     1      15.235  37.401 -15.211  1.00  0.00     0.125 C 
HETATM   40  C21 UNL     1      16.418  36.722 -15.844  1.00  0.00     0.040 C 
HETATM   41  C22 UNL     1      14.612  38.305 -16.279  1.00  0.00     0.040 C 
ENDBRANCH  38  39
ENDBRANCH  30  38
BRANCH  31  42
HETATM   42  C24 UNL     1      16.394  36.403 -10.017  1.00  0.00     0.010 C 
HETATM   43  C25 UNL     1      16.839  35.363 -10.987  1.00  0.00     0.012 C 
HETATM   44  C26 UNL     1      15.280  35.876  -9.182  1.00  0.00     0.012 C 
ENDBRANCH  31  42
ENDBRANCH   1  25
TORSDOF 17
ENDMDL
MODEL 2
REMARK VINA RESULT: -7.357003794      1.943      3.993
REMARK  17 active torsions:
REMARK  status: ('A' for Active; 'I' for Inactive)
REMARK    1  A    between atoms: C2_2  and  C4_4 
REMARK    2  A    between atoms: C4_4  and  C5_5 
REMARK    3  A    between atoms: C4_4  and  N4_25 
REMARK    4  A    between atoms: C5_5  and  O1_6 
REMARK    5  A    between atoms: C5_5  and  N1_8 
REMARK    6  A    between atoms: N1_8  and  C6_10 
REMARK    7  A    between atoms: C6_10  and  C7_11 
REMARK    8  A    between atoms: C6_10  and  C12_21 
REMARK    9  A    between atoms: C7_11  and  C8_12 
REMARK   10  A    between atoms: C8_12  and  C9_13 
REMARK   11  A    between atoms: C9_13  and  N2_14 
REMARK   12  A    between atoms: N2_14  and  C10_16 
REMARK   13  A    between atoms: C12_21  and  O3_23 
REMARK   14  A    between atoms: C15_28  and  C16_29 
REMARK       I    between atoms: N5_32  and  C19_33 
REMARK   15  A    between atoms: C19_33  and  O6_35 
REMARK   16  A    between atoms: O6_35  and  C20_36 
REMARK   17  A    between atoms: C23_39  and  C24_40 
ROOT
HETATM    1  C4  UNL     1      18.936  40.242 -10.981  1.00  0.00     0.198 C 
ENDROOT
BRANCH   1   2
HETATM    2  C2  UNL     1      19.662  40.682 -12.164  1.00  0.00    -0.062 C 
HETATM    3  C1  UNL     1      19.770  41.896 -12.664  1.00  0.00     0.016 C 
HETATM    4  C3  UNL     1      20.375  39.600 -12.972  1.00  0.00     0.045 C 
ENDBRANCH   1   2
BRANCH   1   5
HETATM    5  C5  UNL     1      18.255  41.215 -10.151  1.00  0.00     0.140 C 
BRANCH   5   6
HETATM    6  O1  UNL     1      17.250  41.826 -10.714  1.00  0.00    -0.348 OA
ATOM      7  H1  UNL     1      16.397  41.638 -10.340  1.00  0.00     0.219 HD
ENDBRANCH   5   6
BRANCH   5   8
HETATM    8  N1  UNL     1      18.499  41.611  -8.843  1.00  0.00    -0.359 N 
ATOM      9  H1  UNL     1      17.805  41.391  -8.130  1.00  0.00     0.162 HD
BRANCH   8  10
HETATM   10  C6  UNL     1      19.712  42.331  -8.443  1.00  0.00     0.183 C 
BRANCH  10  11
HETATM   11  C7  UNL     1      20.188  43.211  -9.595  1.00  0.00     0.037 C 
BRANCH  11  12
HETATM   12  C8  UNL     1      19.829  44.667  -9.403  1.00  0.00     0.022 C 
BRANCH  12  13
HETATM   13  C9  UNL     1      20.961  45.433  -8.760  1.00  0.00     0.121 C 
BRANCH  13  14
HETATM   14  N2  UNL     1      20.689  45.819  -7.414  1.00  0.00    -0.380 N 
ATOM     15  H2  UNL     1      20.128  46.658  -7.268  1.00  0.00     0.160 HD
BRANCH  14  16
HETATM   16  C10 UNL     1      21.141  45.122  -6.264  1.00  0.00     0.066 C 
HETATM   17  C11 UNL     1      20.363  45.203  -4.994  1.00  0.00     0.088 C 
HETATM   18  N3  UNL     1      22.212  44.404  -6.261  1.00  0.00    -0.389 N 
ATOM     19  H32 UNL     1      22.744  44.349  -7.129  1.00  0.00     0.157 HD
ATOM     20  H31 UNL     1      22.537  43.903  -5.434  1.00  0.00     0.157 HD
ENDBRANCH  14  16
ENDBRANCH  13  14
ENDBRANCH  12  13
ENDBRANCH  11  12
ENDBRANCH  10  11
BRANCH  10  21
HETATM   21  C12 UNL     1      20.752  41.455  -7.896  1.00  0.00     0.281 C 
HETATM   22  O2  UNL     1      21.405  40.637  -8.616  1.00  0.00    -0.263 OA
BRANCH  21  23
HETATM   23  O3  UNL     1      21.084  41.475  -6.548  1.00  0.00    -0.325 OA
HETATM   24  C13 UNL     1      20.048  41.561  -5.595  1.00  0.00     0.213 C 
ENDBRANCH  21  23
ENDBRANCH  10  21
ENDBRANCH   8  10
ENDBRANCH   5   8
ENDBRANCH   1   5
BRANCH   1  25
HETATM   25  N4  UNL     1      18.033  39.088 -11.202  1.00  0.00    -0.265 N 
HETATM   26  C14 UNL     1      18.054  38.023 -10.266  1.00  0.00     0.274 C 
HETATM   27  O4  UNL     1      18.809  38.073  -9.280  1.00  0.00    -0.266 OA
HETATM   28  C15 UNL     1      17.200  36.862 -10.455  1.00  0.00     0.089 C 
HETATM   29  N5  UNL     1      16.804  36.658 -11.858  1.00  0.00    -0.277 N 
HETATM   30  C19 UNL     1      16.639  35.301 -12.221  1.00  0.00     0.368 C 
HETATM   31  C23 UNL     1      16.660  37.710 -12.800  1.00  0.00     0.191 C 
HETATM   32  O5  UNL     1      16.309  34.830 -13.324  1.00  0.00    -0.238 OA
HETATM   33  C27 UNL     1      17.171  39.027 -12.316  1.00  0.00     0.251 C 
HETATM   34  O7  UNL     1      16.814  40.058 -12.923  1.00  0.00    -0.271 OA
BRANCH  28  35
HETATM   35  C16 UNL     1      16.180  36.562  -9.436  1.00  0.00     0.033 C 
HETATM   36  C17 UNL     1      15.567  37.697  -8.692  1.00  0.00     0.016 C 
HETATM   37  C18 UNL     1      16.653  35.567  -8.386  1.00  0.00     0.016 C 
ENDBRANCH  28  35
BRANCH  30  38
HETATM   38  O6  UNL     1      16.858  34.257 -11.276  1.00  0.00    -0.299 OA
BRANCH  38  39
HETATM   39  C20 UNL     1      16.095  33.090 -11.237  1.00  0.00     0.125 C 
HETATM   40  C21 UNL     1      15.254  32.961  -9.997  1.00  0.00     0.040 C 
HETATM   41  C22 UNL     1      17.071  31.909 -11.243  1.00  0.00     0.040 C 
ENDBRANCH  38  39
ENDBRANCH  30  38
BRANCH  31  42
HETATM   42  C24 UNL     1      15.404  37.953 -13.525  1.00  0.00     0.010 C 
HETATM   43  C25 UNL     1      14.119  37.675 -12.823  1.00  0.00     0.012 C 
HETATM   44  C26 UNL     1      15.288  37.581 -14.961  1.00  0.00     0.012 C 
ENDBRANCH  31  42
ENDBRANCH   1  25
TORSDOF 17
ENDMDL
MODEL 3
REMARK VINA RESULT: -7.331648159      1.933      3.969
REMARK  17 active torsions:
REMARK  status: ('A' for Active; 'I' for Inactive)
REMARK    1  A    between atoms: C2_2  and  C4_4 
REMARK    2  A    between atoms: C4_4  and  C5_5 
REMARK    3  A    between atoms: C4_4  and  N4_25 
REMARK    4  A    between atoms: C5_5  and  O1_6 
REMARK    5  A    between atoms: C5_5  and  N1_8 
REMARK    6  A    between atoms: N1_8  and  C6_10 
REMARK    7  A    between atoms: C6_10  and  C7_11 
REMARK    8  A    between atoms: C6_10  and  C12_21 
REMARK    9  A    between atoms: C7_11  and  C8_12 
REMARK   10  A    between atoms: C8_12  and  C9_13 
REMARK   11  A    between atoms: C9_13  and  N2_14 
REMARK   12  A    between atoms: N2_14  and  C10_16 
REMARK   13  A    between atoms: C12_21  and  O3_23 
REMARK   14  A    between atoms: C15_28  and  C16_29 
REMARK       I    between atoms: N5_32  and  C19_33 
REMARK   15  A    between atoms: C19_33  and  O6_35 
REMARK   16  A    between atoms: O6_35  and  C20_36 
REMARK   17  A    between atoms: C23_39  and  C24_40 
ROOT
HETATM    1  C4  UNL     1      18.924  40.184 -11.000  1.00  0.00     0.198 C 
ENDROOT
BRANCH   1   2
HETATM    2  C2  UNL     1      19.654  40.614 -12.184  1.00  0.00    -0.062 C 
HETATM    3  C1  UNL     1      19.823  41.833 -12.655  1.00  0.00     0.016 C 
HETATM    4  C3  UNL     1      20.291  39.515 -13.033  1.00  0.00     0.045 C 
ENDBRANCH   1   2
BRANCH   1   5
HETATM    5  C5  UNL     1      18.249  41.165 -10.175  1.00  0.00     0.140 C 
BRANCH   5   6
HETATM    6  O1  UNL     1      17.274  41.808 -10.755  1.00  0.00    -0.348 OA
ATOM      7  H1  UNL     1      17.274  41.779 -11.704  1.00  0.00     0.219 HD
ENDBRANCH   5   6
BRANCH   5   8
HETATM    8  N1  UNL     1      18.472  41.540  -8.857  1.00  0.00    -0.359 N 
ATOM      9  H1  UNL     1      17.771  41.299  -8.157  1.00  0.00     0.162 HD
BRANCH   8  10
HETATM   10  C6  UNL     1      19.671  42.266  -8.429  1.00  0.00     0.183 C 
BRANCH  10  11
HETATM   11  C7  UNL     1      20.087  43.252  -9.516  1.00  0.00     0.037 C 
BRANCH  11  12
HETATM   12  C8  UNL     1      20.005  44.691  -9.061  1.00  0.00     0.022 C 
BRANCH  12  13
HETATM   13  C9  UNL     1      21.218  45.083  -8.252  1.00  0.00     0.121 C 
BRANCH  13  14
HETATM   14  N2  UNL     1      22.430  45.063  -9.005  1.00  0.00    -0.380 N 
ATOM     15  H2  UNL     1      22.906  44.167  -9.109  1.00  0.00     0.160 HD
BRANCH  14  16
HETATM   16  C10 UNL     1      23.020  46.197  -9.620  1.00  0.00     0.066 C 
HETATM   17  C11 UNL     1      22.552  46.638 -10.966  1.00  0.00     0.088 C 
HETATM   18  N3  UNL     1      23.959  46.881  -9.063  1.00  0.00    -0.389 N 
ATOM     19  H32 UNL     1      24.280  46.579  -8.143  1.00  0.00     0.157 HD
ATOM     20  H31 UNL     1      24.384  47.697  -9.506  1.00  0.00     0.157 HD
ENDBRANCH  14  16
ENDBRANCH  13  14
ENDBRANCH  12  13
ENDBRANCH  11  12
ENDBRANCH  10  11
BRANCH  10  21
HETATM   21  C12 UNL     1      20.753  41.384  -7.980  1.00  0.00     0.281 C 
HETATM   22  O2  UNL     1      21.508  40.762  -8.791  1.00  0.00    -0.263 OA
BRANCH  21  23
HETATM   23  O3  UNL     1      21.014  41.183  -6.631  1.00  0.00    -0.325 OA
HETATM   24  C13 UNL     1      20.194  41.821  -5.678  1.00  0.00     0.213 C 
ENDBRANCH  21  23
ENDBRANCH  10  21
ENDBRANCH   8  10
ENDBRANCH   5   8
ENDBRANCH   1   5
BRANCH   1  25
HETATM   25  N4  UNL     1      18.014  39.035 -11.217  1.00  0.00    -0.265 N 
HETATM   26  C14 UNL     1      18.030  37.972 -10.279  1.00  0.00     0.274 C 
HETATM   27  O4  UNL     1      18.786  38.020  -9.293  1.00  0.00    -0.266 OA
HETATM   28  C15 UNL     1      17.168  36.816 -10.464  1.00  0.00     0.089 C 
HETATM   29  N5  UNL     1      16.769  36.611 -11.866  1.00  0.00    -0.277 N 
HETATM   30  C19 UNL     1      16.594  35.255 -12.225  1.00  0.00     0.368 C 
HETATM   31  C23 UNL     1      16.630  37.662 -12.810  1.00  0.00     0.191 C 
HETATM   32  O5  UNL     1      16.260  34.783 -13.327  1.00  0.00    -0.238 OA
HETATM   33  C27 UNL     1      17.150  38.977 -12.330  1.00  0.00     0.251 C 
HETATM   34  O7  UNL     1      16.799  40.008 -12.939  1.00  0.00    -0.271 OA
BRANCH  28  35
HETATM   35  C16 UNL     1      16.147  36.525  -9.443  1.00  0.00     0.033 C 
HETATM   36  C17 UNL     1      15.578  37.661  -8.666  1.00  0.00     0.016 C 
HETATM   37  C18 UNL     1      16.596  35.490  -8.421  1.00  0.00     0.016 C 
ENDBRANCH  28  35
BRANCH  30  38
HETATM   38  O6  UNL     1      16.808  34.211 -11.278  1.00  0.00    -0.299 OA
BRANCH  38  39
HETATM   39  C20 UNL     1      16.090  33.016 -11.285  1.00  0.00     0.125 C 
HETATM   40  C21 UNL     1      15.220  32.830 -10.072  1.00  0.00     0.040 C 
HETATM   41  C22 UNL     1      17.110  31.873 -11.285  1.00  0.00     0.040 C 
ENDBRANCH  38  39
ENDBRANCH  30  38
BRANCH  31  42
HETATM   42  C24 UNL     1      15.374  37.911 -13.535  1.00  0.00     0.010 C 
HETATM   43  C25 UNL     1      14.088  37.676 -12.818  1.00  0.00     0.012 C 
HETATM   44  C26 UNL     1      15.243  37.505 -14.960  1.00  0.00     0.012 C 
ENDBRANCH  31  42
ENDBRANCH   1  25
TORSDOF 17
ENDMDL
MODEL 4
REMARK VINA RESULT: -7.292939819      2.040      4.260
REMARK  17 active torsions:
REMARK  status: ('A' for Active; 'I' for Inactive)
REMARK    1  A    between atoms: C2_2  and  C4_4 
REMARK    2  A    between atoms: C4_4  and  C5_5 
REMARK    3  A    between atoms: C4_4  and  N4_25 
REMARK    4  A    between atoms: C5_5  and  O1_6 
REMARK    5  A    between atoms: C5_5  and  N1_8 
REMARK    6  A    between atoms: N1_8  and  C6_10 
REMARK    7  A    between atoms: C6_10  and  C7_11 
REMARK    8  A    between atoms: C6_10  and  C12_21 
REMARK    9  A    between atoms: C7_11  and  C8_12 
REMARK   10  A    between atoms: C8_12  and  C9_13 
REMARK   11  A    between atoms: C9_13  and  N2_14 
REMARK   12  A    between atoms: N2_14  and  C10_16 
REMARK   13  A    between atoms: C12_21  and  O3_23 
REMARK   14  A    between atoms: C15_28  and  C16_29 
REMARK       I    between atoms: N5_32  and  C19_33 
REMARK   15  A    between atoms: C19_33  and  O6_35 
REMARK   16  A    between atoms: O6_35  and  C20_36 
REMARK   17  A    between atoms: C23_39  and  C24_40 
ROOT
HETATM    1  C4  UNL     1      19.013  40.199 -11.109  1.00  0.00     0.198 C 
ENDROOT
BRANCH   1   2
HETATM    2  C2  UNL     1      19.767  40.564 -12.301  1.00  0.00    -0.062 C 
HETATM    3  C1  UNL     1      20.420  39.784 -13.138  1.00  0.00     0.016 C 
HETATM    4  C3  UNL     1      19.855  42.054 -12.626  1.00  0.00     0.045 C 
ENDBRANCH   1   2
BRANCH   1   5
HETATM    5  C5  UNL     1      18.354  41.227 -10.332  1.00  0.00     0.140 C 
BRANCH   5   6
HETATM    6  O1  UNL     1      17.165  41.569 -10.747  1.00  0.00    -0.348 OA
ATOM      7  H1  UNL     1      17.100  41.771 -11.673  1.00  0.00     0.219 HD
ENDBRANCH   5   6
BRANCH   5   8
HETATM    8  N1  UNL     1      18.782  41.920  -9.208  1.00  0.00    -0.359 N 
ATOM      9  H1  UNL     1      18.120  42.073  -8.448  1.00  0.00     0.162 HD
BRANCH   8  10
HETATM   10  C6  UNL     1      20.145  42.439  -9.065  1.00  0.00     0.183 C 
BRANCH  10  11
HETATM   11  C7  UNL     1      20.883  41.650  -7.987  1.00  0.00     0.037 C 
BRANCH  11  12
HETATM   12  C8  UNL     1      19.966  41.164  -6.889  1.00  0.00     0.022 C 
BRANCH  12  13
HETATM   13  C9  UNL     1      20.348  41.753  -5.551  1.00  0.00     0.121 C 
BRANCH  13  14
HETATM   14  N2  UNL     1      20.667  43.142  -5.616  1.00  0.00    -0.380 N 
ATOM     15  H2  UNL     1      21.613  43.396  -5.902  1.00  0.00     0.160 HD
BRANCH  14  16
HETATM   16  C10 UNL     1      19.767  44.195  -5.313  1.00  0.00     0.066 C 
HETATM   17  C11 UNL     1      20.183  45.279  -4.376  1.00  0.00     0.088 C 
HETATM   18  N3  UNL     1      18.583  44.268  -5.817  1.00  0.00    -0.389 N 
ATOM     19  H32 UNL     1      18.298  43.527  -6.458  1.00  0.00     0.157 HD
ATOM     20  H31 UNL     1      17.936  45.025  -5.598  1.00  0.00     0.157 HD
ENDBRANCH  14  16
ENDBRANCH  13  14
ENDBRANCH  12  13
ENDBRANCH  11  12
ENDBRANCH  10  11
BRANCH  10  21
HETATM   21  C12 UNL     1      20.195  43.892  -8.876  1.00  0.00     0.281 C 
HETATM   22  O2  UNL     1      19.188  44.641  -9.070  1.00  0.00    -0.263 OA
BRANCH  21  23
HETATM   23  O3  UNL     1      21.358  44.532  -8.469  1.00  0.00    -0.325 OA
HETATM   24  C13 UNL     1      21.319  45.920  -8.223  1.00  0.00     0.213 C 
ENDBRANCH  21  23
ENDBRANCH  10  21
ENDBRANCH   8  10
ENDBRANCH   5   8
ENDBRANCH   1   5
BRANCH   1  25
HETATM   25  N4  UNL     1      18.077  39.065 -11.294  1.00  0.00    -0.265 N 
HETATM   26  C14 UNL     1      18.075  38.026 -10.329  1.00  0.00     0.274 C 
HETATM   27  O4  UNL     1      18.837  38.082  -9.349  1.00  0.00    -0.266 OA
HETATM   28  C15 UNL     1      17.187  36.885 -10.480  1.00  0.00     0.089 C 
HETATM   29  N5  UNL     1      16.776  36.653 -11.875  1.00  0.00    -0.277 N 
HETATM   30  C19 UNL     1      16.570  35.293 -12.199  1.00  0.00     0.368 C 
HETATM   31  C23 UNL     1      16.655  37.683 -12.844  1.00  0.00     0.191 C 
HETATM   32  O5  UNL     1      16.220  34.801 -13.287  1.00  0.00    -0.238 OA
HETATM   33  C27 UNL     1      17.206  38.998 -12.400  1.00  0.00     0.251 C 
HETATM   34  O7  UNL     1      16.874  40.021 -13.034  1.00  0.00    -0.271 OA
BRANCH  28  35
HETATM   35  C16 UNL     1      16.166  36.642  -9.447  1.00  0.00     0.033 C 
HETATM   36  C17 UNL     1      15.655  37.804  -8.670  1.00  0.00     0.016 C 
HETATM   37  C18 UNL     1      16.581  35.592  -8.426  1.00  0.00     0.016 C 
ENDBRANCH  28  35
BRANCH  30  38
HETATM   38  O6  UNL     1      16.766  34.269 -11.227  1.00  0.00    -0.299 OA
BRANCH  38  39
HETATM   39  C20 UNL     1      16.051  33.072 -11.224  1.00  0.00     0.125 C 
HETATM   40  C21 UNL     1      15.246  32.856  -9.972  1.00  0.00     0.040 C 
HETATM   41  C22 UNL     1      17.070  31.932 -11.305  1.00  0.00     0.040 C 
ENDBRANCH  38  39
ENDBRANCH  30  38
BRANCH  31  42
HETATM   42  C24 UNL     1      15.401  37.942 -13.569  1.00  0.00     0.010 C 
HETATM   43  C25 UNL     1      14.114  37.724 -12.850  1.00  0.00     0.012 C 
HETATM   44  C26 UNL     1      15.264  37.528 -14.992  1.00  0.00     0.012 C 
ENDBRANCH  31  42
ENDBRANCH   1  25
TORSDOF 17
ENDMDL
MODEL 5
REMARK VINA RESULT: -7.286099877      1.152      2.077
REMARK  17 active torsions:
REMARK  status: ('A' for Active; 'I' for Inactive)
REMARK    1  A    between atoms: C2_2  and  C4_4 
REMARK    2  A    between atoms: C4_4  and  C5_5 
REMARK    3  A    between atoms: C4_4  and  N4_25 
REMARK    4  A    between atoms: C5_5  and  O1_6 
REMARK    5  A    between atoms: C5_5  and  N1_8 
REMARK    6  A    between atoms: N1_8  and  C6_10 
REMARK    7  A    between atoms: C6_10  and  C7_11 
REMARK    8  A    between atoms: C6_10  and  C12_21 
REMARK    9  A    between atoms: C7_11  and  C8_12 
REMARK   10  A    between atoms: C8_12  and  C9_13 
REMARK   11  A    between atoms: C9_13  and  N2_14 
REMARK   12  A    between atoms: N2_14  and  C10_16 
REMARK   13  A    between atoms: C12_21  and  O3_23 
REMARK   14  A    between atoms: C15_28  and  C16_29 
REMARK       I    between atoms: N5_32  and  C19_33 
REMARK   15  A    between atoms: C19_33  and  O6_35 
REMARK   16  A    between atoms: O6_35  and  C20_36 
REMARK   17  A    between atoms: C23_39  and  C24_40 
ROOT
HETATM    1  C4  UNL     1      18.168  40.592  -8.806  1.00  0.00     0.198 C 
ENDROOT
BRANCH   1   2
HETATM    2  C2  UNL     1      19.539  40.415  -8.348  1.00  0.00    -0.062 C 
HETATM    3  C1  UNL     1      20.635  40.250  -9.061  1.00  0.00     0.016 C 
HETATM    4  C3  UNL     1      19.757  40.380  -6.837  1.00  0.00     0.045 C 
ENDBRANCH   1   2
BRANCH   1   5
HETATM    5  C5  UNL     1      17.699  41.909  -9.184  1.00  0.00     0.140 C 
BRANCH   5   6
HETATM    6  O1  UNL     1      16.404  42.046  -9.246  1.00  0.00    -0.348 OA
ATOM      7  H1  UNL     1      16.091  42.942  -9.305  1.00  0.00     0.219 HD
ENDBRANCH   5   6
BRANCH   5   8
HETATM    8  N1  UNL     1      18.407  43.060  -9.499  1.00  0.00    -0.359 N 
ATOM      9  H1  UNL     1      18.221  43.519 -10.390  1.00  0.00     0.162 HD
BRANCH   8  10
HETATM   10  C6  UNL     1      19.411  43.646  -8.606  1.00  0.00     0.183 C 
BRANCH  10  11
HETATM   11  C7  UNL     1      18.750  44.060  -7.295  1.00  0.00     0.037 C 
BRANCH  11  12
HETATM   12  C8  UNL     1      19.474  43.523  -6.082  1.00  0.00     0.022 C 
BRANCH  12  13
HETATM   13  C9  UNL     1      19.658  44.592  -5.031  1.00  0.00     0.121 C 
BRANCH  13  14
HETATM   14  N2  UNL     1      20.534  45.641  -5.440  1.00  0.00    -0.380 N 
ATOM     15  H2  UNL     1      20.133  46.410  -5.977  1.00  0.00     0.160 HD
BRANCH  14  16
HETATM   16  C10 UNL     1      21.923  45.693  -5.155  1.00  0.00     0.066 C 
HETATM   17  C11 UNL     1      22.454  45.027  -3.931  1.00  0.00     0.088 C 
HETATM   18  N3  UNL     1      22.769  46.296  -5.918  1.00  0.00    -0.389 N 
ATOM     19  H32 UNL     1      22.406  46.752  -6.755  1.00  0.00     0.157 HD
ATOM     20  H31 UNL     1      23.767  46.333  -5.713  1.00  0.00     0.157 HD
ENDBRANCH  14  16
ENDBRANCH  13  14
ENDBRANCH  12  13
ENDBRANCH  11  12
ENDBRANCH  10  11
BRANCH  10  21
HETATM   21  C12 UNL     1      20.198  44.711  -9.237  1.00  0.00     0.281 C 
HETATM   22  O2  UNL     1      20.348  44.795 -10.495  1.00  0.00    -0.263 OA
BRANCH  21  23
HETATM   23  O3  UNL     1      20.824  45.695  -8.483  1.00  0.00    -0.325 OA
HETATM   24  C13 UNL     1      21.606  46.663  -9.146  1.00  0.00     0.213 C 
ENDBRANCH  21  23
ENDBRANCH  10  21
ENDBRANCH   8  10
ENDBRANCH   5   8
ENDBRANCH   1   5
BRANCH   1  25
HETATM   25  N4  UNL     1      17.728  39.616  -9.831  1.00  0.00    -0.265 N 
HETATM   26  C14 UNL     1      17.863  39.965 -11.199  1.00  0.00     0.274 C 
HETATM   27  O4  UNL     1      18.351  41.062 -11.519  1.00  0.00    -0.266 OA
HETATM   28  C15 UNL     1      17.426  39.046 -12.238  1.00  0.00     0.089 C 
HETATM   29  N5  UNL     1      16.405  38.092 -11.774  1.00  0.00    -0.277 N 
HETATM   30  C19 UNL     1      15.471  37.716 -12.767  1.00  0.00     0.368 C 
HETATM   31  C23 UNL     1      16.306  37.629 -10.436  1.00  0.00     0.191 C 
HETATM   32  O5  UNL     1      14.510  36.932 -12.668  1.00  0.00    -0.238 OA
HETATM   33  C27 UNL     1      17.179  38.367  -9.476  1.00  0.00     0.251 C 
HETATM   34  O7  UNL     1      17.403  37.848  -8.362  1.00  0.00    -0.271 OA
BRANCH  28  35
HETATM   35  C16 UNL     1      18.425  38.526 -13.187  1.00  0.00     0.033 C 
HETATM   36  C17 UNL     1      19.260  37.365 -12.772  1.00  0.00     0.016 C 
HETATM   37  C18 UNL     1      19.390  39.591 -13.688  1.00  0.00     0.016 C 
ENDBRANCH  28  35
BRANCH  30  38
HETATM   38  O6  UNL     1      15.549  38.249 -14.087  1.00  0.00    -0.299 OA
BRANCH  38  39
HETATM   39  C20 UNL     1      15.247  37.507 -15.228  1.00  0.00     0.125 C 
HETATM   40  C21 UNL     1      16.443  36.830 -15.839  1.00  0.00     0.040 C 
HETATM   41  C22 UNL     1      14.702  38.484 -16.274  1.00  0.00     0.040 C 
ENDBRANCH  38  39
ENDBRANCH  30  38
BRANCH  31  42
HETATM   42  C24 UNL     1      16.362  36.200 -10.089  1.00  0.00     0.010 C 
HETATM   43  C25 UNL     1      16.826  35.240 -11.130  1.00  0.00     0.012 C 
HETATM   44  C26 UNL     1      15.273  35.587  -9.281  1.00  0.00     0.012 C 
ENDBRANCH  31  42
ENDBRANCH   1  25
TORSDOF 17
ENDMDL
