MODEL 1
REMARK VINA RESULT: -8.228614564      0.000      0.000
REMARK  16 active torsions:
REMARK  status: ('A' for Active; 'I' for Inactive)
REMARK    1  A    between atoms: C2_2  and  C3_3 
REMARK    2  A    between atoms: C3_3  and  C4_4 
REMARK    3  A    between atoms: C4_4  and  C5_5 
REMARK    4  A    between atoms: C5_5  and  N1_6 
REMARK       I    between atoms: N1_6  and  C6_8 
REMARK    5  A    between atoms: C6_8  and  O2_10 
REMARK    6  A    between atoms: O2_10  and  C7_11 
REMARK    7  A    between atoms: C8_12  and  C9_13 
REMARK    8  A    between atoms: C11_15  and  C12_16 
REMARK       I    between atoms: C12_16  and  N2_18 
REMARK    9  A    between atoms: N3_21  and  C15_22 
REMARK   10  A    between atoms: C15_22  and  O4_23 
REMARK   11  A    between atoms: C15_22  and  N4_25 
REMARK   12  A    between atoms: N4_25  and  C16_26 
REMARK   13  A    between atoms: N4_25  and  C18_28 
REMARK   14  A    between atoms: C22_32  and  C23_33 
REMARK   15  A    between atoms: C24_36  and  O7_37 
REMARK   16  A    between atoms: C26_39  and  O8_41 
ROOT
HETATM    1  C7  UNL     1      17.739  39.158 -10.338  1.00  0.00     0.175 C 
HETATM    2  C8  UNL     1      18.349  39.589  -9.030  1.00  0.00     0.032 C 
HETATM    3  C11 UNL     1      19.249  40.753  -9.109  1.00  0.00     0.101 C 
HETATM    4  C22 UNL     1      20.047  40.952 -10.347  1.00  0.00     0.132 C 
HETATM    5  C24 UNL     1      19.259  40.743 -11.574  1.00  0.00     0.172 C 
HETATM    6  C26 UNL     1      17.896  40.163 -11.438  1.00  0.00     0.108 C 
HETATM    7  C27 UNL     1      17.346  39.611 -12.735  1.00  0.00     0.051 C 
ENDROOT
BRANCH   3   8
HETATM    8  C12 UNL     1      20.063  40.832  -7.861  1.00  0.00     0.225 C 
HETATM    9  O3  UNL     1      20.851  39.863  -7.684  1.00  0.00    -0.273 OA
HETATM   10  N2  UNL     1      20.050  41.816  -6.898  1.00  0.00    -0.349 N 
HETATM   11  C13 UNL     1      19.222  42.977  -6.981  1.00  0.00     0.145 C 
HETATM   12  C21 UNL     1      20.881  41.734  -5.727  1.00  0.00     0.145 C 
HETATM   13  C14 UNL     1      19.910  44.261  -6.657  1.00  0.00     0.146 C 
HETATM   14  N3  UNL     1      21.046  44.227  -5.802  1.00  0.00    -0.344 N 
HETATM   15  C20 UNL     1      21.654  42.945  -5.443  1.00  0.00     0.146 C 
BRANCH  14  16
HETATM   16  C15 UNL     1      21.715  45.351  -5.241  1.00  0.00     0.217 C 
BRANCH  16  17
HETATM   17  O4  UNL     1      22.994  45.149  -5.053  1.00  0.00    -0.333 OA
ATOM     18  H4  UNL     1      23.198  44.822  -4.184  1.00  0.00     0.220 HD
ENDBRANCH  16  17
BRANCH  16  19
HETATM   19  N4  UNL     1      21.265  46.613  -4.860  1.00  0.00    -0.348 N 
BRANCH  19  20
HETATM   20  C16 UNL     1      21.377  47.868  -5.545  1.00  0.00     0.122 C 
HETATM   21  C17 UNL     1      21.610  47.711  -7.042  1.00  0.00     0.026 C 
ENDBRANCH  19  20
BRANCH  19  22
HETATM   22  C18 UNL     1      20.562  46.700  -3.538  1.00  0.00     0.122 C 
HETATM   23  C19 UNL     1      20.571  48.129  -3.059  1.00  0.00     0.026 C 
ENDBRANCH  19  22
ENDBRANCH  16  19
ENDBRANCH  14  16
ENDBRANCH   3   8
BRANCH   2  24
HETATM   24  C9  UNL     1      18.876  38.397  -8.278  1.00  0.00     0.004 C 
HETATM   25  C10 UNL     1      17.997  37.831  -7.241  1.00  0.00     0.005 C 
ENDBRANCH   2  24
BRANCH   4  26
HETATM   26  C23 UNL     1      20.510  42.387 -10.311  1.00  0.00     0.180 C 
HETATM   27  O5  UNL     1      19.777  43.278 -10.808  1.00  0.00    -0.648 OA
HETATM   28  O6  UNL     1      21.699  42.809  -9.766  1.00  0.00    -0.648 OA
ENDBRANCH   4  26
BRANCH   1  29
HETATM   29  O2  UNL     1      16.395  38.743 -10.205  1.00  0.00    -0.295 OA
BRANCH  29  30
HETATM   30  C6  UNL     1      15.975  37.459 -10.628  1.00  0.00     0.361 C 
HETATM   31  N1  UNL     1      16.971  36.506 -10.909  1.00  0.00    -0.337 N 
ATOM     32  H1  UNL     1      17.955  36.750 -10.801  1.00  0.00     0.164 HD
HETATM   33  O1  UNL     1      14.743  37.275 -10.718  1.00  0.00    -0.239 OA
BRANCH  31  34
HETATM   34  C5  UNL     1      16.599  35.175 -11.354  1.00  0.00     0.125 C 
BRANCH  34  35
HETATM   35  C4  UNL     1      16.751  34.191 -10.260  1.00  0.00     0.020 C 
BRANCH  35  36
HETATM   36  C3  UNL     1      15.667  34.239  -9.241  1.00  0.00     0.001 C 
BRANCH  36  37
HETATM   37  C2  UNL     1      16.023  34.786  -7.924  1.00  0.00    -0.004 C 
HETATM   38  C1  UNL     1      15.244  35.865  -7.301  1.00  0.00     0.005 C 
ENDBRANCH  36  37
ENDBRANCH  35  36
ENDBRANCH  34  35
ENDBRANCH  31  34
ENDBRANCH  29  30
ENDBRANCH   1  29
BRANCH   5  39
HETATM   39  O7  UNL     1      19.932  39.916 -12.511  1.00  0.00    -0.387 OA
HETATM   40  C25 UNL     1      20.368  40.612 -13.618  1.00  0.00     0.202 C 
ENDBRANCH   5  39
BRANCH   6  41
HETATM   41  O8  UNL     1      17.025  41.218 -11.132  1.00  0.00    -0.385 OA
ATOM     42  H8  UNL     1      17.382  41.640 -10.360  1.00  0.00     0.210 HD
ENDBRANCH   6  41
TORSDOF 16
ENDMDL
MODEL 2
REMARK VINA RESULT: -8.164209626      0.854      1.384
REMARK  16 active torsions:
REMARK  status: ('A' for Active; 'I' for Inactive)
REMARK    1  A    between atoms: C2_2  and  C3_3 
REMARK    2  A    between atoms: C3_3  and  C4_4 
REMARK    3  A    between atoms: C4_4  and  C5_5 
REMARK    4  A    between atoms: C5_5  and  N1_6 
REMARK       I    between atoms: N1_6  and  C6_8 
REMARK    5  A    between atoms: C6_8  and  O2_10 
REMARK    6  A    between atoms: O2_10  and  C7_11 
REMARK    7  A    between atoms: C8_12  and  C9_13 
REMARK    8  A    between atoms: C11_15  and  C12_16 
REMARK       I    between atoms: C12_16  and  N2_18 
REMARK    9  A    between atoms: N3_21  and  C15_22 
REMARK   10  A    between atoms: C15_22  and  O4_23 
REMARK   11  A    between atoms: C15_22  and  N4_25 
REMARK   12  A    between atoms: N4_25  and  C16_26 
REMARK   13  A    between atoms: N4_25  and  C18_28 
REMARK   14  A    between atoms: C22_32  and  C23_33 
REMARK   15  A    between atoms: C24_36  and  O7_37 
REMARK   16  A    between atoms: C26_39  and  O8_41 
ROOT
HETATM    1  C7  UNL     1      17.775  39.119 -10.332  1.00  0.00     0.175 C 
HETATM    2  C8  UNL     1      18.425  39.571  -9.051  1.00  0.00     0.032 C 
HETATM    3  C11 UNL     1      19.307  40.745  -9.172  1.00  0.00     0.101 C 
HETATM    4  C22 UNL     1      20.060  40.940 -10.439  1.00  0.00     0.132 C 
HETATM    5  C24 UNL     1      19.233  40.709 -11.636  1.00  0.00     0.172 C 
HETATM    6  C26 UNL     1      17.882  40.114 -11.447  1.00  0.00     0.108 C 
HETATM    7  C27 UNL     1      17.294  39.542 -12.718  1.00  0.00     0.051 C 
ENDROOT
BRANCH   3   8
HETATM    8  C12 UNL     1      20.163  40.847  -7.955  1.00  0.00     0.225 C 
HETATM    9  O3  UNL     1      21.171  40.088  -7.954  1.00  0.00    -0.273 OA
HETATM   10  N2  UNL     1      19.982  41.652  -6.852  1.00  0.00    -0.349 N 
HETATM   11  C13 UNL     1      18.896  42.572  -6.730  1.00  0.00     0.145 C 
HETATM   12  C21 UNL     1      20.888  41.614  -5.736  1.00  0.00     0.145 C 
HETATM   13  C14 UNL     1      19.276  43.927  -6.236  1.00  0.00     0.146 C 
HETATM   14  N3  UNL     1      20.445  44.056  -5.433  1.00  0.00    -0.344 N 
HETATM   15  C20 UNL     1      21.365  42.927  -5.296  1.00  0.00     0.146 C 
BRANCH  14  16
HETATM   16  C15 UNL     1      20.861  45.220  -4.729  1.00  0.00     0.217 C 
BRANCH  16  17
HETATM   17  O4  UNL     1      20.027  45.577  -3.785  1.00  0.00    -0.333 OA
ATOM     18  H4  UNL     1      20.153  46.472  -3.493  1.00  0.00     0.220 HD
ENDBRANCH  16  17
BRANCH  16  19
HETATM   19  N4  UNL     1      21.979  46.040  -4.854  1.00  0.00    -0.348 N 
BRANCH  19  20
HETATM   20  C16 UNL     1      23.300  45.873  -4.319  1.00  0.00     0.122 C 
HETATM   21  C17 UNL     1      23.310  45.668  -2.809  1.00  0.00     0.026 C 
ENDBRANCH  19  20
BRANCH  19  22
HETATM   22  C18 UNL     1      21.802  47.293  -5.658  1.00  0.00     0.122 C 
HETATM   23  C19 UNL     1      21.830  46.954  -7.127  1.00  0.00     0.026 C 
ENDBRANCH  19  22
ENDBRANCH  16  19
ENDBRANCH  14  16
ENDBRANCH   3   8
BRANCH   2  24
HETATM   24  C9  UNL     1      18.993  38.394  -8.305  1.00  0.00     0.004 C 
HETATM   25  C10 UNL     1      18.124  37.778  -7.288  1.00  0.00     0.005 C 
ENDBRANCH   2  24
BRANCH   4  26
HETATM   26  C23 UNL     1      20.507  42.381 -10.435  1.00  0.00     0.180 C 
HETATM   27  O5  UNL     1      19.780  43.247 -10.982  1.00  0.00    -0.648 OA
HETATM   28  O6  UNL     1      21.673  42.834  -9.867  1.00  0.00    -0.648 OA
ENDBRANCH   4  26
BRANCH   1  29
HETATM   29  O2  UNL     1      16.442  38.689 -10.148  1.00  0.00    -0.295 OA
BRANCH  29  30
HETATM   30  C6  UNL     1      16.011  37.416 -10.591  1.00  0.00     0.361 C 
HETATM   31  N1  UNL     1      16.995  36.438 -10.825  1.00  0.00    -0.337 N 
ATOM     32  H1  UNL     1      17.978  36.657 -10.670  1.00  0.00     0.164 HD
HETATM   33  O1  UNL     1      14.781  37.263 -10.739  1.00  0.00    -0.239 OA
BRANCH  31  34
HETATM   34  C5  UNL     1      16.611  35.117 -11.287  1.00  0.00     0.125 C 
BRANCH  34  35
HETATM   35  C4  UNL     1      16.694  34.128 -10.189  1.00  0.00     0.020 C 
BRANCH  35  36
HETATM   36  C3  UNL     1      15.609  34.247  -9.177  1.00  0.00     0.001 C 
BRANCH  36  37
HETATM   37  C2  UNL     1      15.984  34.807  -7.871  1.00  0.00    -0.004 C 
HETATM   38  C1  UNL     1      15.236  35.916  -7.263  1.00  0.00     0.005 C 
ENDBRANCH  36  37
ENDBRANCH  35  36
ENDBRANCH  34  35
ENDBRANCH  31  34
ENDBRANCH  29  30
ENDBRANCH   1  29
BRANCH   5  39
HETATM   39  O7  UNL     1      19.883  39.880 -12.587  1.00  0.00    -0.387 OA
HETATM   40  C25 UNL     1      20.359  40.586 -13.671  1.00  0.00     0.202 C 
ENDBRANCH   5  39
BRANCH   6  41
HETATM   41  O8  UNL     1      17.010  41.161 -11.122  1.00  0.00    -0.385 OA
ATOM     42  H8  UNL     1      16.931  41.693 -11.906  1.00  0.00     0.210 HD
ENDBRANCH   6  41
TORSDOF 16
ENDMDL
MODEL 3
REMARK VINA RESULT: -8.115491918      0.967      1.794
REMARK  16 active torsions:
REMARK  status: ('A' for Active; 'I' for Inactive)
REMARK    1  A    between atoms: C2_2  and  C3_3 
REMARK    2  A    between atoms: C3_3  and  C4_4 
REMARK    3  A    between atoms: C4_4  and  C5_5 
REMARK    4  A    between atoms: C5_5  and  N1_6 
REMARK       I    between atoms: N1_6  and  C6_8 
REMARK    5  A    between atoms: C6_8  and  O2_10 
REMARK    6  A    between atoms: O2_10  and  C7_11 
REMARK    7  A    between atoms: C8_12  and  C9_13 
REMARK    8  A    between atoms: C11_15  and  C12_16 
REMARK       I    between atoms: C12_16  and  N2_18 
REMARK    9  A    between atoms: N3_21  and  C15_22 
REMARK   10  A    between atoms: C15_22  and  O4_23 
REMARK   11  A    between atoms: C15_22  and  N4_25 
REMARK   12  A    between atoms: N4_25  and  C16_26 
REMARK   13  A    between atoms: N4_25  and  C18_28 
REMARK   14  A    between atoms: C22_32  and  C23_33 
REMARK   15  A    between atoms: C24_36  and  O7_37 
REMARK   16  A    between atoms: C26_39  and  O8_41 
ROOT
HETATM    1  C7  UNL     1      17.798  39.217 -10.316  1.00  0.00     0.175 C 
HETATM    2  C8  UNL     1      18.409  39.631  -9.003  1.00  0.00     0.032 C 
HETATM    3  C11 UNL     1      19.285  40.814  -9.062  1.00  0.00     0.101 C 
HETATM    4  C22 UNL     1      20.071  41.055 -10.301  1.00  0.00     0.132 C 
HETATM    5  C24 UNL     1      19.278  40.858 -11.527  1.00  0.00     0.172 C 
HETATM    6  C26 UNL     1      17.927  40.248 -11.394  1.00  0.00     0.108 C 
HETATM    7  C27 UNL     1      17.379  39.714 -12.699  1.00  0.00     0.051 C 
ENDROOT
BRANCH   3   8
HETATM    8  C12 UNL     1      20.107  40.882  -7.819  1.00  0.00     0.225 C 
HETATM    9  O3  UNL     1      20.902  39.916  -7.660  1.00  0.00    -0.273 OA
HETATM   10  N2  UNL     1      20.094  41.853  -6.842  1.00  0.00    -0.349 N 
HETATM   11  C13 UNL     1      19.258  43.010  -6.905  1.00  0.00     0.145 C 
HETATM   12  C21 UNL     1      20.933  41.760  -5.678  1.00  0.00     0.145 C 
HETATM   13  C14 UNL     1      19.940  44.293  -6.569  1.00  0.00     0.146 C 
HETATM   14  N3  UNL     1      21.082  44.255  -5.721  1.00  0.00    -0.344 N 
HETATM   15  C20 UNL     1      21.700  42.973  -5.383  1.00  0.00     0.146 C 
BRANCH  14  16
HETATM   16  C15 UNL     1      21.747  45.376  -5.149  1.00  0.00     0.217 C 
BRANCH  16  17
HETATM   17  O4  UNL     1      23.024  45.172  -4.953  1.00  0.00    -0.333 OA
ATOM     18  H4  UNL     1      23.204  44.615  -4.204  1.00  0.00     0.220 HD
ENDBRANCH  16  17
BRANCH  16  19
HETATM   19  N4  UNL     1      21.295  46.636  -4.764  1.00  0.00    -0.348 N 
BRANCH  19  20
HETATM   20  C16 UNL     1      21.417  47.896  -5.440  1.00  0.00     0.122 C 
HETATM   21  C17 UNL     1      21.613  47.750  -6.943  1.00  0.00     0.026 C 
ENDBRANCH  19  20
BRANCH  19  22
HETATM   22  C18 UNL     1      20.577  46.716  -3.451  1.00  0.00     0.122 C 
HETATM   23  C19 UNL     1      20.579  48.142  -2.964  1.00  0.00     0.026 C 
ENDBRANCH  19  22
ENDBRANCH  16  19
ENDBRANCH  14  16
ENDBRANCH   3   8
BRANCH   2  24
HETATM   24  C9  UNL     1      18.964  38.434  -8.280  1.00  0.00     0.004 C 
HETATM   25  C10 UNL     1      18.041  37.717  -7.385  1.00  0.00     0.005 C 
ENDBRANCH   2  24
BRANCH   4  26
HETATM   26  C23 UNL     1      20.506  42.498 -10.237  1.00  0.00     0.180 C 
HETATM   27  O5  UNL     1      19.724  43.391 -10.649  1.00  0.00    -0.648 OA
HETATM   28  O6  UNL     1      21.720  42.926  -9.753  1.00  0.00    -0.648 OA
ENDBRANCH   4  26
BRANCH   1  29
HETATM   29  O2  UNL     1      16.463  38.773 -10.182  1.00  0.00    -0.295 OA
BRANCH  29  30
HETATM   30  C6  UNL     1      16.109  37.422 -10.414  1.00  0.00     0.361 C 
HETATM   31  N1  UNL     1      16.983  36.643 -11.195  1.00  0.00    -0.337 N 
ATOM     32  H1  UNL     1      17.839  37.054 -11.568  1.00  0.00     0.164 HD
HETATM   33  O1  UNL     1      15.041  37.027  -9.902  1.00  0.00    -0.239 OA
BRANCH  31  34
HETATM   34  C5  UNL     1      16.668  35.254 -11.472  1.00  0.00     0.125 C 
BRANCH  34  35
HETATM   35  C4  UNL     1      15.953  35.120 -12.760  1.00  0.00     0.020 C 
BRANCH  35  36
HETATM   36  C3  UNL     1      16.398  36.079 -13.808  1.00  0.00     0.001 C 
BRANCH  36  37
HETATM   37  C2  UNL     1      15.353  36.895 -14.443  1.00  0.00    -0.004 C 
HETATM   38  C1  UNL     1      14.365  37.638 -13.649  1.00  0.00     0.005 C 
ENDBRANCH  36  37
ENDBRANCH  35  36
ENDBRANCH  34  35
ENDBRANCH  31  34
ENDBRANCH  29  30
ENDBRANCH   1  29
BRANCH   5  39
HETATM   39  O7  UNL     1      19.960  40.065 -12.486  1.00  0.00    -0.387 OA
HETATM   40  C25 UNL     1      20.381  40.794 -13.577  1.00  0.00     0.202 C 
ENDBRANCH   5  39
BRANCH   6  41
HETATM   41  O8  UNL     1      17.038  41.279 -11.060  1.00  0.00    -0.385 OA
ATOM     42  H8  UNL     1      16.468  41.391 -11.811  1.00  0.00     0.210 HD
ENDBRANCH   6  41
TORSDOF 16
ENDMDL
MODEL 4
REMARK VINA RESULT: -8.041615427      1.104      2.136
REMARK  16 active torsions:
REMARK  status: ('A' for Active; 'I' for Inactive)
REMARK    1  A    between atoms: C2_2  and  C3_3 
REMARK    2  A    between atoms: C3_3  and  C4_4 
REMARK    3  A    between atoms: C4_4  and  C5_5 
REMARK    4  A    between atoms: C5_5  and  N1_6 
REMARK       I    between atoms: N1_6  and  C6_8 
REMARK    5  A    between atoms: C6_8  and  O2_10 
REMARK    6  A    between atoms: O2_10  and  C7_11 
REMARK    7  A    between atoms: C8_12  and  C9_13 
REMARK    8  A    between atoms: C11_15  and  C12_16 
REMARK       I    between atoms: C12_16  and  N2_18 
REMARK    9  A    between atoms: N3_21  and  C15_22 
REMARK   10  A    between atoms: C15_22  and  O4_23 
REMARK   11  A    between atoms: C15_22  and  N4_25 
REMARK   12  A    between atoms: N4_25  and  C16_26 
REMARK   13  A    between atoms: N4_25  and  C18_28 
REMARK   14  A    between atoms: C22_32  and  C23_33 
REMARK   15  A    between atoms: C24_36  and  O7_37 
REMARK   16  A    between atoms: C26_39  and  O8_41 
ROOT
HETATM    1  C7  UNL     1      17.869  39.364 -10.293  1.00  0.00     0.175 C 
HETATM    2  C8  UNL     1      18.502  39.742  -8.980  1.00  0.00     0.032 C 
HETATM    3  C11 UNL     1      19.357  40.942  -9.016  1.00  0.00     0.101 C 
HETATM    4  C22 UNL     1      20.110  41.241 -10.262  1.00  0.00     0.132 C 
HETATM    5  C24 UNL     1      19.294  41.073 -11.476  1.00  0.00     0.172 C 
HETATM    6  C26 UNL     1      17.958  40.435 -11.337  1.00  0.00     0.108 C 
HETATM    7  C27 UNL     1      17.389  39.938 -12.648  1.00  0.00     0.051 C 
ENDROOT
BRANCH   3   8
HETATM    8  C12 UNL     1      20.204  40.981  -7.789  1.00  0.00     0.225 C 
HETATM    9  O3  UNL     1      21.102  40.096  -7.741  1.00  0.00    -0.273 OA
HETATM   10  N2  UNL     1      20.118  41.848  -6.722  1.00  0.00    -0.349 N 
HETATM   11  C13 UNL     1      19.163  42.907  -6.655  1.00  0.00     0.145 C 
HETATM   12  C21 UNL     1      20.998  41.737  -5.590  1.00  0.00     0.145 C 
HETATM   13  C14 UNL     1      19.714  44.220  -6.208  1.00  0.00     0.146 C 
HETATM   14  N3  UNL     1      20.879  44.226  -5.392  1.00  0.00    -0.344 N 
HETATM   15  C20 UNL     1      21.641  42.992  -5.193  1.00  0.00     0.146 C 
BRANCH  14  16
HETATM   16  C15 UNL     1      21.438  45.353  -4.726  1.00  0.00     0.217 C 
BRANCH  16  17
HETATM   17  O4  UNL     1      22.166  45.029  -3.688  1.00  0.00    -0.333 OA
ATOM     18  H4  UNL     1      22.622  45.770  -3.305  1.00  0.00     0.220 HD
ENDBRANCH  16  17
BRANCH  16  19
HETATM   19  N4  UNL     1      21.357  46.721  -4.974  1.00  0.00    -0.348 N 
BRANCH  19  20
HETATM   20  C16 UNL     1      20.440  47.692  -4.450  1.00  0.00     0.122 C 
HETATM   21  C17 UNL     1      20.716  48.049  -2.995  1.00  0.00     0.026 C 
ENDBRANCH  19  20
BRANCH  19  22
HETATM   22  C18 UNL     1      22.364  47.287  -5.930  1.00  0.00     0.122 C 
HETATM   23  C19 UNL     1      21.682  47.636  -7.228  1.00  0.00     0.026 C 
ENDBRANCH  19  22
ENDBRANCH  16  19
ENDBRANCH  14  16
ENDBRANCH   3   8
BRANCH   2  24
HETATM   24  C9  UNL     1      19.093  38.531  -8.312  1.00  0.00     0.004 C 
HETATM   25  C10 UNL     1      18.200  37.764  -7.428  1.00  0.00     0.005 C 
ENDBRANCH   2  24
BRANCH   4  26
HETATM   26  C23 UNL     1      20.523  42.688 -10.156  1.00  0.00     0.180 C 
HETATM   27  O5  UNL     1      19.713  43.581 -10.509  1.00  0.00    -0.648 OA
HETATM   28  O6  UNL     1      21.744  43.119  -9.694  1.00  0.00    -0.648 OA
ENDBRANCH   4  26
BRANCH   1  29
HETATM   29  O2  UNL     1      16.545  38.892 -10.147  1.00  0.00    -0.295 OA
BRANCH  29  30
HETATM   30  C6  UNL     1      16.216  37.536 -10.384  1.00  0.00     0.361 C 
HETATM   31  N1  UNL     1      17.035  36.811 -11.270  1.00  0.00    -0.337 N 
ATOM     32  H1  UNL     1      17.835  37.263 -11.711  1.00  0.00     0.164 HD
HETATM   33  O1  UNL     1      15.218  37.089  -9.783  1.00  0.00    -0.239 OA
BRANCH  31  34
HETATM   34  C5  UNL     1      16.741  35.419 -11.556  1.00  0.00     0.125 C 
BRANCH  34  35
HETATM   35  C4  UNL     1      15.933  35.292 -12.789  1.00  0.00     0.020 C 
BRANCH  35  36
HETATM   36  C3  UNL     1      16.284  36.274 -13.852  1.00  0.00     0.001 C 
BRANCH  36  37
HETATM   37  C2  UNL     1      15.197  37.137 -14.337  1.00  0.00    -0.004 C 
HETATM   38  C1  UNL     1      14.198  37.708 -13.423  1.00  0.00     0.005 C 
ENDBRANCH  36  37
ENDBRANCH  35  36
ENDBRANCH  34  35
ENDBRANCH  31  34
ENDBRANCH  29  30
ENDBRANCH   1  29
BRANCH   5  39
HETATM   39  O7  UNL     1      19.968  40.326 -12.478  1.00  0.00    -0.387 OA
HETATM   40  C25 UNL     1      20.345  41.099 -13.556  1.00  0.00     0.202 C 
ENDBRANCH   5  39
BRANCH   6  41
HETATM   41  O8  UNL     1      17.059  41.438 -10.947  1.00  0.00    -0.385 OA
ATOM     42  H8  UNL     1      17.511  42.263 -11.075  1.00  0.00     0.210 HD
ENDBRANCH   6  41
TORSDOF 16
ENDMDL
MODEL 5
REMARK VINA RESULT: -8.000924974      0.654      1.123
REMARK  16 active torsions:
REMARK  status: ('A' for Active; 'I' for Inactive)
REMARK    1  A    between atoms: C2_2  and  C3_3 
REMARK    2  A    between atoms: C3_3  and  C4_4 
REMARK    3  A    between atoms: C4_4  and  C5_5 
REMARK    4  A    between atoms: C5_5  and  N1_6 
REMARK       I    between atoms: N1_6  and  C6_8 
REMARK    5  A    between atoms: C6_8  and  O2_10 
REMARK    6  A    between atoms: O2_10  and  C7_11 
REMARK    7  A    between atoms: C8_12  and  C9_13 
REMARK    8  A    between atoms: C11_15  and  C12_16 
REMARK       I    between atoms: C12_16  and  N2_18 
REMARK    9  A    between atoms: N3_21  and  C15_22 
REMARK   10  A    between atoms: C15_22  and  O4_23 
REMARK   11  A    between atoms: C15_22  and  N4_25 
REMARK   12  A    between atoms: N4_25  and  C16_26 
REMARK   13  A    between atoms: N4_25  and  C18_28 
REMARK   14  A    between atoms: C22_32  and  C23_33 
REMARK   15  A    between atoms: C24_36  and  O7_37 
REMARK   16  A    between atoms: C26_39  and  O8_41 
ROOT
HETATM    1  C7  UNL     1      17.722  39.114 -10.333  1.00  0.00     0.175 C 
HETATM    2  C8  UNL     1      18.323  39.551  -9.023  1.00  0.00     0.032 C 
HETATM    3  C11 UNL     1      19.226  40.713  -9.102  1.00  0.00     0.101 C 
HETATM    4  C22 UNL     1      20.035  40.902 -10.335  1.00  0.00     0.132 C 
HETATM    5  C24 UNL     1      19.257  40.687 -11.567  1.00  0.00     0.172 C 
HETATM    6  C26 UNL     1      17.891  40.110 -11.439  1.00  0.00     0.108 C 
HETATM    7  C27 UNL     1      17.350  39.552 -12.736  1.00  0.00     0.051 C 
ENDROOT
BRANCH   3   8
HETATM    8  C12 UNL     1      20.030  40.798  -7.849  1.00  0.00     0.225 C 
HETATM    9  O3  UNL     1      20.810  39.826  -7.656  1.00  0.00    -0.273 OA
HETATM   10  N2  UNL     1      20.016  41.792  -6.895  1.00  0.00    -0.349 N 
HETATM   11  C13 UNL     1      19.197  42.958  -6.997  1.00  0.00     0.145 C 
HETATM   12  C21 UNL     1      20.837  41.715  -5.717  1.00  0.00     0.145 C 
HETATM   13  C14 UNL     1      19.891  44.240  -6.679  1.00  0.00     0.146 C 
HETATM   14  N3  UNL     1      21.020  44.206  -5.814  1.00  0.00    -0.344 N 
HETATM   15  C20 UNL     1      21.616  42.923  -5.438  1.00  0.00     0.146 C 
BRANCH  14  16
HETATM   16  C15 UNL     1      21.691  45.331  -5.257  1.00  0.00     0.217 C 
BRANCH  16  17
HETATM   17  O4  UNL     1      22.970  45.127  -5.072  1.00  0.00    -0.333 OA
ATOM     18  H4  UNL     1      23.432  45.900  -4.767  1.00  0.00     0.220 HD
ENDBRANCH  16  17
BRANCH  16  19
HETATM   19  N4  UNL     1      21.244  46.594  -4.879  1.00  0.00    -0.348 N 
BRANCH  19  20
HETATM   20  C16 UNL     1      21.326  47.841  -5.584  1.00  0.00     0.122 C 
HETATM   21  C17 UNL     1      21.626  47.669  -7.067  1.00  0.00     0.026 C 
ENDBRANCH  19  20
BRANCH  19  22
HETATM   22  C18 UNL     1      20.581  46.695  -3.538  1.00  0.00     0.122 C 
HETATM   23  C19 UNL     1      20.821  48.066  -2.962  1.00  0.00     0.026 C 
ENDBRANCH  19  22
ENDBRANCH  16  19
ENDBRANCH  14  16
ENDBRANCH   3   8
BRANCH   2  24
HETATM   24  C9  UNL     1      18.841  38.364  -8.259  1.00  0.00     0.004 C 
HETATM   25  C10 UNL     1      17.887  37.690  -7.363  1.00  0.00     0.005 C 
ENDBRANCH   2  24
BRANCH   4  26
HETATM   26  C23 UNL     1      20.501  42.336 -10.305  1.00  0.00     0.180 C 
HETATM   27  O5  UNL     1      19.765  43.228 -10.795  1.00  0.00    -0.648 OA
HETATM   28  O6  UNL     1      21.696  42.757  -9.772  1.00  0.00    -0.648 OA
ENDBRANCH   4  26
BRANCH   1  29
HETATM   29  O2  UNL     1      16.377  38.702 -10.209  1.00  0.00    -0.295 OA
BRANCH  29  30
HETATM   30  C6  UNL     1      15.980  37.378 -10.511  1.00  0.00     0.361 C 
HETATM   31  N1  UNL     1      16.992  36.440 -10.790  1.00  0.00    -0.337 N 
ATOM     32  H1  UNL     1      17.971  36.724 -10.763  1.00  0.00     0.164 HD
HETATM   33  O1  UNL     1      14.753  37.146 -10.507  1.00  0.00    -0.239 OA
BRANCH  31  34
HETATM   34  C5  UNL     1      16.643  35.069 -11.113  1.00  0.00     0.125 C 
BRANCH  34  35
HETATM   35  C4  UNL     1      16.626  34.227  -9.897  1.00  0.00     0.020 C 
BRANCH  35  36
HETATM   36  C3  UNL     1      15.466  33.298  -9.814  1.00  0.00     0.001 C 
BRANCH  36  37
HETATM   37  C2  UNL     1      15.770  31.860  -9.830  1.00  0.00    -0.004 C 
HETATM   38  C1  UNL     1      16.759  31.290 -10.755  1.00  0.00     0.005 C 
ENDBRANCH  36  37
ENDBRANCH  35  36
ENDBRANCH  34  35
ENDBRANCH  31  34
ENDBRANCH  29  30
ENDBRANCH   1  29
BRANCH   5  39
HETATM   39  O7  UNL     1      19.935  39.853 -12.493  1.00  0.00    -0.387 OA
HETATM   40  C25 UNL     1      20.374  40.538 -13.606  1.00  0.00     0.202 C 
ENDBRANCH   5  39
BRANCH   6  41
HETATM   41  O8  UNL     1      17.020  41.169 -11.147  1.00  0.00    -0.385 OA
ATOM     42  H8  UNL     1      17.552  41.848 -10.749  1.00  0.00     0.210 HD
ENDBRANCH   6  41
TORSDOF 16
ENDMDL
