MODEL 1
REMARK VINA RESULT: -9.479570866      0.000      0.000
REMARK  12 active torsions:
REMARK  status: ('A' for Active; 'I' for Inactive)
REMARK    1  A    between atoms: C2_2  and  C3_3 
REMARK    2  A    between atoms: C3_3  and  C4_4 
REMARK    3  A    between atoms: C6_6  and  C7_7 
REMARK    4  A    between atoms: C7_7  and  C8_9 
REMARK       I    between atoms: C8_9  and  N1_11 
REMARK    5  A    between atoms: N1_11  and  O3_13 
REMARK    6  A    between atoms: C13_18  and  O4_19 
REMARK    7  A    between atoms: O4_19  and  C14_20 
REMARK    8  A    between atoms: C14_20  and  C15_21 
REMARK    9  A    between atoms: C19_28  and  N3_29 
REMARK   10  A    between atoms: N3_29  and  C20_31 
REMARK   11  A    between atoms: C20_31  and  C21_32 
REMARK   12  A    between atoms: C21_32  and  N4_33 
ROOT
HETATM    1  C15 UNL     1      20.638  42.428  -9.859  1.00  0.00     0.010 A 
HETATM    2  C16 UNL     1      20.519  42.133 -11.188  1.00  0.00     0.036 A 
HETATM    3  C17 UNL     1      19.552  41.279 -11.553  1.00  0.00     0.068 A 
HETATM    4  C18 UNL     1      19.236  40.827 -12.846  1.00  0.00     0.272 A 
HETATM    5  O5  UNL     1      19.900  41.225 -13.865  1.00  0.00    -0.267 OA
HETATM    6  N2  UNL     1      18.241  39.970 -13.056  1.00  0.00    -0.155 N 
ATOM      7  H2  UNL     1      18.052  39.670 -14.013  1.00  0.00     0.187 HD
HETATM    8  C19 UNL     1      17.467  39.477 -12.062  1.00  0.00     0.681 A 
HETATM    9  N5  UNL     1      17.747  39.894 -10.816  1.00  0.00    -0.184 N 
ATOM     10  H5  UNL     1      17.186  39.546 -10.039  1.00  0.00     0.185 HD
HETATM   11  C26 UNL     1      18.752  40.765 -10.564  1.00  0.00     0.106 A 
HETATM   12  S1  UNL     1      19.390  41.499  -9.158  1.00  0.00    -0.073 SA
ENDROOT
BRANCH   1  13
HETATM   13  C14 UNL     1      21.603  43.316  -9.160  1.00  0.00     0.222 C 
BRANCH  13  14
HETATM   14  O4  UNL     1      21.259  44.678  -9.311  1.00  0.00    -0.346 OA
BRANCH  14  15
HETATM   15  C13 UNL     1      21.375  45.450  -8.170  1.00  0.00     0.076 A 
HETATM   16  C4  UNL     1      21.652  46.799  -8.250  1.00  0.00    -0.024 A 
HETATM   17  C5  UNL     1      21.767  47.600  -7.138  1.00  0.00     0.026 A 
HETATM   18  C6  UNL     1      21.608  47.077  -5.842  1.00  0.00     0.026 A 
HETATM   19  C10 UNL     1      21.338  45.743  -5.754  1.00  0.00    -0.045 A 
HETATM   20  C11 UNL     1      21.233  45.084  -4.423  1.00  0.00     0.049 C 
HETATM   21  C12 UNL     1      21.223  44.943  -6.897  1.00  0.00     0.045 A 
BRANCH  16  22
HETATM   22  C3  UNL     1      21.826  47.366  -9.629  1.00  0.00     0.041 C 
BRANCH  22  23
HETATM   23  C2  UNL     1      23.306  47.551  -9.852  1.00  0.00     0.000 C 
HETATM   24  C1  UNL     1      23.475  48.293 -11.168  1.00  0.00     0.005 C 
ENDBRANCH  22  23
ENDBRANCH  16  22
BRANCH  18  25
HETATM   25  C7  UNL     1      21.652  48.015  -4.707  1.00  0.00     0.251 C 
HETATM   26  O1  UNL     1      22.799  48.527  -4.413  1.00  0.00    -0.281 OA
BRANCH  25  27
HETATM   27  C8  UNL     1      20.515  48.404  -3.911  1.00  0.00     0.316 C 
HETATM   28  O2  UNL     1      19.523  49.015  -4.345  1.00  0.00    -0.262 OA
HETATM   29  N1  UNL     1      20.500  48.076  -2.524  1.00  0.00    -0.228 N 
ATOM     30  H1  UNL     1      21.294  47.573  -2.128  1.00  0.00     0.198 HD
BRANCH  29  31
HETATM   31  O3  UNL     1      19.462  48.414  -1.710  1.00  0.00    -0.282 OA
HETATM   32  C9  UNL     1      19.944  48.497  -0.419  1.00  0.00     0.237 C 
ENDBRANCH  29  31
ENDBRANCH  25  27
ENDBRANCH  18  25
ENDBRANCH  14  15
ENDBRANCH  13  14
ENDBRANCH   1  13
BRANCH   8  33
HETATM   33  N3  UNL     1      16.540  38.652 -12.367  1.00  0.00    -0.224 N 
ATOM     34  H3  UNL     1      15.801  39.002 -12.975  1.00  0.00     0.177 HD
BRANCH  33  35
HETATM   35  C20 UNL     1      16.428  37.295 -11.949  1.00  0.00     0.158 C 
BRANCH  35  36
HETATM   36  C21 UNL     1      15.272  37.167 -10.963  1.00  0.00     0.146 C 
BRANCH  36  37
HETATM   37  N4  UNL     1      15.699  36.568  -9.707  1.00  0.00    -0.351 N 
HETATM   38  C22 UNL     1      15.383  35.250  -9.250  1.00  0.00     0.126 C 
HETATM   39  C23 UNL     1      16.101  34.993  -7.963  1.00  0.00     0.029 C 
HETATM   40  C24 UNL     1      17.044  36.167  -7.789  1.00  0.00     0.104 C 
HETATM   41  C25 UNL     1      16.500  37.197  -8.708  1.00  0.00     0.219 C 
HETATM   42  O6  UNL     1      16.685  38.436  -8.657  1.00  0.00    -0.273 OA
ENDBRANCH  36  37
ENDBRANCH  35  36
ENDBRANCH  33  35
ENDBRANCH   8  33
TORSDOF 12
ENDMDL
MODEL 2
REMARK VINA RESULT: -9.400334129      1.526      2.973
REMARK  12 active torsions:
REMARK  status: ('A' for Active; 'I' for Inactive)
REMARK    1  A    between atoms: C2_2  and  C3_3 
REMARK    2  A    between atoms: C3_3  and  C4_4 
REMARK    3  A    between atoms: C6_6  and  C7_7 
REMARK    4  A    between atoms: C7_7  and  C8_9 
REMARK       I    between atoms: C8_9  and  N1_11 
REMARK    5  A    between atoms: N1_11  and  O3_13 
REMARK    6  A    between atoms: C13_18  and  O4_19 
REMARK    7  A    between atoms: O4_19  and  C14_20 
REMARK    8  A    between atoms: C14_20  and  C15_21 
REMARK    9  A    between atoms: C19_28  and  N3_29 
REMARK   10  A    between atoms: N3_29  and  C20_31 
REMARK   11  A    between atoms: C20_31  and  C21_32 
REMARK   12  A    between atoms: C21_32  and  N4_33 
ROOT
HETATM    1  C15 UNL     1      19.876  42.154 -10.344  1.00  0.00     0.010 A 
HETATM    2  C16 UNL     1      19.127  41.824 -11.438  1.00  0.00     0.036 A 
HETATM    3  C17 UNL     1      18.680  40.564 -11.533  1.00  0.00     0.068 A 
HETATM    4  C18 UNL     1      17.900  39.993 -12.554  1.00  0.00     0.272 A 
HETATM    5  O5  UNL     1      17.520  40.688 -13.560  1.00  0.00    -0.267 OA
HETATM    6  N2  UNL     1      17.532  38.716 -12.512  1.00  0.00    -0.155 N 
ATOM      7  H2  UNL     1      16.967  38.349 -13.278  1.00  0.00     0.187 HD
HETATM    8  C19 UNL     1      17.869  37.882 -11.503  1.00  0.00     0.681 A 
HETATM    9  N5  UNL     1      18.614  38.402 -10.514  1.00  0.00    -0.184 N 
ATOM     10  H5  UNL     1      18.890  37.805  -9.734  1.00  0.00     0.185 HD
HETATM   11  C26 UNL     1      19.008  39.697 -10.522  1.00  0.00     0.106 A 
HETATM   12  S1  UNL     1      19.933  40.685  -9.477  1.00  0.00    -0.073 SA
ENDROOT
BRANCH   1  13
HETATM   13  C14 UNL     1      20.509  43.446  -9.972  1.00  0.00     0.222 C 
BRANCH  13  14
HETATM   14  O4  UNL     1      21.383  43.298  -8.872  1.00  0.00    -0.346 OA
BRANCH  14  15
HETATM   15  C13 UNL     1      21.476  44.395  -8.036  1.00  0.00     0.076 A 
HETATM   16  C4  UNL     1      21.270  44.273  -6.678  1.00  0.00    -0.024 A 
HETATM   17  C5  UNL     1      21.362  45.340  -5.815  1.00  0.00     0.026 A 
HETATM   18  C6  UNL     1      21.674  46.630  -6.280  1.00  0.00     0.026 A 
HETATM   19  C10 UNL     1      21.875  46.760  -7.622  1.00  0.00    -0.045 A 
HETATM   20  C11 UNL     1      22.131  48.101  -8.217  1.00  0.00     0.049 C 
HETATM   21  C12 UNL     1      21.779  45.662  -8.486  1.00  0.00     0.045 A 
BRANCH  16  22
HETATM   22  C3  UNL     1      20.934  42.900  -6.172  1.00  0.00     0.041 C 
BRANCH  22  23
HETATM   23  C2  UNL     1      20.028  43.073  -4.980  1.00  0.00     0.000 C 
HETATM   24  C1  UNL     1      20.511  42.115  -3.902  1.00  0.00     0.005 C 
ENDBRANCH  22  23
ENDBRANCH  16  22
BRANCH  18  25
HETATM   25  C7  UNL     1      21.848  47.702  -5.284  1.00  0.00     0.251 C 
HETATM   26  O1  UNL     1      23.047  48.133  -5.089  1.00  0.00    -0.281 OA
BRANCH  25  27
HETATM   27  C8  UNL     1      20.781  48.303  -4.522  1.00  0.00     0.316 C 
HETATM   28  O2  UNL     1      20.786  48.444  -3.286  1.00  0.00    -0.262 OA
HETATM   29  N1  UNL     1      19.628  48.780  -5.210  1.00  0.00    -0.228 N 
ATOM     30  H1  UNL     1      19.584  48.685  -6.225  1.00  0.00     0.198 HD
BRANCH  29  31
HETATM   31  O3  UNL     1      18.581  49.356  -4.556  1.00  0.00    -0.282 OA
HETATM   32  C9  UNL     1      17.686  49.809  -5.505  1.00  0.00     0.237 C 
ENDBRANCH  29  31
ENDBRANCH  25  27
ENDBRANCH  18  25
ENDBRANCH  14  15
ENDBRANCH  13  14
ENDBRANCH   1  13
BRANCH   8  33
HETATM   33  N3  UNL     1      17.472  36.668 -11.560  1.00  0.00    -0.224 N 
ATOM     34  H3  UNL     1      18.114  35.999 -11.984  1.00  0.00     0.177 HD
BRANCH  33  35
HETATM   35  C20 UNL     1      16.230  36.149 -11.096  1.00  0.00     0.158 C 
BRANCH  35  36
HETATM   36  C21 UNL     1      15.616  37.130 -10.103  1.00  0.00     0.146 C 
BRANCH  36  37
HETATM   37  N4  UNL     1      15.850  36.719  -8.725  1.00  0.00    -0.351 N 
HETATM   38  C22 UNL     1      15.319  35.553  -8.091  1.00  0.00     0.126 C 
HETATM   39  C23 UNL     1      15.884  35.447  -6.709  1.00  0.00     0.029 C 
HETATM   40  C24 UNL     1      16.961  36.512  -6.636  1.00  0.00     0.104 C 
HETATM   41  C25 UNL     1      16.642  37.417  -7.767  1.00  0.00     0.219 C 
HETATM   42  O6  UNL     1      16.990  38.613  -7.905  1.00  0.00    -0.273 OA
ENDBRANCH  36  37
ENDBRANCH  35  36
ENDBRANCH  33  35
ENDBRANCH   8  33
TORSDOF 12
ENDMDL
MODEL 3
REMARK VINA RESULT: -9.371207579      3.226     11.731
REMARK  12 active torsions:
REMARK  status: ('A' for Active; 'I' for Inactive)
REMARK    1  A    between atoms: C2_2  and  C3_3 
REMARK    2  A    between atoms: C3_3  and  C4_4 
REMARK    3  A    between atoms: C6_6  and  C7_7 
REMARK    4  A    between atoms: C7_7  and  C8_9 
REMARK       I    between atoms: C8_9  and  N1_11 
REMARK    5  A    between atoms: N1_11  and  O3_13 
REMARK    6  A    between atoms: C13_18  and  O4_19 
REMARK    7  A    between atoms: O4_19  and  C14_20 
REMARK    8  A    between atoms: C14_20  and  C15_21 
REMARK    9  A    between atoms: C19_28  and  N3_29 
REMARK   10  A    between atoms: N3_29  and  C20_31 
REMARK   11  A    between atoms: C20_31  and  C21_32 
REMARK   12  A    between atoms: C21_32  and  N4_33 
ROOT
HETATM    1  C15 UNL     1      18.922  42.216  -8.698  1.00  0.00     0.010 A 
HETATM    2  C16 UNL     1      19.678  41.838  -7.625  1.00  0.00     0.036 A 
HETATM    3  C17 UNL     1      20.213  42.806  -6.867  1.00  0.00     0.068 A 
HETATM    4  C18 UNL     1      21.019  42.668  -5.724  1.00  0.00     0.272 A 
HETATM    5  O5  UNL     1      21.334  41.512  -5.274  1.00  0.00    -0.267 OA
HETATM    6  N2  UNL     1      21.483  43.730  -5.071  1.00  0.00    -0.155 N 
ATOM      7  H2  UNL     1      22.066  43.578  -4.247  1.00  0.00     0.187 HD
HETATM    8  C19 UNL     1      21.220  45.002  -5.447  1.00  0.00     0.681 A 
HETATM    9  N5  UNL     1      20.451  45.162  -6.536  1.00  0.00    -0.184 N 
ATOM     10  H5  UNL     1      20.229  46.107  -6.852  1.00  0.00     0.185 HD
HETATM   11  C26 UNL     1      19.961  44.106  -7.226  1.00  0.00     0.106 A 
HETATM   12  S1  UNL     1      18.983  43.919  -8.615  1.00  0.00    -0.073 SA
ENDROOT
BRANCH   1  13
HETATM   13  C14 UNL     1      18.219  41.387  -9.712  1.00  0.00     0.222 C 
BRANCH  13  14
HETATM   14  O4  UNL     1      18.833  40.123  -9.865  1.00  0.00    -0.346 OA
BRANCH  14  15
HETATM   15  C13 UNL     1      18.043  39.036  -9.542  1.00  0.00     0.076 A 
HETATM   16  C4  UNL     1      17.315  38.375 -10.508  1.00  0.00    -0.024 A 
HETATM   17  C5  UNL     1      16.524  37.285 -10.225  1.00  0.00     0.026 A 
HETATM   18  C6  UNL     1      16.415  36.783  -8.915  1.00  0.00     0.026 A 
HETATM   19  C10 UNL     1      17.129  37.434  -7.953  1.00  0.00    -0.045 A 
HETATM   20  C11 UNL     1      17.013  37.025  -6.526  1.00  0.00     0.049 C 
HETATM   21  C12 UNL     1      17.930  38.541  -8.260  1.00  0.00     0.045 A 
BRANCH  16  22
HETATM   22  C3  UNL     1      17.423  38.905 -11.908  1.00  0.00     0.041 C 
BRANCH  22  23
HETATM   23  C2  UNL     1      18.302  37.953 -12.679  1.00  0.00     0.000 C 
HETATM   24  C1  UNL     1      19.626  38.660 -12.925  1.00  0.00     0.005 C 
ENDBRANCH  22  23
ENDBRANCH  16  22
BRANCH  18  25
HETATM   25  C7  UNL     1      15.624  35.557  -8.708  1.00  0.00     0.251 C 
HETATM   26  O1  UNL     1      14.606  35.642  -7.922  1.00  0.00    -0.281 OA
BRANCH  25  27
HETATM   27  C8  UNL     1      15.901  34.281  -9.320  1.00  0.00     0.316 C 
HETATM   28  O2  UNL     1      17.031  33.890  -9.662  1.00  0.00    -0.262 OA
HETATM   29  N1  UNL     1      14.821  33.384  -9.560  1.00  0.00    -0.228 N 
ATOM     30  H1  UNL     1      13.877  33.665  -9.292  1.00  0.00     0.198 HD
BRANCH  29  31
HETATM   31  O3  UNL     1      15.006  32.164 -10.136  1.00  0.00    -0.282 OA
HETATM   32  C9  UNL     1      13.777  31.540 -10.213  1.00  0.00     0.237 C 
ENDBRANCH  29  31
ENDBRANCH  25  27
ENDBRANCH  18  25
ENDBRANCH  14  15
ENDBRANCH  13  14
ENDBRANCH   1  13
BRANCH   8  33
HETATM   33  N3  UNL     1      21.720  45.955  -4.757  1.00  0.00    -0.224 N 
ATOM     34  H3  UNL     1      21.073  46.480  -4.169  1.00  0.00     0.177 HD
BRANCH  33  35
HETATM   35  C20 UNL     1      23.083  46.364  -4.720  1.00  0.00     0.158 C 
BRANCH  35  36
HETATM   36  C21 UNL     1      23.166  47.863  -4.987  1.00  0.00     0.146 C 
BRANCH  36  37
HETATM   37  N4  UNL     1      23.428  48.147  -6.391  1.00  0.00    -0.351 N 
HETATM   38  C22 UNL     1      24.681  48.551  -6.950  1.00  0.00     0.126 C 
HETATM   39  C23 UNL     1      24.546  48.638  -8.438  1.00  0.00     0.029 C 
HETATM   40  C24 UNL     1      23.186  48.046  -8.753  1.00  0.00     0.104 C 
HETATM   41  C25 UNL     1      22.476  48.081  -7.451  1.00  0.00     0.219 C 
HETATM   42  O6  UNL     1      21.237  48.057  -7.260  1.00  0.00    -0.273 OA
ENDBRANCH  36  37
ENDBRANCH  35  36
ENDBRANCH  33  35
ENDBRANCH   8  33
TORSDOF 12
ENDMDL
MODEL 4
REMARK VINA RESULT: -9.363176352      1.155      2.593
REMARK  12 active torsions:
REMARK  status: ('A' for Active; 'I' for Inactive)
REMARK    1  A    between atoms: C2_2  and  C3_3 
REMARK    2  A    between atoms: C3_3  and  C4_4 
REMARK    3  A    between atoms: C6_6  and  C7_7 
REMARK    4  A    between atoms: C7_7  and  C8_9 
REMARK       I    between atoms: C8_9  and  N1_11 
REMARK    5  A    between atoms: N1_11  and  O3_13 
REMARK    6  A    between atoms: C13_18  and  O4_19 
REMARK    7  A    between atoms: O4_19  and  C14_20 
REMARK    8  A    between atoms: C14_20  and  C15_21 
REMARK    9  A    between atoms: C19_28  and  N3_29 
REMARK   10  A    between atoms: N3_29  and  C20_31 
REMARK   11  A    between atoms: C20_31  and  C21_32 
REMARK   12  A    between atoms: C21_32  and  N4_33 
ROOT
HETATM    1  C15 UNL     1      19.844  42.818 -10.442  1.00  0.00     0.010 A 
HETATM    2  C16 UNL     1      19.996  42.197 -11.649  1.00  0.00     0.036 A 
HETATM    3  C17 UNL     1      19.192  41.160 -11.923  1.00  0.00     0.068 A 
HETATM    4  C18 UNL     1      19.159  40.370 -13.085  1.00  0.00     0.272 A 
HETATM    5  O5  UNL     1      19.961  40.594 -14.058  1.00  0.00    -0.267 OA
HETATM    6  N2  UNL     1      18.300  39.363 -13.215  1.00  0.00    -0.155 N 
ATOM      7  H2  UNL     1      18.316  38.818 -14.077  1.00  0.00     0.187 HD
HETATM    8  C19 UNL     1      17.404  39.028 -12.259  1.00  0.00     0.681 A 
HETATM    9  N5  UNL     1      17.413  39.768 -11.138  1.00  0.00    -0.184 N 
ATOM     10  H5  UNL     1      16.753  39.547 -10.392  1.00  0.00     0.185 HD
HETATM   11  C26 UNL     1      18.274  40.799 -10.970  1.00  0.00     0.106 A 
HETATM   12  S1  UNL     1      18.576  41.930  -9.724  1.00  0.00    -0.073 SA
ENDROOT
BRANCH   1  13
HETATM   13  C14 UNL     1      20.582  43.969  -9.859  1.00  0.00     0.222 C 
BRANCH  13  14
HETATM   14  O4  UNL     1      21.376  43.573  -8.760  1.00  0.00    -0.346 OA
BRANCH  14  15
HETATM   15  C13 UNL     1      21.472  44.495  -7.734  1.00  0.00     0.076 A 
HETATM   16  C4  UNL     1      21.221  44.132  -6.428  1.00  0.00    -0.024 A 
HETATM   17  C5  UNL     1      21.313  45.019  -5.380  1.00  0.00     0.026 A 
HETATM   18  C6  UNL     1      21.672  46.363  -5.592  1.00  0.00     0.026 A 
HETATM   19  C10 UNL     1      21.917  46.731  -6.881  1.00  0.00    -0.045 A 
HETATM   20  C11 UNL     1      22.224  48.150  -7.212  1.00  0.00     0.049 C 
HETATM   21  C12 UNL     1      21.819  45.814  -7.935  1.00  0.00     0.045 A 
BRANCH  16  22
HETATM   22  C3  UNL     1      20.835  42.700  -6.192  1.00  0.00     0.041 C 
BRANCH  22  23
HETATM   23  C2  UNL     1      19.839  42.687  -5.061  1.00  0.00     0.000 C 
HETATM   24  C1  UNL     1      20.468  41.909  -3.915  1.00  0.00     0.005 C 
ENDBRANCH  22  23
ENDBRANCH  16  22
BRANCH  18  25
HETATM   25  C7  UNL     1      21.841  47.228  -4.411  1.00  0.00     0.251 C 
HETATM   26  O1  UNL     1      23.019  47.283  -3.889  1.00  0.00    -0.281 OA
BRANCH  25  27
HETATM   27  C8  UNL     1      20.796  48.015  -3.806  1.00  0.00     0.316 C 
HETATM   28  O2  UNL     1      20.139  48.892  -4.394  1.00  0.00    -0.262 OA
HETATM   29  N1  UNL     1      20.471  47.791  -2.436  1.00  0.00    -0.228 N 
ATOM     30  H1  UNL     1      20.984  47.079  -1.917  1.00  0.00     0.198 HD
BRANCH  29  31
HETATM   31  O3  UNL     1      19.497  48.498  -1.798  1.00  0.00    -0.282 OA
HETATM   32  C9  UNL     1      19.148  47.804  -0.657  1.00  0.00     0.237 C 
ENDBRANCH  29  31
ENDBRANCH  25  27
ENDBRANCH  18  25
ENDBRANCH  14  15
ENDBRANCH  13  14
ENDBRANCH   1  13
BRANCH   8  33
HETATM   33  N3  UNL     1      16.625  38.038 -12.476  1.00  0.00    -0.224 N 
ATOM     34  H3  UNL     1      15.997  38.121 -13.275  1.00  0.00     0.177 HD
BRANCH  33  35
HETATM   35  C20 UNL     1      16.539  36.833 -11.723  1.00  0.00     0.158 C 
BRANCH  35  36
HETATM   36  C21 UNL     1      15.353  36.920 -10.769  1.00  0.00     0.146 C 
BRANCH  36  37
HETATM   37  N4  UNL     1      15.718  36.520  -9.418  1.00  0.00    -0.351 N 
HETATM   38  C22 UNL     1      15.316  35.317  -8.756  1.00  0.00     0.126 C 
HETATM   39  C23 UNL     1      15.990  35.244  -7.422  1.00  0.00     0.029 C 
HETATM   40  C24 UNL     1      16.997  36.378  -7.420  1.00  0.00     0.104 C 
HETATM   41  C25 UNL     1      16.533  37.265  -8.515  1.00  0.00     0.219 C 
HETATM   42  O6  UNL     1      16.789  38.482  -8.668  1.00  0.00    -0.273 OA
ENDBRANCH  36  37
ENDBRANCH  35  36
ENDBRANCH  33  35
ENDBRANCH   8  33
TORSDOF 12
ENDMDL
MODEL 5
REMARK VINA RESULT: -9.351043927      1.245      1.602
REMARK  12 active torsions:
REMARK  status: ('A' for Active; 'I' for Inactive)
REMARK    1  A    between atoms: C2_2  and  C3_3 
REMARK    2  A    between atoms: C3_3  and  C4_4 
REMARK    3  A    between atoms: C6_6  and  C7_7 
REMARK    4  A    between atoms: C7_7  and  C8_9 
REMARK       I    between atoms: C8_9  and  N1_11 
REMARK    5  A    between atoms: N1_11  and  O3_13 
REMARK    6  A    between atoms: C13_18  and  O4_19 
REMARK    7  A    between atoms: O4_19  and  C14_20 
REMARK    8  A    between atoms: C14_20  and  C15_21 
REMARK    9  A    between atoms: C19_28  and  N3_29 
REMARK   10  A    between atoms: N3_29  and  C20_31 
REMARK   11  A    between atoms: C20_31  and  C21_32 
REMARK   12  A    between atoms: C21_32  and  N4_33 
ROOT
HETATM    1  C15 UNL     1      20.363  41.985  -9.927  1.00  0.00     0.010 A 
HETATM    2  C16 UNL     1      20.328  41.697 -11.262  1.00  0.00     0.036 A 
HETATM    3  C17 UNL     1      19.325  40.928 -11.709  1.00  0.00     0.068 A 
HETATM    4  C18 UNL     1      19.079  40.499 -13.024  1.00  0.00     0.272 A 
HETATM    5  O5  UNL     1      19.857  40.836 -13.984  1.00  0.00    -0.267 OA
HETATM    6  N2  UNL     1      18.035  39.730 -13.319  1.00  0.00    -0.155 N 
ATOM      7  H2  UNL     1      17.901  39.444 -14.289  1.00  0.00     0.187 HD
HETATM    8  C19 UNL     1      17.143  39.309 -12.394  1.00  0.00     0.681 A 
HETATM    9  N5  UNL     1      17.354  39.705 -11.128  1.00  0.00    -0.184 N 
ATOM     10  H5  UNL     1      16.704  39.408 -10.400  1.00  0.00     0.185 HD
HETATM   11  C26 UNL     1      18.406  40.487 -10.791  1.00  0.00     0.106 A 
HETATM   12  S1  UNL     1      18.987  41.169  -9.335  1.00  0.00    -0.073 SA
ENDROOT
BRANCH   1  13
HETATM   13  C14 UNL     1      21.340  42.790  -9.147  1.00  0.00     0.222 C 
BRANCH  13  14
HETATM   14  O4  UNL     1      21.242  44.165  -9.454  1.00  0.00    -0.346 OA
BRANCH  14  15
HETATM   15  C13 UNL     1      21.397  45.025  -8.383  1.00  0.00     0.076 A 
HETATM   16  C4  UNL     1      21.691  46.358  -8.579  1.00  0.00    -0.024 A 
HETATM   17  C5  UNL     1      21.846  47.244  -7.539  1.00  0.00     0.026 A 
HETATM   18  C6  UNL     1      21.711  46.831  -6.201  1.00  0.00     0.026 A 
HETATM   19  C10 UNL     1      21.424  45.513  -5.998  1.00  0.00    -0.045 A 
HETATM   20  C11 UNL     1      21.342  44.967  -4.616  1.00  0.00     0.049 C 
HETATM   21  C12 UNL     1      21.269  44.625  -7.070  1.00  0.00     0.045 A 
BRANCH  16  22
HETATM   22  C3  UNL     1      21.840  46.809 -10.003  1.00  0.00     0.041 C 
BRANCH  22  23
HETATM   23  C2  UNL     1      23.299  47.120 -10.223  1.00  0.00     0.000 C 
HETATM   24  C1  UNL     1      23.369  48.320 -11.154  1.00  0.00     0.005 C 
ENDBRANCH  22  23
ENDBRANCH  16  22
BRANCH  18  25
HETATM   25  C7  UNL     1      21.797  47.857  -5.147  1.00  0.00     0.251 C 
HETATM   26  O1  UNL     1      22.972  48.296  -4.851  1.00  0.00    -0.281 OA
BRANCH  25  27
HETATM   27  C8  UNL     1      20.671  48.406  -4.434  1.00  0.00     0.316 C 
HETATM   28  O2  UNL     1      20.613  48.542  -3.199  1.00  0.00    -0.262 OA
HETATM   29  N1  UNL     1      19.528  48.831  -5.172  1.00  0.00    -0.228 N 
ATOM     30  H1  UNL     1      19.535  48.738  -6.188  1.00  0.00     0.198 HD
BRANCH  29  31
HETATM   31  O3  UNL     1      18.428  49.356  -4.565  1.00  0.00    -0.282 OA
HETATM   32  C9  UNL     1      17.615  49.886  -5.547  1.00  0.00     0.237 C 
ENDBRANCH  29  31
ENDBRANCH  25  27
ENDBRANCH  18  25
ENDBRANCH  14  15
ENDBRANCH  13  14
ENDBRANCH   1  13
BRANCH   8  33
HETATM   33  N3  UNL     1      16.177  38.565 -12.777  1.00  0.00    -0.224 N 
ATOM     34  H3  UNL     1      15.258  39.004 -12.832  1.00  0.00     0.177 HD
BRANCH  33  35
HETATM   35  C20 UNL     1      16.244  37.189 -13.135  1.00  0.00     0.158 C 
BRANCH  35  36
HETATM   36  C21 UNL     1      17.194  36.468 -12.184  1.00  0.00     0.146 C 
BRANCH  36  37
HETATM   37  N4  UNL     1      16.473  35.655 -11.215  1.00  0.00    -0.351 N 
HETATM   38  C22 UNL     1      16.366  34.229 -11.222  1.00  0.00     0.126 C 
HETATM   39  C23 UNL     1      15.627  33.788  -9.998  1.00  0.00     0.029 C 
HETATM   40  C24 UNL     1      15.489  35.033  -9.143  1.00  0.00     0.104 C 
HETATM   41  C25 UNL     1      15.738  36.144 -10.094  1.00  0.00     0.219 C 
HETATM   42  O6  UNL     1      15.381  37.339  -9.977  1.00  0.00    -0.273 OA
ENDBRANCH  36  37
ENDBRANCH  35  36
ENDBRANCH  33  35
ENDBRANCH   8  33
TORSDOF 12
ENDMDL
