MODEL 1
REMARK VINA RESULT: -8.259334284      0.000      0.000
REMARK  13 active torsions:
REMARK  status: ('A' for Active; 'I' for Inactive)
REMARK    1  A    between atoms: C2_2  and  C3_3 
REMARK    2  A    between atoms: C3_3  and  C4_4 
REMARK    3  A    between atoms: C4_4  and  C5_5 
REMARK    4  A    between atoms: C6_6  and  C7_7 
REMARK    5  A    between atoms: N1_10  and  C8_11 
REMARK    6  A    between atoms: C8_11  and  C9_12 
REMARK    7  A    between atoms: C8_11  and  C13_16 
REMARK    8  A    between atoms: C9_12  and  C10_13 
REMARK    9  A    between atoms: C15_21  and  C16_22 
REMARK   10  A    between atoms: C16_22  and  C17_23 
REMARK   11  A    between atoms: C17_23  and  C18_24 
REMARK       I    between atoms: C18_24  and  N2_26 
REMARK   12  A    between atoms: N2_26  and  C19_28 
REMARK   13  A    between atoms: C22_33  and  C23_34 
ROOT
HETATM    1  C5  UNL     1      16.980  38.616  -9.607  1.00  0.00     0.070 C 
HETATM    2  C6  UNL     1      16.930  38.226 -10.907  1.00  0.00     0.140 C 
HETATM    3  N1  UNL     1      17.226  39.214 -11.900  1.00  0.00    -0.293 N 
HETATM    4  C14 UNL     1      17.551  40.551 -11.526  1.00  0.00     0.258 C 
HETATM    5  O5  UNL     1      17.407  41.578 -12.224  1.00  0.00    -0.270 OA
HETATM    6  C15 UNL     1      18.126  40.812 -10.172  1.00  0.00     0.164 C 
HETATM    7  C25 UNL     1      17.410  41.817  -9.331  1.00  0.00     0.245 C 
HETATM    8  O8  UNL     1      17.653  40.885  -8.318  1.00  0.00    -0.274 OA
HETATM    9  N4  UNL     1      17.460  39.923  -9.231  1.00  0.00    -0.238 N 
ENDROOT
BRANCH   6  10
HETATM   10  C16 UNL     1      19.613  40.818 -10.111  1.00  0.00     0.055 C 
BRANCH  10  11
HETATM   11  C17 UNL     1      20.103  42.225  -9.771  1.00  0.00     0.106 C 
BRANCH  11  12
HETATM   12  C18 UNL     1      21.239  42.166  -8.822  1.00  0.00     0.223 C 
HETATM   13  O6  UNL     1      21.227  41.543  -7.737  1.00  0.00    -0.273 OA
HETATM   14  N2  UNL     1      22.430  42.865  -9.164  1.00  0.00    -0.307 N 
ATOM     15  H2  UNL     1      23.270  42.386  -9.489  1.00  0.00     0.171 HD
BRANCH  14  16
HETATM   16  C19 UNL     1      22.370  44.175  -9.028  1.00  0.00     0.152 A 
HETATM   17  N3  UNL     1      21.873  44.856  -7.996  1.00  0.00    -0.339 N 
HETATM   18  C20 UNL     1      21.899  46.162  -8.034  1.00  0.00     0.028 A 
ATOM     19  H3  UNL     1      21.480  44.367  -7.192  1.00  0.00     0.168 HD
HETATM   20  C21 UNL     1      21.362  47.055  -6.918  1.00  0.00     0.070 C 
HETATM   21  C22 UNL     1      22.442  46.751  -9.146  1.00  0.00     0.076 A 
HETATM   22  S1  UNL     1      22.892  45.404 -10.087  1.00  0.00    -0.048 SA
BRANCH  21  23
HETATM   23  C23 UNL     1      22.589  48.199  -9.433  1.00  0.00     0.164 C 
HETATM   24  C24 UNL     1      23.675  48.917  -8.734  1.00  0.00     0.097 C 
HETATM   25  O7  UNL     1      21.843  48.793 -10.218  1.00  0.00    -0.292 OA
ENDBRANCH  21  23
ENDBRANCH  14  16
ENDBRANCH  11  12
ENDBRANCH  10  11
ENDBRANCH   6  10
BRANCH   3  26
HETATM   26  C8  UNL     1      17.212  38.894 -13.346  1.00  0.00     0.194 C 
BRANCH  26  27
HETATM   27  C9  UNL     1      16.077  38.007 -13.668  1.00  0.00     0.040 C 
BRANCH  27  28
HETATM   28  C10 UNL     1      15.841  37.473 -15.013  1.00  0.00    -0.020 C 
HETATM   29  C11 UNL     1      14.619  37.903 -15.758  1.00  0.00     0.009 C 
HETATM   30  C12 UNL     1      15.834  35.945 -15.063  1.00  0.00     0.009 C 
ENDBRANCH  27  28
ENDBRANCH  26  27
BRANCH  26  31
HETATM   31  C13 UNL     1      18.531  38.301 -13.639  1.00  0.00     0.197 C 
HETATM   32  O3  UNL     1      18.850  37.126 -13.811  1.00  0.00    -0.646 OA
HETATM   33  O4  UNL     1      19.630  39.206 -13.732  1.00  0.00    -0.646 OA
ENDBRANCH  26  31
ENDBRANCH   3  26
BRANCH   1  34
HETATM   34  C4  UNL     1      16.624  37.683  -8.544  1.00  0.00     0.062 C 
BRANCH  34  35
HETATM   35  C3  UNL     1      17.733  37.266  -7.619  1.00  0.00     0.006 C 
BRANCH  35  36
HETATM   36  C2  UNL     1      17.261  36.344  -6.537  1.00  0.00    -0.004 C 
HETATM   37  C1  UNL     1      15.914  35.722  -6.887  1.00  0.00     0.005 C 
ENDBRANCH  35  36
ENDBRANCH  34  35
ENDBRANCH   1  34
BRANCH   2  38
HETATM   38  C7  UNL     1      16.515  36.867 -11.214  1.00  0.00     0.229 C 
HETATM   39  O1  UNL     1      17.303  35.915 -11.448  1.00  0.00    -0.643 OA
HETATM   40  O2  UNL     1      15.191  36.426 -11.296  1.00  0.00    -0.643 OA
ENDBRANCH   2  38
TORSDOF 13
ENDMDL
MODEL 2
REMARK VINA RESULT: -8.123154586      3.242      9.972
REMARK  13 active torsions:
REMARK  status: ('A' for Active; 'I' for Inactive)
REMARK    1  A    between atoms: C2_2  and  C3_3 
REMARK    2  A    between atoms: C3_3  and  C4_4 
REMARK    3  A    between atoms: C4_4  and  C5_5 
REMARK    4  A    between atoms: C6_6  and  C7_7 
REMARK    5  A    between atoms: N1_10  and  C8_11 
REMARK    6  A    between atoms: C8_11  and  C9_12 
REMARK    7  A    between atoms: C8_11  and  C13_16 
REMARK    8  A    between atoms: C9_12  and  C10_13 
REMARK    9  A    between atoms: C15_21  and  C16_22 
REMARK   10  A    between atoms: C16_22  and  C17_23 
REMARK   11  A    between atoms: C17_23  and  C18_24 
REMARK       I    between atoms: C18_24  and  N2_26 
REMARK   12  A    between atoms: N2_26  and  C19_28 
REMARK   13  A    between atoms: C22_33  and  C23_34 
ROOT
HETATM    1  C5  UNL     1      21.411  45.132  -5.224  1.00  0.00     0.070 C 
HETATM    2  C6  UNL     1      21.629  45.540  -6.501  1.00  0.00     0.140 C 
HETATM    3  N1  UNL     1      21.563  44.545  -7.527  1.00  0.00    -0.293 N 
HETATM    4  C14 UNL     1      21.288  43.183  -7.208  1.00  0.00     0.258 C 
HETATM    5  O5  UNL     1      21.614  42.179  -7.877  1.00  0.00    -0.270 OA
HETATM    6  C15 UNL     1      20.535  42.863  -5.958  1.00  0.00     0.164 C 
HETATM    7  C25 UNL     1      21.189  41.905  -5.018  1.00  0.00     0.245 C 
HETATM    8  O8  UNL     1      20.725  42.803  -4.054  1.00  0.00    -0.274 OA
HETATM    9  N4  UNL     1      20.980  43.788  -4.926  1.00  0.00    -0.238 N 
ENDROOT
BRANCH   6  10
HETATM   10  C16 UNL     1      19.061  42.745  -6.125  1.00  0.00     0.055 C 
BRANCH  10  11
HETATM   11  C17 UNL     1      18.729  41.406  -6.784  1.00  0.00     0.106 C 
BRANCH  11  12
HETATM   12  C18 UNL     1      18.326  41.607  -8.196  1.00  0.00     0.223 C 
HETATM   13  O6  UNL     1      17.744  42.626  -8.631  1.00  0.00    -0.273 OA
HETATM   14  N2  UNL     1      18.618  40.571  -9.126  1.00  0.00    -0.307 N 
ATOM     15  H2  UNL     1      19.372  40.646  -9.808  1.00  0.00     0.171 HD
BRANCH  14  16
HETATM   16  C19 UNL     1      17.842  39.508  -9.044  1.00  0.00     0.152 A 
HETATM   17  N3  UNL     1      17.112  38.966 -10.018  1.00  0.00    -0.339 N 
HETATM   18  C20 UNL     1      16.399  37.903  -9.753  1.00  0.00     0.028 A 
ATOM     19  H3  UNL     1      17.109  39.374 -10.953  1.00  0.00     0.168 HD
HETATM   20  C21 UNL     1      15.522  37.191 -10.779  1.00  0.00     0.070 C 
HETATM   21  C22 UNL     1      16.451  37.411  -8.475  1.00  0.00     0.076 A 
HETATM   22  S1  UNL     1      17.521  38.495  -7.712  1.00  0.00    -0.048 SA
BRANCH  21  23
HETATM   23  C23 UNL     1      15.744  36.231  -7.922  1.00  0.00     0.164 C 
HETATM   24  C24 UNL     1      16.318  34.902  -8.219  1.00  0.00     0.097 C 
HETATM   25  O7  UNL     1      14.718  36.337  -7.242  1.00  0.00    -0.292 OA
ENDBRANCH  21  23
ENDBRANCH  14  16
ENDBRANCH  11  12
ENDBRANCH  10  11
ENDBRANCH   6  10
BRANCH   3  26
HETATM   26  C8  UNL     1      21.773  44.883  -8.955  1.00  0.00     0.194 C 
BRANCH  26  27
HETATM   27  C9  UNL     1      22.175  46.295  -9.097  1.00  0.00     0.040 C 
BRANCH  27  28
HETATM   28  C10 UNL     1      22.873  46.808 -10.280  1.00  0.00    -0.020 C 
HETATM   29  C11 UNL     1      23.539  48.145 -10.204  1.00  0.00     0.009 C 
HETATM   30  C12 UNL     1      21.988  46.863 -11.526  1.00  0.00     0.009 C 
ENDBRANCH  27  28
ENDBRANCH  26  27
BRANCH  26  31
HETATM   31  C13 UNL     1      20.506  44.554  -9.635  1.00  0.00     0.197 C 
HETATM   32  O3  UNL     1      19.374  45.000  -9.459  1.00  0.00    -0.646 OA
HETATM   33  O4  UNL     1      20.569  43.558 -10.654  1.00  0.00    -0.646 OA
ENDBRANCH  26  31
ENDBRANCH   3  26
BRANCH   1  34
HETATM   34  C4  UNL     1      21.528  46.076  -4.118  1.00  0.00     0.062 C 
BRANCH  34  35
HETATM   35  C3  UNL     1      20.248  46.682  -3.615  1.00  0.00     0.006 C 
BRANCH  35  36
HETATM   36  C2  UNL     1      20.462  48.015  -2.965  1.00  0.00    -0.004 C 
HETATM   37  C1  UNL     1      19.753  48.094  -1.617  1.00  0.00     0.005 C 
ENDBRANCH  35  36
ENDBRANCH  34  35
ENDBRANCH   1  34
BRANCH   2  38
HETATM   38  C7  UNL     1      21.980  46.931  -6.740  1.00  0.00     0.229 C 
HETATM   39  O1  UNL     1      21.160  47.831  -7.051  1.00  0.00    -0.643 OA
HETATM   40  O2  UNL     1      23.271  47.461  -6.661  1.00  0.00    -0.643 OA
ENDBRANCH   2  38
TORSDOF 13
ENDMDL
MODEL 3
REMARK VINA RESULT: -8.122050890      1.113      1.322
REMARK  13 active torsions:
REMARK  status: ('A' for Active; 'I' for Inactive)
REMARK    1  A    between atoms: C2_2  and  C3_3 
REMARK    2  A    between atoms: C3_3  and  C4_4 
REMARK    3  A    between atoms: C4_4  and  C5_5 
REMARK    4  A    between atoms: C6_6  and  C7_7 
REMARK    5  A    between atoms: N1_10  and  C8_11 
REMARK    6  A    between atoms: C8_11  and  C9_12 
REMARK    7  A    between atoms: C8_11  and  C13_16 
REMARK    8  A    between atoms: C9_12  and  C10_13 
REMARK    9  A    between atoms: C15_21  and  C16_22 
REMARK   10  A    between atoms: C16_22  and  C17_23 
REMARK   11  A    between atoms: C17_23  and  C18_24 
REMARK       I    between atoms: C18_24  and  N2_26 
REMARK   12  A    between atoms: N2_26  and  C19_28 
REMARK   13  A    between atoms: C22_33  and  C23_34 
ROOT
HETATM    1  C5  UNL     1      16.768  38.400  -9.593  1.00  0.00     0.070 C 
HETATM    2  C6  UNL     1      16.775  38.053 -10.906  1.00  0.00     0.140 C 
HETATM    3  N1  UNL     1      17.146  39.064 -11.849  1.00  0.00    -0.293 N 
HETATM    4  C14 UNL     1      17.485  40.379 -11.416  1.00  0.00     0.258 C 
HETATM    5  O5  UNL     1      17.402  41.430 -12.087  1.00  0.00    -0.270 OA
HETATM    6  C15 UNL     1      17.995  40.582 -10.028  1.00  0.00     0.164 C 
HETATM    7  C25 UNL     1      17.263  41.579  -9.191  1.00  0.00     0.245 C 
HETATM    8  O8  UNL     1      17.429  40.610  -8.198  1.00  0.00    -0.274 OA
HETATM    9  N4  UNL     1      17.261  39.682  -9.151  1.00  0.00    -0.238 N 
ENDROOT
BRANCH   6  10
HETATM   10  C16 UNL     1      19.477  40.547  -9.891  1.00  0.00     0.055 C 
BRANCH  10  11
HETATM   11  C17 UNL     1      20.004  41.968  -9.695  1.00  0.00     0.106 C 
BRANCH  11  12
HETATM   12  C18 UNL     1      21.447  41.947  -9.357  1.00  0.00     0.223 C 
HETATM   13  O6  UNL     1      22.055  40.953  -8.902  1.00  0.00    -0.273 OA
HETATM   14  N2  UNL     1      22.197  43.137  -9.563  1.00  0.00    -0.307 N 
ATOM     15  H2  UNL     1      22.848  43.245 -10.341  1.00  0.00     0.171 HD
BRANCH  14  16
HETATM   16  C19 UNL     1      21.992  44.091  -8.676  1.00  0.00     0.152 A 
HETATM   17  N3  UNL     1      21.502  43.954  -7.445  1.00  0.00    -0.339 N 
HETATM   18  C20 UNL     1      21.368  45.018  -6.699  1.00  0.00     0.028 A 
ATOM     19  H3  UNL     1      21.235  43.034  -7.091  1.00  0.00     0.168 HD
HETATM   20  C21 UNL     1      20.819  44.994  -5.275  1.00  0.00     0.070 C 
HETATM   21  C22 UNL     1      21.745  46.220  -7.239  1.00  0.00     0.076 A 
HETATM   22  S1  UNL     1      22.276  45.767  -8.794  1.00  0.00    -0.048 SA
BRANCH  21  23
HETATM   23  C23 UNL     1      21.694  47.561  -6.610  1.00  0.00     0.164 C 
HETATM   24  C24 UNL     1      22.828  47.941  -5.741  1.00  0.00     0.097 C 
HETATM   25  O7  UNL     1      20.752  48.338  -6.792  1.00  0.00    -0.292 OA
ENDBRANCH  21  23
ENDBRANCH  14  16
ENDBRANCH  11  12
ENDBRANCH  10  11
ENDBRANCH   6  10
BRANCH   3  26
HETATM   26  C8  UNL     1      17.199  38.789 -13.305  1.00  0.00     0.194 C 
BRANCH  26  27
HETATM   27  C9  UNL     1      16.087  37.905 -13.704  1.00  0.00     0.040 C 
BRANCH  27  28
HETATM   28  C10 UNL     1      15.850  37.503 -15.094  1.00  0.00    -0.020 C 
HETATM   29  C11 UNL     1      14.590  37.942 -15.769  1.00  0.00     0.009 C 
HETATM   30  C12 UNL     1      15.922  35.991 -15.306  1.00  0.00     0.009 C 
ENDBRANCH  27  28
ENDBRANCH  26  27
BRANCH  26  31
HETATM   31  C13 UNL     1      18.535  38.216 -13.557  1.00  0.00     0.197 C 
HETATM   32  O3  UNL     1      18.886  37.042 -13.657  1.00  0.00    -0.646 OA
HETATM   33  O4  UNL     1      19.609  39.143 -13.702  1.00  0.00    -0.646 OA
ENDBRANCH  26  31
ENDBRANCH   3  26
BRANCH   1  34
HETATM   34  C4  UNL     1      16.335  37.444  -8.580  1.00  0.00     0.062 C 
BRANCH  34  35
HETATM   35  C3  UNL     1      17.299  37.173  -7.460  1.00  0.00     0.006 C 
BRANCH  35  36
HETATM   36  C2  UNL     1      16.832  36.073  -6.556  1.00  0.00    -0.004 C 
HETATM   37  C1  UNL     1      15.708  35.267  -7.197  1.00  0.00     0.005 C 
ENDBRANCH  35  36
ENDBRANCH  34  35
ENDBRANCH   1  34
BRANCH   2  38
HETATM   38  C7  UNL     1      16.344  36.715 -11.278  1.00  0.00     0.229 C 
HETATM   39  O1  UNL     1      15.147  36.374 -11.453  1.00  0.00    -0.643 OA
HETATM   40  O2  UNL     1      17.192  35.624 -11.490  1.00  0.00    -0.643 OA
ENDBRANCH   2  38
TORSDOF 13
ENDMDL
MODEL 4
REMARK VINA RESULT: -8.100091891      1.518      4.432
REMARK  13 active torsions:
REMARK  status: ('A' for Active; 'I' for Inactive)
REMARK    1  A    between atoms: C2_2  and  C3_3 
REMARK    2  A    between atoms: C3_3  and  C4_4 
REMARK    3  A    between atoms: C4_4  and  C5_5 
REMARK    4  A    between atoms: C6_6  and  C7_7 
REMARK    5  A    between atoms: N1_10  and  C8_11 
REMARK    6  A    between atoms: C8_11  and  C9_12 
REMARK    7  A    between atoms: C8_11  and  C13_16 
REMARK    8  A    between atoms: C9_12  and  C10_13 
REMARK    9  A    between atoms: C15_21  and  C16_22 
REMARK   10  A    between atoms: C16_22  and  C17_23 
REMARK   11  A    between atoms: C17_23  and  C18_24 
REMARK       I    between atoms: C18_24  and  N2_26 
REMARK   12  A    between atoms: N2_26  and  C19_28 
REMARK   13  A    between atoms: C22_33  and  C23_34 
ROOT
HETATM    1  C5  UNL     1      17.795  39.016 -12.413  1.00  0.00     0.070 C 
HETATM    2  C6  UNL     1      17.592  38.568 -11.147  1.00  0.00     0.140 C 
HETATM    3  N1  UNL     1      18.458  39.076 -10.126  1.00  0.00    -0.293 N 
HETATM    4  C14 UNL     1      19.491  40.006 -10.439  1.00  0.00     0.258 C 
HETATM    5  O5  UNL     1      20.546  40.195  -9.797  1.00  0.00    -0.270 OA
HETATM    6  C15 UNL     1      19.352  40.872 -11.649  1.00  0.00     0.164 C 
HETATM    7  C25 UNL     1      20.476  40.824 -12.630  1.00  0.00     0.245 C 
HETATM    8  O8  UNL     1      19.435  40.821 -13.561  1.00  0.00    -0.274 OA
HETATM    9  N4  UNL     1      18.736  40.071 -12.697  1.00  0.00    -0.238 N 
ENDROOT
BRANCH   6  10
HETATM   10  C16 UNL     1      18.728  42.201 -11.403  1.00  0.00     0.055 C 
BRANCH  10  11
HETATM   11  C17 UNL     1      19.734  43.114 -10.704  1.00  0.00     0.106 C 
BRANCH  11  12
HETATM   12  C18 UNL     1      19.370  43.296  -9.279  1.00  0.00     0.223 C 
HETATM   13  O6  UNL     1      18.202  43.247  -8.832  1.00  0.00    -0.273 OA
HETATM   14  N2  UNL     1      20.417  43.545  -8.350  1.00  0.00    -0.307 N 
ATOM     15  H2  UNL     1      20.752  42.834  -7.700  1.00  0.00     0.171 HD
BRANCH  14  16
HETATM   16  C19 UNL     1      20.924  44.763  -8.387  1.00  0.00     0.152 A 
HETATM   17  N3  UNL     1      20.889  45.680  -7.422  1.00  0.00    -0.339 N 
HETATM   18  C20 UNL     1      21.448  46.841  -7.636  1.00  0.00     0.028 A 
ATOM     19  H3  UNL     1      20.433  45.479  -6.531  1.00  0.00     0.168 HD
HETATM   20  C21 UNL     1      21.476  47.973  -6.613  1.00  0.00     0.070 C 
HETATM   21  C22 UNL     1      22.041  47.040  -8.856  1.00  0.00     0.076 A 
HETATM   22  S1  UNL     1      21.769  45.551  -9.639  1.00  0.00    -0.048 SA
BRANCH  21  23
HETATM   23  C23 UNL     1      22.737  48.254  -9.345  1.00  0.00     0.164 C 
HETATM   24  C24 UNL     1      24.112  48.486  -8.856  1.00  0.00     0.097 C 
HETATM   25  O7  UNL     1      22.204  49.048 -10.127  1.00  0.00    -0.292 OA
ENDBRANCH  21  23
ENDBRANCH  14  16
ENDBRANCH  11  12
ENDBRANCH  10  11
ENDBRANCH   6  10
BRANCH   3  26
HETATM   26  C8  UNL     1      18.316  38.664  -8.709  1.00  0.00     0.194 C 
BRANCH  26  27
HETATM   27  C9  UNL     1      17.382  37.528  -8.593  1.00  0.00     0.040 C 
BRANCH  27  28
HETATM   28  C10 UNL     1      17.319  36.668  -7.407  1.00  0.00    -0.020 C 
HETATM   29  C11 UNL     1      16.657  35.332  -7.516  1.00  0.00     0.009 C 
HETATM   30  C12 UNL     1      16.671  37.348  -6.201  1.00  0.00     0.009 C 
ENDBRANCH  27  28
ENDBRANCH  26  27
BRANCH  26  31
HETATM   31  C13 UNL     1      17.879  39.871  -7.982  1.00  0.00     0.197 C 
HETATM   32  O3  UNL     1      16.843  40.525  -8.085  1.00  0.00    -0.646 OA
HETATM   33  O4  UNL     1      18.782  40.391  -7.008  1.00  0.00    -0.646 OA
ENDBRANCH  26  31
ENDBRANCH   3  26
BRANCH   1  34
HETATM   34  C4  UNL     1      16.998  38.492 -13.516  1.00  0.00     0.062 C 
BRANCH  34  35
HETATM   35  C3  UNL     1      17.626  37.401 -14.337  1.00  0.00     0.006 C 
BRANCH  35  36
HETATM   36  C2  UNL     1      16.626  36.383 -14.798  1.00  0.00    -0.004 C 
HETATM   37  C1  UNL     1      15.221  36.732 -14.322  1.00  0.00     0.005 C 
ENDBRANCH  35  36
ENDBRANCH  34  35
ENDBRANCH   1  34
BRANCH   2  38
HETATM   38  C7  UNL     1      16.569  37.561 -10.916  1.00  0.00     0.229 C 
HETATM   39  O1  UNL     1      16.734  36.325 -11.079  1.00  0.00    -0.643 OA
HETATM   40  O2  UNL     1      15.264  37.820 -10.487  1.00  0.00    -0.643 OA
ENDBRANCH   2  38
TORSDOF 13
ENDMDL
MODEL 5
REMARK VINA RESULT: -8.085109364      3.358     10.990
REMARK  13 active torsions:
REMARK  status: ('A' for Active; 'I' for Inactive)
REMARK    1  A    between atoms: C2_2  and  C3_3 
REMARK    2  A    between atoms: C3_3  and  C4_4 
REMARK    3  A    between atoms: C4_4  and  C5_5 
REMARK    4  A    between atoms: C6_6  and  C7_7 
REMARK    5  A    between atoms: N1_10  and  C8_11 
REMARK    6  A    between atoms: C8_11  and  C9_12 
REMARK    7  A    between atoms: C8_11  and  C13_16 
REMARK    8  A    between atoms: C9_12  and  C10_13 
REMARK    9  A    between atoms: C15_21  and  C16_22 
REMARK   10  A    between atoms: C16_22  and  C17_23 
REMARK   11  A    between atoms: C17_23  and  C18_24 
REMARK       I    between atoms: C18_24  and  N2_26 
REMARK   12  A    between atoms: N2_26  and  C19_28 
REMARK   13  A    between atoms: C22_33  and  C23_34 
ROOT
HETATM    1  C5  UNL     1      20.977  45.791  -8.010  1.00  0.00     0.070 C 
HETATM    2  C6  UNL     1      21.287  46.002  -6.704  1.00  0.00     0.140 C 
HETATM    3  N1  UNL     1      20.595  45.213  -5.731  1.00  0.00    -0.293 N 
HETATM    4  C14 UNL     1      19.618  44.254  -6.128  1.00  0.00     0.258 C 
HETATM    5  O5  UNL     1      18.666  43.829  -5.439  1.00  0.00    -0.270 OA
HETATM    6  C15 UNL     1      19.690  43.662  -7.497  1.00  0.00     0.164 C 
HETATM    7  C25 UNL     1      18.459  43.777  -8.334  1.00  0.00     0.245 C 
HETATM    8  O8  UNL     1      19.380  44.077  -9.341  1.00  0.00    -0.274 OA
HETATM    9  N4  UNL     1      20.106  44.715  -8.412  1.00  0.00    -0.238 N 
ENDROOT
BRANCH   6  10
HETATM   10  C16 UNL     1      20.453  42.388  -7.592  1.00  0.00     0.055 C 
BRANCH  10  11
HETATM   11  C17 UNL     1      19.491  41.239  -7.892  1.00  0.00     0.106 C 
BRANCH  11  12
HETATM   12  C18 UNL     1      20.132  40.240  -8.779  1.00  0.00     0.223 C 
HETATM   13  O6  UNL     1      20.668  40.506  -9.878  1.00  0.00    -0.273 OA
HETATM   14  N2  UNL     1      20.142  38.882  -8.356  1.00  0.00    -0.307 N 
ATOM     15  H2  UNL     1      20.982  38.428  -7.997  1.00  0.00     0.171 HD
BRANCH  14  16
HETATM   16  C19 UNL     1      18.988  38.252  -8.463  1.00  0.00     0.152 A 
HETATM   17  N3  UNL     1      18.142  38.291  -9.491  1.00  0.00    -0.339 N 
HETATM   18  C20 UNL     1      17.037  37.597  -9.423  1.00  0.00     0.028 A 
ATOM     19  H3  UNL     1      18.352  38.853 -10.316  1.00  0.00     0.168 HD
HETATM   20  C21 UNL     1      15.988  37.557 -10.531  1.00  0.00     0.070 C 
HETATM   21  C22 UNL     1      16.820  36.866  -8.284  1.00  0.00     0.076 A 
HETATM   22  S1  UNL     1      18.212  37.209  -7.362  1.00  0.00    -0.048 SA
BRANCH  21  23
HETATM   23  C23 UNL     1      15.658  36.004  -7.959  1.00  0.00     0.164 C 
HETATM   24  C24 UNL     1      15.681  34.620  -8.479  1.00  0.00     0.097 C 
HETATM   25  O7  UNL     1      14.705  36.409  -7.286  1.00  0.00    -0.292 OA
ENDBRANCH  21  23
ENDBRANCH  14  16
ENDBRANCH  11  12
ENDBRANCH  10  11
ENDBRANCH   6  10
BRANCH   3  26
HETATM   26  C8  UNL     1      20.864  45.353  -4.280  1.00  0.00     0.194 C 
BRANCH  26  27
HETATM   27  C9  UNL     1      20.843  46.775  -3.886  1.00  0.00     0.040 C 
BRANCH  27  28
HETATM   28  C10 UNL     1      20.979  47.217  -2.494  1.00  0.00    -0.020 C 
HETATM   29  C11 UNL     1      19.880  48.025  -1.882  1.00  0.00     0.009 C 
HETATM   30  C12 UNL     1      22.262  48.006  -2.234  1.00  0.00     0.009 C 
ENDBRANCH  27  28
ENDBRANCH  26  27
BRANCH  26  31
HETATM   31  C13 UNL     1      22.162  44.691  -4.047  1.00  0.00     0.197 C 
HETATM   32  O3  UNL     1      23.134  45.063  -3.392  1.00  0.00    -0.646 OA
HETATM   33  O4  UNL     1      22.354  43.425  -4.675  1.00  0.00    -0.646 OA
ENDBRANCH  26  31
ENDBRANCH   3  26
BRANCH   1  34
HETATM   34  C4  UNL     1      21.590  46.605  -9.053  1.00  0.00     0.062 C 
BRANCH  34  35
HETATM   35  C3  UNL     1      22.481  45.886 -10.027  1.00  0.00     0.006 C 
BRANCH  35  36
HETATM   36  C2  UNL     1      22.973  46.782 -11.123  1.00  0.00    -0.004 C 
HETATM   37  C1  UNL     1      22.899  48.249 -10.715  1.00  0.00     0.005 C 
ENDBRANCH  35  36
ENDBRANCH  34  35
ENDBRANCH   1  34
BRANCH   2  38
HETATM   38  C7  UNL     1      22.237  47.052  -6.371  1.00  0.00     0.229 C 
HETATM   39  O1  UNL     1      23.469  46.871  -6.200  1.00  0.00    -0.643 OA
HETATM   40  O2  UNL     1      21.918  48.401  -6.193  1.00  0.00    -0.643 OA
ENDBRANCH   2  38
TORSDOF 13
ENDMDL
