MODEL 1
REMARK VINA RESULT: -7.992650895      0.000      0.000
REMARK  12 active torsions:
REMARK  status: ('A' for Active; 'I' for Inactive)
REMARK    1  A    between atoms: C2_2  and  N1_3 
REMARK    2  A    between atoms: N1_3  and  C3_5 
REMARK    3  A    between atoms: C6_13  and  C7_14 
REMARK    4  A    between atoms: C7_14  and  C8_15 
REMARK    5  A    between atoms: C9_16  and  O2_17 
REMARK    6  A    between atoms: O2_17  and  C10_18 
REMARK    7  A    between atoms: C10_18  and  C11_19 
REMARK    8  A    between atoms: C11_19  and  C12_20 
REMARK    9  A    between atoms: C12_20  and  N4_21 
REMARK   10  A    between atoms: N4_21  and  C14_23 
REMARK   11  A    between atoms: C14_23  and  C15_24 
REMARK   12  A    between atoms: C15_24  and  N5_25 
ROOT
HETATM    1  C8  UNL     1      21.135  42.727  -9.467  1.00  0.00    -0.011 A 
HETATM    2  C9  UNL     1      20.804  43.747 -10.400  1.00  0.00     0.076 A 
HETATM    3  C17 UNL     1      19.893  43.520 -11.402  1.00  0.00     0.038 A 
HETATM    4  C18 UNL     1      19.298  42.279 -11.497  1.00  0.00     0.010 A 
HETATM    5  C19 UNL     1      19.591  41.266 -10.619  1.00  0.00    -0.051 A 
HETATM    6  C20 UNL     1      20.528  41.517  -9.597  1.00  0.00    -0.042 A 
HETATM    7  C21 UNL     1      20.856  40.417  -8.650  1.00  0.00     0.040 C 
HETATM    8  C22 UNL     1      19.629  40.006  -7.818  1.00  0.00     0.005 C 
HETATM    9  C23 UNL     1      19.374  38.542  -7.856  1.00  0.00     0.000 C 
HETATM   10  C24 UNL     1      18.235  38.104  -8.713  1.00  0.00     0.000 C 
HETATM   11  C25 UNL     1      17.243  39.153  -9.059  1.00  0.00     0.000 C 
HETATM   12  C26 UNL     1      17.508  39.918 -10.312  1.00  0.00     0.005 C 
HETATM   13  C27 UNL     1      18.918  39.942 -10.784  1.00  0.00     0.039 C 
ENDROOT
BRANCH   1  14
HETATM   14  C7  UNL     1      22.120  43.081  -8.422  1.00  0.00     0.118 C 
BRANCH  14  15
HETATM   15  C6  UNL     1      21.657  44.023  -7.400  1.00  0.00     0.088 A 
HETATM   16  N3  UNL     1      21.702  45.362  -7.513  1.00  0.00    -0.339 N 
HETATM   17  C5  UNL     1      21.237  45.984  -6.429  1.00  0.00     0.135 A 
ATOM     18  H3  UNL     1      22.053  45.849  -8.338  1.00  0.00     0.167 HD
HETATM   19  C4  UNL     1      21.150  47.338  -6.223  1.00  0.00     0.288 C 
HETATM   20  C29 UNL     1      20.876  44.939  -5.575  1.00  0.00     0.137 A 
HETATM   21  N2  UNL     1      20.894  47.950  -5.063  1.00  0.00    -0.154 N 
HETATM   22  O1  UNL     1      21.322  48.078  -7.204  1.00  0.00    -0.265 OA
HETATM   23  C3  UNL     1      20.712  47.449  -3.812  1.00  0.00     0.683 C 
ATOM     24  H2  UNL     1      20.825  48.966  -5.126  1.00  0.00     0.187 HD
HETATM   25  N7  UNL     1      20.402  46.185  -3.498  1.00  0.00    -0.154 N 
HETATM   26  C30 UNL     1      20.328  45.119  -4.324  1.00  0.00     0.289 C 
ATOM     27  H7  UNL     1      20.197  46.005  -2.515  1.00  0.00     0.187 HD
HETATM   28  O3  UNL     1      19.661  44.134  -3.904  1.00  0.00    -0.265 OA
HETATM   29  N6  UNL     1      21.142  43.770  -6.186  1.00  0.00    -0.334 N 
HETATM   30  C28 UNL     1      20.899  42.493  -5.526  1.00  0.00     0.158 C 
BRANCH  23  31
HETATM   31  N1  UNL     1      20.855  48.281  -2.837  1.00  0.00    -0.226 N 
ATOM     32  H1  UNL     1      21.096  49.245  -3.067  1.00  0.00     0.177 HD
BRANCH  31  33
HETATM   33  C2  UNL     1      20.698  47.945  -1.455  1.00  0.00     0.133 C 
HETATM   34  C1  UNL     1      19.318  48.384  -0.982  1.00  0.00     0.027 C 
ENDBRANCH  31  33
ENDBRANCH  23  31
ENDBRANCH  14  15
ENDBRANCH   1  14
BRANCH   2  35
HETATM   35  O2  UNL     1      21.385  44.972 -10.315  1.00  0.00    -0.351 OA
BRANCH  35  36
HETATM   36  C10 UNL     1      21.210  46.149 -10.982  1.00  0.00     0.177 C 
BRANCH  36  37
HETATM   37  C11 UNL     1      22.425  46.967 -11.300  1.00  0.00     0.057 C 
BRANCH  37  38
HETATM   38  C12 UNL     1      22.506  48.133 -10.322  1.00  0.00     0.274 C 
BRANCH  38  39
HETATM   39  N4  UNL     1      23.821  48.241  -9.758  1.00  0.00     0.085 N 
HETATM   40  C13 UNL     1      24.220  46.927  -9.283  1.00  0.00     0.309 C 
BRANCH  39  41
HETATM   41  C14 UNL     1      23.854  49.196  -8.690  1.00  0.00     0.299 C 
BRANCH  41  42
HETATM   42  C15 UNL     1      24.796  48.731  -7.592  1.00  0.00     0.262 C 
BRANCH  42  43
HETATM   43  N5  UNL     1      24.216  49.063  -6.301  1.00  0.00    -0.077 N 
HETATM   44  C16 UNL     1      25.234  49.162  -5.271  1.00  0.00     0.267 C 
ATOM     45  H52 UNL     1      23.653  49.911  -6.352  1.00  0.00     0.276 HD
ATOM     46  H51 UNL     1      23.484  48.402  -6.039  1.00  0.00     0.276 HD
ENDBRANCH  42  43
ENDBRANCH  41  42
ENDBRANCH  39  41
ENDBRANCH  38  39
ENDBRANCH  37  38
ENDBRANCH  36  37
ENDBRANCH  35  36
ENDBRANCH   2  35
TORSDOF 12
ENDMDL
MODEL 2
REMARK VINA RESULT: -7.901938998      6.073     11.821
REMARK  12 active torsions:
REMARK  status: ('A' for Active; 'I' for Inactive)
REMARK    1  A    between atoms: C2_2  and  N1_3 
REMARK    2  A    between atoms: N1_3  and  C3_5 
REMARK    3  A    between atoms: C6_13  and  C7_14 
REMARK    4  A    between atoms: C7_14  and  C8_15 
REMARK    5  A    between atoms: C9_16  and  O2_17 
REMARK    6  A    between atoms: O2_17  and  C10_18 
REMARK    7  A    between atoms: C10_18  and  C11_19 
REMARK    8  A    between atoms: C11_19  and  C12_20 
REMARK    9  A    between atoms: C12_20  and  N4_21 
REMARK   10  A    between atoms: N4_21  and  C14_23 
REMARK   11  A    between atoms: C14_23  and  C15_24 
REMARK   12  A    between atoms: C15_24  and  N5_25 
ROOT
HETATM    1  C8  UNL     1      18.533  40.869 -10.413  1.00  0.00    -0.011 A 
HETATM    2  C9  UNL     1      18.241  39.771  -9.559  1.00  0.00     0.076 A 
HETATM    3  C17 UNL     1      18.997  39.524  -8.440  1.00  0.00     0.038 A 
HETATM    4  C18 UNL     1      20.056  40.360  -8.151  1.00  0.00     0.010 A 
HETATM    5  C19 UNL     1      20.374  41.431  -8.949  1.00  0.00    -0.051 A 
HETATM    6  C20 UNL     1      19.585  41.668 -10.093  1.00  0.00    -0.042 A 
HETATM    7  C21 UNL     1      19.934  42.821 -10.966  1.00  0.00     0.040 C 
HETATM    8  C22 UNL     1      19.771  44.159 -10.224  1.00  0.00     0.005 C 
HETATM    9  C23 UNL     1      20.982  45.017 -10.316  1.00  0.00     0.000 C 
HETATM   10  C24 UNL     1      21.824  45.084  -9.086  1.00  0.00     0.000 C 
HETATM   11  C25 UNL     1      21.160  44.675  -7.823  1.00  0.00     0.000 C 
HETATM   12  C26 UNL     1      21.269  43.231  -7.464  1.00  0.00     0.005 C 
HETATM   13  C27 UNL     1      21.540  42.291  -8.583  1.00  0.00     0.039 C 
ENDROOT
BRANCH   1  14
HETATM   14  C7  UNL     1      17.648  41.050 -11.584  1.00  0.00     0.118 C 
BRANCH  14  15
HETATM   15  C6  UNL     1      17.383  39.847 -12.377  1.00  0.00     0.088 A 
HETATM   16  N3  UNL     1      16.165  39.312 -12.577  1.00  0.00    -0.339 N 
HETATM   17  C5  UNL     1      16.207  38.206 -13.320  1.00  0.00     0.135 A 
ATOM     18  H3  UNL     1      15.303  39.710 -12.202  1.00  0.00     0.167 HD
HETATM   19  C4  UNL     1      15.147  37.422 -13.701  1.00  0.00     0.288 C 
HETATM   20  C29 UNL     1      17.566  38.044 -13.601  1.00  0.00     0.137 A 
HETATM   21  N2  UNL     1      15.215  36.205 -14.250  1.00  0.00    -0.154 N 
HETATM   22  O1  UNL     1      14.007  37.876 -13.523  1.00  0.00    -0.265 OA
HETATM   23  C3  UNL     1      16.284  35.411 -14.526  1.00  0.00     0.683 C 
ATOM     24  H2  UNL     1      14.313  35.804 -14.506  1.00  0.00     0.187 HD
HETATM   25  N7  UNL     1      17.560  35.801 -14.630  1.00  0.00    -0.154 N 
HETATM   26  C30 UNL     1      18.080  37.019 -14.364  1.00  0.00     0.289 C 
ATOM     27  H7  UNL     1      18.221  35.093 -14.949  1.00  0.00     0.187 HD
HETATM   28  O3  UNL     1      19.202  37.272 -14.884  1.00  0.00    -0.265 OA
HETATM   29  N6  UNL     1      18.249  39.047 -13.019  1.00  0.00    -0.334 N 
HETATM   30  C28 UNL     1      19.702  39.131 -13.110  1.00  0.00     0.158 C 
BRANCH  23  31
HETATM   31  N1  UNL     1      16.034  34.158 -14.704  1.00  0.00    -0.226 N 
ATOM     32  H1  UNL     1      15.798  33.851 -15.648  1.00  0.00     0.177 HD
BRANCH  31  33
HETATM   33  C2  UNL     1      16.064  33.171 -13.670  1.00  0.00     0.133 C 
HETATM   34  C1  UNL     1      16.804  31.937 -14.172  1.00  0.00     0.027 C 
ENDBRANCH  31  33
ENDBRANCH  23  31
ENDBRANCH  14  15
ENDBRANCH   1  14
BRANCH   2  35
HETATM   35  O2  UNL     1      17.201  38.941  -9.836  1.00  0.00    -0.351 OA
BRANCH  35  36
HETATM   36  C10 UNL     1      17.012  37.595  -9.726  1.00  0.00     0.177 C 
BRANCH  36  37
HETATM   37  C11 UNL     1      15.649  37.048 -10.028  1.00  0.00     0.057 C 
BRANCH  37  38
HETATM   38  C12 UNL     1      15.782  35.583 -10.429  1.00  0.00     0.274 C 
BRANCH  38  39
HETATM   39  N4  UNL     1      16.147  34.774  -9.302  1.00  0.00     0.085 N 
HETATM   40  C13 UNL     1      16.221  33.390  -9.742  1.00  0.00     0.309 C 
BRANCH  39  41
HETATM   41  C14 UNL     1      15.205  34.914  -8.232  1.00  0.00     0.299 C 
BRANCH  41  42
HETATM   42  C15 UNL     1      15.926  35.207  -6.926  1.00  0.00     0.262 C 
BRANCH  42  43
HETATM   43  N5  UNL     1      15.529  36.523  -6.453  1.00  0.00    -0.077 N 
HETATM   44  C16 UNL     1      16.662  37.426  -6.384  1.00  0.00     0.267 C 
ATOM     45  H52 UNL     1      14.776  36.912  -7.020  1.00  0.00     0.276 HD
ATOM     46  H51 UNL     1      15.041  36.468  -5.559  1.00  0.00     0.276 HD
ENDBRANCH  42  43
ENDBRANCH  41  42
ENDBRANCH  39  41
ENDBRANCH  38  39
ENDBRANCH  37  38
ENDBRANCH  36  37
ENDBRANCH  35  36
ENDBRANCH   2  35
TORSDOF 12
ENDMDL
MODEL 3
REMARK VINA RESULT: -7.778423086      6.661     12.569
REMARK  12 active torsions:
REMARK  status: ('A' for Active; 'I' for Inactive)
REMARK    1  A    between atoms: C2_2  and  N1_3 
REMARK    2  A    between atoms: N1_3  and  C3_5 
REMARK    3  A    between atoms: C6_13  and  C7_14 
REMARK    4  A    between atoms: C7_14  and  C8_15 
REMARK    5  A    between atoms: C9_16  and  O2_17 
REMARK    6  A    between atoms: O2_17  and  C10_18 
REMARK    7  A    between atoms: C10_18  and  C11_19 
REMARK    8  A    between atoms: C11_19  and  C12_20 
REMARK    9  A    between atoms: C12_20  and  N4_21 
REMARK   10  A    between atoms: N4_21  and  C14_23 
REMARK   11  A    between atoms: C14_23  and  C15_24 
REMARK   12  A    between atoms: C15_24  and  N5_25 
ROOT
HETATM    1  C8  UNL     1      18.370  40.524 -10.316  1.00  0.00    -0.011 A 
HETATM    2  C9  UNL     1      18.044  39.426  -9.474  1.00  0.00     0.076 A 
HETATM    3  C17 UNL     1      18.800  39.136  -8.365  1.00  0.00     0.038 A 
HETATM    4  C18 UNL     1      19.892  39.928  -8.074  1.00  0.00     0.010 A 
HETATM    5  C19 UNL     1      20.242  40.997  -8.861  1.00  0.00    -0.051 A 
HETATM    6  C20 UNL     1      19.454  41.279  -9.995  1.00  0.00    -0.042 A 
HETATM    7  C21 UNL     1      19.838  42.430 -10.856  1.00  0.00     0.040 C 
HETATM    8  C22 UNL     1      19.731  43.763 -10.094  1.00  0.00     0.005 C 
HETATM    9  C23 UNL     1      20.973  44.577 -10.185  1.00  0.00     0.000 C 
HETATM   10  C24 UNL     1      21.826  44.596  -8.963  1.00  0.00     0.000 C 
HETATM   11  C25 UNL     1      21.158  44.194  -7.699  1.00  0.00     0.000 C 
HETATM   12  C26 UNL     1      21.216  42.743  -7.360  1.00  0.00     0.005 C 
HETATM   13  C27 UNL     1      21.442  41.809  -8.494  1.00  0.00     0.039 C 
ENDROOT
BRANCH   1  14
HETATM   14  C7  UNL     1      17.482  40.753 -11.477  1.00  0.00     0.118 C 
BRANCH  14  15
HETATM   15  C6  UNL     1      17.248  39.594 -12.342  1.00  0.00     0.088 A 
HETATM   16  N3  UNL     1      16.043  39.052 -12.588  1.00  0.00    -0.339 N 
HETATM   17  C5  UNL     1      16.113  37.991 -13.393  1.00  0.00     0.135 A 
ATOM     18  H3  UNL     1      15.170  39.412 -12.202  1.00  0.00     0.167 HD
HETATM   19  C4  UNL     1      15.072  37.212 -13.833  1.00  0.00     0.288 C 
HETATM   20  C29 UNL     1      17.479  37.870 -13.665  1.00  0.00     0.137 A 
HETATM   21  N2  UNL     1      15.168  36.031 -14.451  1.00  0.00    -0.154 N 
HETATM   22  O1  UNL     1      13.922  37.637 -13.644  1.00  0.00    -0.265 OA
HETATM   23  C3  UNL     1      16.254  35.273 -14.759  1.00  0.00     0.683 C 
ATOM     24  H2  UNL     1      14.276  35.631 -14.741  1.00  0.00     0.187 HD
HETATM   25  N7  UNL     1      17.524  35.690 -14.823  1.00  0.00    -0.154 N 
HETATM   26  C30 UNL     1      18.020  36.899 -14.479  1.00  0.00     0.289 C 
ATOM     27  H7  UNL     1      18.201  35.013 -15.173  1.00  0.00     0.187 HD
HETATM   28  O3  UNL     1      19.143  37.201 -14.969  1.00  0.00    -0.265 OA
HETATM   29  N6  UNL     1      18.137  38.848 -13.017  1.00  0.00    -0.334 N 
HETATM   30  C28 UNL     1      19.589  38.962 -13.084  1.00  0.00     0.158 C 
BRANCH  23  31
HETATM   31  N1  UNL     1      16.029  34.029 -15.012  1.00  0.00    -0.226 N 
ATOM     32  H1  UNL     1      15.059  33.738 -15.134  1.00  0.00     0.177 HD
BRANCH  31  33
HETATM   33  C2  UNL     1      17.044  33.029 -15.134  1.00  0.00     0.133 C 
HETATM   34  C1  UNL     1      16.800  31.933 -14.104  1.00  0.00     0.027 C 
ENDBRANCH  31  33
ENDBRANCH  23  31
ENDBRANCH  14  15
ENDBRANCH   1  14
BRANCH   2  35
HETATM   35  O2  UNL     1      16.972  38.639  -9.753  1.00  0.00    -0.351 OA
BRANCH  35  36
HETATM   36  C10 UNL     1      16.387  37.582  -9.122  1.00  0.00     0.177 C 
BRANCH  36  37
HETATM   37  C11 UNL     1      15.651  36.580  -9.959  1.00  0.00     0.057 C 
BRANCH  37  38
HETATM   38  C12 UNL     1      15.598  35.253  -9.211  1.00  0.00     0.274 C 
BRANCH  38  39
HETATM   39  N4  UNL     1      16.441  34.276  -9.839  1.00  0.00     0.085 N 
HETATM   40  C13 UNL     1      16.408  34.504 -11.274  1.00  0.00     0.309 C 
BRANCH  39  41
HETATM   41  C14 UNL     1      16.014  32.943  -9.529  1.00  0.00     0.299 C 
BRANCH  41  42
HETATM   42  C15 UNL     1      15.037  32.442 -10.581  1.00  0.00     0.262 C 
BRANCH  42  43
HETATM   43  N5  UNL     1      13.753  32.190  -9.949  1.00  0.00    -0.077 N 
HETATM   44  C16 UNL     1      13.444  30.772  -9.921  1.00  0.00     0.267 C 
ATOM     45  H52 UNL     1      13.709  32.600  -9.016  1.00  0.00     0.276 HD
ATOM     46  H51 UNL     1      13.007  32.726 -10.392  1.00  0.00     0.276 HD
ENDBRANCH  42  43
ENDBRANCH  41  42
ENDBRANCH  39  41
ENDBRANCH  38  39
ENDBRANCH  37  38
ENDBRANCH  36  37
ENDBRANCH  35  36
ENDBRANCH   2  35
TORSDOF 12
ENDMDL
MODEL 4
REMARK VINA RESULT: -7.711558038      5.146     10.202
REMARK  12 active torsions:
REMARK  status: ('A' for Active; 'I' for Inactive)
REMARK    1  A    between atoms: C2_2  and  N1_3 
REMARK    2  A    between atoms: N1_3  and  C3_5 
REMARK    3  A    between atoms: C6_13  and  C7_14 
REMARK    4  A    between atoms: C7_14  and  C8_15 
REMARK    5  A    between atoms: C9_16  and  O2_17 
REMARK    6  A    between atoms: O2_17  and  C10_18 
REMARK    7  A    between atoms: C10_18  and  C11_19 
REMARK    8  A    between atoms: C11_19  and  C12_20 
REMARK    9  A    between atoms: C12_20  and  N4_21 
REMARK   10  A    between atoms: N4_21  and  C14_23 
REMARK   11  A    between atoms: C14_23  and  C15_24 
REMARK   12  A    between atoms: C15_24  and  N5_25 
ROOT
HETATM    1  C8  UNL     1      19.006  42.278  -9.178  1.00  0.00    -0.011 A 
HETATM    2  C9  UNL     1      19.901  41.866 -10.202  1.00  0.00     0.076 A 
HETATM    3  C17 UNL     1      21.203  42.300 -10.220  1.00  0.00     0.038 A 
HETATM    4  C18 UNL     1      21.639  43.150  -9.225  1.00  0.00     0.010 A 
HETATM    5  C19 UNL     1      20.808  43.574  -8.218  1.00  0.00    -0.051 A 
HETATM    6  C20 UNL     1      19.474  43.118  -8.217  1.00  0.00    -0.042 A 
HETATM    7  C21 UNL     1      18.568  43.585  -7.133  1.00  0.00     0.040 C 
HETATM    8  C22 UNL     1      19.040  43.094  -5.753  1.00  0.00     0.005 C 
HETATM    9  C23 UNL     1      19.149  44.194  -4.759  1.00  0.00     0.000 C 
HETATM   10  C24 UNL     1      20.535  44.648  -4.444  1.00  0.00     0.000 C 
HETATM   11  C25 UNL     1      21.623  43.700  -4.793  1.00  0.00     0.000 C 
HETATM   12  C26 UNL     1      22.202  43.842  -6.161  1.00  0.00     0.005 C 
HETATM   13  C27 UNL     1      21.341  44.503  -7.176  1.00  0.00     0.039 C 
ENDROOT
BRANCH   1  14
HETATM   14  C7  UNL     1      17.629  41.743  -9.248  1.00  0.00     0.118 C 
BRANCH  14  15
HETATM   15  C6  UNL     1      17.507  40.284  -9.207  1.00  0.00     0.088 A 
HETATM   16  N3  UNL     1      16.788  39.549 -10.075  1.00  0.00    -0.339 N 
HETATM   17  C5  UNL     1      16.829  38.246  -9.799  1.00  0.00     0.135 A 
ATOM     18  H3  UNL     1      16.269  39.946 -10.858  1.00  0.00     0.167 HD
HETATM   19  C4  UNL     1      16.204  37.233 -10.483  1.00  0.00     0.288 C 
HETATM   20  C29 UNL     1      17.642  38.171  -8.665  1.00  0.00     0.137 A 
HETATM   21  N2  UNL     1      16.067  35.967 -10.077  1.00  0.00    -0.154 N 
HETATM   22  O1  UNL     1      15.715  37.507 -11.589  1.00  0.00    -0.265 OA
HETATM   23  C3  UNL     1      16.433  35.358  -8.918  1.00  0.00     0.683 C 
ATOM     24  H2  UNL     1      15.610  35.353 -10.752  1.00  0.00     0.187 HD
HETATM   25  N7  UNL     1      17.333  35.804  -8.034  1.00  0.00    -0.154 N 
HETATM   26  C30 UNL     1      17.973  36.994  -8.029  1.00  0.00     0.289 C 
ATOM     27  H7  UNL     1      17.565  35.169  -7.271  1.00  0.00     0.187 HD
HETATM   28  O3  UNL     1      19.034  37.054  -7.348  1.00  0.00    -0.265 OA
HETATM   29  N6  UNL     1      18.033  39.413  -8.331  1.00  0.00    -0.334 N 
HETATM   30  C28 UNL     1      18.870  39.660  -7.163  1.00  0.00     0.158 C 
BRANCH  23  31
HETATM   31  N1  UNL     1      15.849  34.239  -8.651  1.00  0.00    -0.226 N 
ATOM     32  H1  UNL     1      15.761  33.972  -7.671  1.00  0.00     0.177 HD
BRANCH  31  33
HETATM   33  C2  UNL     1      15.316  33.348  -9.634  1.00  0.00     0.133 C 
HETATM   34  C1  UNL     1      16.424  32.432 -10.139  1.00  0.00     0.027 C 
ENDBRANCH  31  33
ENDBRANCH  23  31
ENDBRANCH  14  15
ENDBRANCH   1  14
BRANCH   2  35
HETATM   35  O2  UNL     1      19.481  41.030 -11.188  1.00  0.00    -0.351 OA
BRANCH  35  36
HETATM   36  C10 UNL     1      19.363  41.149 -12.541  1.00  0.00     0.177 C 
BRANCH  36  37
HETATM   37  C11 UNL     1      19.485  39.907 -13.371  1.00  0.00     0.057 C 
BRANCH  37  38
HETATM   38  C12 UNL     1      18.116  39.245 -13.476  1.00  0.00     0.274 C 
BRANCH  38  39
HETATM   39  N4  UNL     1      18.230  37.817 -13.414  1.00  0.00     0.085 N 
HETATM   40  C13 UNL     1      19.455  37.489 -12.705  1.00  0.00     0.309 C 
BRANCH  39  41
HETATM   41  C14 UNL     1      18.234  37.237 -14.724  1.00  0.00     0.299 C 
BRANCH  41  42
HETATM   42  C15 UNL     1      17.311  36.029 -14.772  1.00  0.00     0.262 C 
BRANCH  42  43
HETATM   43  N5  UNL     1      15.998  36.419 -14.284  1.00  0.00    -0.077 N 
HETATM   44  C16 UNL     1      15.247  37.136 -15.296  1.00  0.00     0.267 C 
ATOM     45  H52 UNL     1      15.478  35.616 -13.931  1.00  0.00     0.276 HD
ATOM     46  H51 UNL     1      16.066  36.955 -13.418  1.00  0.00     0.276 HD
ENDBRANCH  42  43
ENDBRANCH  41  42
ENDBRANCH  39  41
ENDBRANCH  38  39
ENDBRANCH  37  38
ENDBRANCH  36  37
ENDBRANCH  35  36
ENDBRANCH   2  35
TORSDOF 12
ENDMDL
MODEL 5
REMARK VINA RESULT: -7.699987840      1.900      2.310
REMARK  12 active torsions:
REMARK  status: ('A' for Active; 'I' for Inactive)
REMARK    1  A    between atoms: C2_2  and  N1_3 
REMARK    2  A    between atoms: N1_3  and  C3_5 
REMARK    3  A    between atoms: C6_13  and  C7_14 
REMARK    4  A    between atoms: C7_14  and  C8_15 
REMARK    5  A    between atoms: C9_16  and  O2_17 
REMARK    6  A    between atoms: O2_17  and  C10_18 
REMARK    7  A    between atoms: C10_18  and  C11_19 
REMARK    8  A    between atoms: C11_19  and  C12_20 
REMARK    9  A    between atoms: C12_20  and  N4_21 
REMARK   10  A    between atoms: N4_21  and  C14_23 
REMARK   11  A    between atoms: C14_23  and  C15_24 
REMARK   12  A    between atoms: C15_24  and  N5_25 
ROOT
HETATM    1  C8  UNL     1      19.097  42.426  -9.302  1.00  0.00    -0.011 A 
HETATM    2  C9  UNL     1      19.897  43.118 -10.252  1.00  0.00     0.076 A 
HETATM    3  C17 UNL     1      20.512  42.447 -11.280  1.00  0.00     0.038 A 
HETATM    4  C18 UNL     1      20.345  41.081 -11.383  1.00  0.00     0.010 A 
HETATM    5  C19 UNL     1      19.583  40.375 -10.486  1.00  0.00    -0.051 A 
HETATM    6  C20 UNL     1      18.960  41.080  -9.437  1.00  0.00    -0.042 A 
HETATM    7  C21 UNL     1      18.142  40.315  -8.457  1.00  0.00     0.040 C 
HETATM    8  C22 UNL     1      16.920  39.665  -9.130  1.00  0.00     0.005 C 
HETATM    9  C23 UNL     1      16.809  38.212  -8.834  1.00  0.00     0.000 C 
HETATM   10  C24 UNL     1      17.200  37.293  -9.942  1.00  0.00     0.000 C 
HETATM   11  C25 UNL     1      17.224  37.889 -11.302  1.00  0.00     0.000 C 
HETATM   12  C26 UNL     1      18.520  38.487 -11.733  1.00  0.00     0.005 C 
HETATM   13  C27 UNL     1      19.452  38.895 -10.649  1.00  0.00     0.039 C 
ENDROOT
BRANCH   1  14
HETATM   14  C7  UNL     1      18.473  43.247  -8.242  1.00  0.00     0.118 C 
BRANCH  14  15
HETATM   15  C6  UNL     1      19.363  43.689  -7.166  1.00  0.00     0.088 A 
HETATM   16  N3  UNL     1      19.910  44.914  -7.077  1.00  0.00    -0.339 N 
HETATM   17  C5  UNL     1      20.699  45.047  -6.011  1.00  0.00     0.135 A 
ATOM     18  H3  UNL     1      19.739  45.661  -7.752  1.00  0.00     0.167 HD
HETATM   19  C4  UNL     1      21.406  46.162  -5.636  1.00  0.00     0.288 C 
HETATM   20  C29 UNL     1      20.634  43.797  -5.391  1.00  0.00     0.137 A 
HETATM   21  N2  UNL     1      22.360  46.221  -4.701  1.00  0.00    -0.154 N 
HETATM   22  O1  UNL     1      21.142  47.228  -6.213  1.00  0.00    -0.265 OA
HETATM   23  C3  UNL     1      22.917  45.247  -3.934  1.00  0.00     0.683 C 
ATOM     24  H2  UNL     1      22.734  47.156  -4.536  1.00  0.00     0.187 HD
HETATM   25  N7  UNL     1      22.400  44.038  -3.683  1.00  0.00    -0.154 N 
HETATM   26  C30 UNL     1      21.297  43.478  -4.226  1.00  0.00     0.289 C 
ATOM     27  H7  UNL     1      22.900  43.470  -2.999  1.00  0.00     0.187 HD
HETATM   28  O3  UNL     1      20.785  42.520  -3.584  1.00  0.00    -0.265 OA
HETATM   29  N6  UNL     1      19.823  43.000  -6.110  1.00  0.00    -0.334 N 
HETATM   30  C28 UNL     1      19.581  41.614  -5.725  1.00  0.00     0.158 C 
BRANCH  23  31
HETATM   31  N1  UNL     1      24.057  45.523  -3.398  1.00  0.00    -0.226 N 
ATOM     32  H1  UNL     1      24.898  45.243  -3.902  1.00  0.00     0.177 HD
BRANCH  31  33
HETATM   33  C2  UNL     1      24.224  46.195  -2.147  1.00  0.00     0.133 C 
HETATM   34  C1  UNL     1      24.704  47.619  -2.398  1.00  0.00     0.027 C 
ENDBRANCH  31  33
ENDBRANCH  23  31
ENDBRANCH  14  15
ENDBRANCH   1  14
BRANCH   2  35
HETATM   35  O2  UNL     1      20.069  44.462 -10.159  1.00  0.00    -0.351 OA
BRANCH  35  36
HETATM   36  C10 UNL     1      21.115  45.301 -10.409  1.00  0.00     0.177 C 
BRANCH  36  37
HETATM   37  C11 UNL     1      22.312  45.220  -9.511  1.00  0.00     0.057 C 
BRANCH  37  38
HETATM   38  C12 UNL     1      23.316  46.289  -9.928  1.00  0.00     0.274 C 
BRANCH  38  39
HETATM   39  N4  UNL     1      22.653  47.521 -10.244  1.00  0.00     0.085 N 
HETATM   40  C13 UNL     1      23.466  48.238 -11.212  1.00  0.00     0.309 C 
BRANCH  39  41
HETATM   41  C14 UNL     1      22.444  48.317  -9.072  1.00  0.00     0.299 C 
BRANCH  41  42
HETATM   42  C15 UNL     1      23.776  48.739  -8.473  1.00  0.00     0.262 C 
BRANCH  42  43
HETATM   43  N5  UNL     1      23.643  48.809  -7.027  1.00  0.00    -0.077 N 
HETATM   44  C16 UNL     1      24.855  48.371  -6.361  1.00  0.00     0.267 C 
ATOM     45  H52 UNL     1      23.365  49.742  -6.722  1.00  0.00     0.276 HD
ATOM     46  H51 UNL     1      22.829  48.288  -6.701  1.00  0.00     0.276 HD
ENDBRANCH  42  43
ENDBRANCH  41  42
ENDBRANCH  39  41
ENDBRANCH  38  39
ENDBRANCH  37  38
ENDBRANCH  36  37
ENDBRANCH  35  36
ENDBRANCH   2  35
TORSDOF 12
ENDMDL
