MODEL 1
REMARK VINA RESULT: -9.569838198      0.000      0.000
REMARK  11 active torsions:
REMARK  status: ('A' for Active; 'I' for Inactive)
REMARK    1  A    between atoms: C4_4  and  C5_5 
REMARK    2  A    between atoms: C5_5  and  C6_6 
REMARK    3  A    between atoms: C12_19  and  N4_20 
REMARK    4  A    between atoms: N4_20  and  C13_22 
REMARK    5  A    between atoms: C18_31  and  O3_32 
REMARK    6  A    between atoms: C20_34  and  O4_35 
REMARK    7  A    between atoms: O4_35  and  C21_36 
REMARK    8  A    between atoms: C21_36  and  C22_37 
REMARK    9  A    between atoms: C22_37  and  N7_38 
REMARK   10  A    between atoms: N7_38  and  C23_39 
REMARK   11  A    between atoms: N7_38  and  C25_41 
ROOT
HETATM    1  N4  UNL     1      21.280  47.042  -7.250  1.00  0.00    -0.340 N 
ATOM      2  H4  UNL     1      20.720  47.614  -6.617  1.00  0.00     0.167 HD
ENDROOT
BRANCH   1   3
HETATM    3  C12 UNL     1      21.099  45.644  -7.250  1.00  0.00     0.052 A 
HETATM    4  C11 UNL     1      21.094  44.774  -8.295  1.00  0.00     0.130 A 
HETATM    5  N3  UNL     1      20.853  43.497  -7.886  1.00  0.00    -0.286 N 
HETATM    6  C10 UNL     1      20.754  42.335  -8.572  1.00  0.00     0.258 A 
HETATM    7  C29 UNL     1      20.702  43.544  -6.564  1.00  0.00     0.053 A 
HETATM    8  C4  UNL     1      20.491  41.148  -7.922  1.00  0.00     0.016 A 
HETATM    9  O2  UNL     1      20.906  42.339  -9.837  1.00  0.00    -0.267 OA
HETATM   10  C3  UNL     1      20.330  41.176  -6.544  1.00  0.00     0.026 A 
HETATM   11  C2  UNL     1      20.434  42.361  -5.869  1.00  0.00    -0.017 A 
HETATM   12  C1  UNL     1      20.272  42.408  -4.549  1.00  0.00     0.026 C 
HETATM   13  C28 UNL     1      20.845  44.848  -6.128  1.00  0.00     0.061 A 
BRANCH   8  14
HETATM   14  C5  UNL     1      20.343  39.837  -8.604  1.00  0.00     0.090 C 
BRANCH  14  15
HETATM   15  C6  UNL     1      19.022  39.610  -9.220  1.00  0.00     0.039 A 
HETATM   16  C7  UNL     1      18.747  39.603 -10.577  1.00  0.00     0.034 A 
HETATM   17  C8  UNL     1      19.631  39.816 -11.740  1.00  0.00     0.070 C 
HETATM   18  N1  UNL     1      17.433  39.341 -10.717  1.00  0.00    -0.302 N 
HETATM   19  N2  UNL     1      16.850  39.179  -9.547  1.00  0.00    -0.266 N 
ATOM     20  H1  UNL     1      16.951  39.277 -11.614  1.00  0.00     0.186 HD
HETATM   21  C9  UNL     1      17.817  39.342  -8.623  1.00  0.00     0.268 A 
ATOM     22  H2  UNL     1      15.866  38.972  -9.375  1.00  0.00     0.190 HD
HETATM   23  O1  UNL     1      17.590  39.248  -7.388  1.00  0.00    -0.266 OA
ENDBRANCH  14  15
ENDBRANCH   8  14
ENDBRANCH   1   3
BRANCH   1  24
HETATM   24  C13 UNL     1      22.110  47.606  -8.007  1.00  0.00     0.122 A 
HETATM   25  N5  UNL     1      21.947  47.632  -9.336  1.00  0.00    -0.338 N 
HETATM   26  C14 UNL     1      22.813  48.188 -10.192  1.00  0.00     0.182 A 
ATOM     27  H5  UNL     1      21.107  47.199  -9.721  1.00  0.00     0.168 HD
HETATM   28  N6  UNL     1      23.899  48.745  -9.669  1.00  0.00    -0.351 N 
HETATM   29  C15 UNL     1      24.159  48.775  -8.359  1.00  0.00     0.050 A 
ATOM     30  H6  UNL     1      24.573  49.174 -10.302  1.00  0.00     0.166 HD
HETATM   31  C16 UNL     1      25.332  49.348  -7.914  1.00  0.00     0.033 A 
HETATM   32  C27 UNL     1      23.245  48.190  -7.454  1.00  0.00     0.071 A 
HETATM   33  C17 UNL     1      25.562  49.321  -6.561  1.00  0.00     0.042 A 
HETATM   34  C18 UNL     1      24.689  48.764  -5.669  1.00  0.00     0.102 A 
HETATM   35  C20 UNL     1      23.480  48.176  -6.117  1.00  0.00     0.118 A 
BRANCH  34  36
HETATM   36  O3  UNL     1      25.000  48.782  -4.326  1.00  0.00    -0.353 OA
HETATM   37  C19 UNL     1      26.186  49.195  -3.734  1.00  0.00     0.210 C 
ENDBRANCH  34  36
BRANCH  35  38
HETATM   38  O4  UNL     1      22.694  47.658  -5.170  1.00  0.00    -0.346 OA
BRANCH  38  39
HETATM   39  C21 UNL     1      21.809  48.105  -4.238  1.00  0.00     0.196 C 
BRANCH  39  40
HETATM   40  C22 UNL     1      21.246  47.317  -3.138  1.00  0.00     0.153 C 
BRANCH  40  41
HETATM   41  N7  UNL     1      21.776  47.682  -1.874  1.00  0.00    -0.373 N 
BRANCH  41  42
HETATM   42  C23 UNL     1      23.144  47.488  -1.650  1.00  0.00     0.059 C 
HETATM   43  C24 UNL     1      23.624  46.093  -2.010  1.00  0.00     0.055 C 
ENDBRANCH  41  42
BRANCH  41  44
HETATM   44  C25 UNL     1      20.912  47.950  -0.804  1.00  0.00     0.059 C 
HETATM   45  C26 UNL     1      19.488  48.270  -1.198  1.00  0.00     0.055 C 
ENDBRANCH  41  44
ENDBRANCH  40  41
ENDBRANCH  39  40
ENDBRANCH  38  39
ENDBRANCH  35  38
ENDBRANCH   1  24
TORSDOF 11
ENDMDL
MODEL 2
REMARK VINA RESULT: -9.563128580      0.076      1.200
REMARK  11 active torsions:
REMARK  status: ('A' for Active; 'I' for Inactive)
REMARK    1  A    between atoms: C4_4  and  C5_5 
REMARK    2  A    between atoms: C5_5  and  C6_6 
REMARK    3  A    between atoms: C12_19  and  N4_20 
REMARK    4  A    between atoms: N4_20  and  C13_22 
REMARK    5  A    between atoms: C18_31  and  O3_32 
REMARK    6  A    between atoms: C20_34  and  O4_35 
REMARK    7  A    between atoms: O4_35  and  C21_36 
REMARK    8  A    between atoms: C21_36  and  C22_37 
REMARK    9  A    between atoms: C22_37  and  N7_38 
REMARK   10  A    between atoms: N7_38  and  C23_39 
REMARK   11  A    between atoms: N7_38  and  C25_41 
ROOT
HETATM    1  N4  UNL     1      21.278  47.054  -7.250  1.00  0.00    -0.340 N 
ATOM      2  H4  UNL     1      20.721  47.632  -6.622  1.00  0.00     0.167 HD
ENDROOT
BRANCH   1   3
HETATM    3  C12 UNL     1      21.092  45.656  -7.242  1.00  0.00     0.052 A 
HETATM    4  C11 UNL     1      21.103  44.777  -8.280  1.00  0.00     0.130 A 
HETATM    5  N3  UNL     1      20.849  43.505  -7.864  1.00  0.00    -0.286 N 
HETATM    6  C10 UNL     1      20.758  42.338  -8.541  1.00  0.00     0.258 A 
HETATM    7  C29 UNL     1      20.674  43.565  -6.546  1.00  0.00     0.053 A 
HETATM    8  C4  UNL     1      20.478  41.157  -7.887  1.00  0.00     0.016 A 
HETATM    9  O2  UNL     1      20.935  42.330  -9.804  1.00  0.00    -0.267 OA
HETATM   10  C3  UNL     1      20.291  41.198  -6.512  1.00  0.00     0.026 A 
HETATM   11  C2  UNL     1      20.387  42.389  -5.846  1.00  0.00    -0.017 A 
HETATM   12  C1  UNL     1      20.199  42.447  -4.530  1.00  0.00     0.026 C 
HETATM   13  C28 UNL     1      20.813  44.871  -6.118  1.00  0.00     0.061 A 
BRANCH   8  14
HETATM   14  C5  UNL     1      20.339  39.842  -8.561  1.00  0.00     0.090 C 
BRANCH  14  15
HETATM   15  C6  UNL     1      19.021  39.606  -9.182  1.00  0.00     0.039 A 
HETATM   16  C7  UNL     1      18.748  39.615 -10.539  1.00  0.00     0.034 A 
HETATM   17  C8  UNL     1      19.630  39.858 -11.698  1.00  0.00     0.070 C 
HETATM   18  N1  UNL     1      17.437  39.338 -10.685  1.00  0.00    -0.302 N 
HETATM   19  N2  UNL     1      16.855  39.150  -9.518  1.00  0.00    -0.266 N 
ATOM     20  H1  UNL     1      16.958  39.280 -11.584  1.00  0.00     0.186 HD
HETATM   21  C9  UNL     1      17.819  39.312  -8.590  1.00  0.00     0.268 A 
ATOM     22  H2  UNL     1      15.874  38.927  -9.351  1.00  0.00     0.190 HD
HETATM   23  O1  UNL     1      17.592  39.197  -7.357  1.00  0.00    -0.266 OA
ENDBRANCH  14  15
ENDBRANCH   8  14
ENDBRANCH   1   3
BRANCH   1  24
HETATM   24  C13 UNL     1      22.113  47.609  -8.010  1.00  0.00     0.122 A 
HETATM   25  N5  UNL     1      21.950  47.630  -9.339  1.00  0.00    -0.338 N 
HETATM   26  C14 UNL     1      22.819  48.177 -10.197  1.00  0.00     0.182 A 
ATOM     27  H5  UNL     1      21.108  47.200  -9.722  1.00  0.00     0.168 HD
HETATM   28  N6  UNL     1      23.908  48.731  -9.676  1.00  0.00    -0.351 N 
HETATM   29  C15 UNL     1      24.167  48.766  -8.366  1.00  0.00     0.050 A 
ATOM     30  H6  UNL     1      24.585  49.154 -10.311  1.00  0.00     0.166 HD
HETATM   31  C16 UNL     1      25.343  49.335  -7.924  1.00  0.00     0.033 A 
HETATM   32  C27 UNL     1      23.249  48.191  -7.459  1.00  0.00     0.071 A 
HETATM   33  C17 UNL     1      25.572  49.314  -6.570  1.00  0.00     0.042 A 
HETATM   34  C18 UNL     1      24.696  48.766  -5.676  1.00  0.00     0.102 A 
HETATM   35  C20 UNL     1      23.484  48.182  -6.122  1.00  0.00     0.118 A 
BRANCH  34  36
HETATM   36  O3  UNL     1      25.006  48.789  -4.333  1.00  0.00    -0.353 OA
HETATM   37  C19 UNL     1      26.058  49.453  -3.715  1.00  0.00     0.210 C 
ENDBRANCH  34  36
BRANCH  35  38
HETATM   38  O4  UNL     1      22.695  47.673  -5.172  1.00  0.00    -0.346 OA
BRANCH  38  39
HETATM   39  C21 UNL     1      21.838  48.132  -4.220  1.00  0.00     0.196 C 
BRANCH  39  40
HETATM   40  C22 UNL     1      21.189  47.322  -3.185  1.00  0.00     0.153 C 
BRANCH  40  41
HETATM   41  N7  UNL     1      21.772  47.499  -1.904  1.00  0.00    -0.373 N 
BRANCH  41  42
HETATM   42  C23 UNL     1      20.973  48.028  -0.883  1.00  0.00     0.059 C 
HETATM   43  C24 UNL     1      19.514  48.184  -1.275  1.00  0.00     0.055 C 
ENDBRANCH  41  42
BRANCH  41  44
HETATM   44  C25 UNL     1      23.162  47.423  -1.751  1.00  0.00     0.059 C 
HETATM   45  C26 UNL     1      23.758  46.056  -2.004  1.00  0.00     0.055 C 
ENDBRANCH  41  44
ENDBRANCH  40  41
ENDBRANCH  39  40
ENDBRANCH  38  39
ENDBRANCH  35  38
ENDBRANCH   1  24
TORSDOF 11
ENDMDL
MODEL 3
REMARK VINA RESULT: -9.499117980      0.874      1.714
REMARK  11 active torsions:
REMARK  status: ('A' for Active; 'I' for Inactive)
REMARK    1  A    between atoms: C4_4  and  C5_5 
REMARK    2  A    between atoms: C5_5  and  C6_6 
REMARK    3  A    between atoms: C12_19  and  N4_20 
REMARK    4  A    between atoms: N4_20  and  C13_22 
REMARK    5  A    between atoms: C18_31  and  O3_32 
REMARK    6  A    between atoms: C20_34  and  O4_35 
REMARK    7  A    between atoms: O4_35  and  C21_36 
REMARK    8  A    between atoms: C21_36  and  C22_37 
REMARK    9  A    between atoms: C22_37  and  N7_38 
REMARK   10  A    between atoms: N7_38  and  C23_39 
REMARK   11  A    between atoms: N7_38  and  C25_41 
ROOT
HETATM    1  N4  UNL     1      21.204  46.910  -7.335  1.00  0.00    -0.340 N 
ATOM      2  H4  UNL     1      20.622  47.480  -6.721  1.00  0.00     0.167 HD
ENDROOT
BRANCH   1   3
HETATM    3  C12 UNL     1      21.005  45.514  -7.364  1.00  0.00     0.052 A 
HETATM    4  C11 UNL     1      21.003  44.664  -8.426  1.00  0.00     0.130 A 
HETATM    5  N3  UNL     1      20.742  43.383  -8.045  1.00  0.00    -0.286 N 
HETATM    6  C10 UNL     1      20.637  42.235  -8.754  1.00  0.00     0.258 A 
HETATM    7  C29 UNL     1      20.574  43.407  -6.724  1.00  0.00     0.053 A 
HETATM    8  C4  UNL     1      20.350  41.040  -8.131  1.00  0.00     0.016 A 
HETATM    9  O2  UNL     1      20.806  42.262 -10.017  1.00  0.00    -0.267 OA
HETATM   10  C3  UNL     1      20.171  41.044  -6.754  1.00  0.00     0.026 A 
HETATM   11  C2  UNL     1      20.281  42.214  -6.056  1.00  0.00    -0.017 A 
HETATM   12  C1  UNL     1      20.102  42.238  -4.737  1.00  0.00     0.026 C 
HETATM   13  C28 UNL     1      20.727  44.700  -6.261  1.00  0.00     0.061 A 
BRANCH   8  14
HETATM   14  C5  UNL     1      20.196  39.745  -8.840  1.00  0.00     0.090 C 
BRANCH  14  15
HETATM   15  C6  UNL     1      18.855  39.514  -9.413  1.00  0.00     0.039 A 
HETATM   16  C7  UNL     1      17.749  39.041  -8.729  1.00  0.00     0.034 A 
HETATM   17  C8  UNL     1      17.588  38.641  -7.316  1.00  0.00     0.070 C 
HETATM   18  N1  UNL     1      16.727  38.993  -9.605  1.00  0.00    -0.302 N 
HETATM   19  N2  UNL     1      17.102  39.404 -10.799  1.00  0.00    -0.266 N 
ATOM     20  H1  UNL     1      15.784  38.680  -9.374  1.00  0.00     0.186 HD
HETATM   21  C9  UNL     1      18.406  39.726 -10.691  1.00  0.00     0.268 A 
ATOM     22  H2  UNL     1      16.523  39.466 -11.637  1.00  0.00     0.190 HD
HETATM   23  O1  UNL     1      19.076  40.160 -11.665  1.00  0.00    -0.266 OA
ENDBRANCH  14  15
ENDBRANCH   8  14
ENDBRANCH   1   3
BRANCH   1  24
HETATM   24  C13 UNL     1      22.077  47.473  -8.043  1.00  0.00     0.122 A 
HETATM   25  N5  UNL     1      21.977  47.522  -9.377  1.00  0.00    -0.338 N 
HETATM   26  C14 UNL     1      22.890  48.078 -10.183  1.00  0.00     0.182 A 
ATOM     27  H5  UNL     1      21.151  47.107  -9.808  1.00  0.00     0.168 HD
HETATM   28  N6  UNL     1      23.958  48.612  -9.600  1.00  0.00    -0.351 N 
HETATM   29  C15 UNL     1      24.156  48.617  -8.278  1.00  0.00     0.050 A 
ATOM     30  H6  UNL     1      24.667  49.041 -10.194  1.00  0.00     0.166 HD
HETATM   31  C16 UNL     1      25.315  49.166  -7.770  1.00  0.00     0.033 A 
HETATM   32  C27 UNL     1      23.192  48.032  -7.427  1.00  0.00     0.071 A 
HETATM   33  C17 UNL     1      25.480  49.115  -6.408  1.00  0.00     0.042 A 
HETATM   34  C18 UNL     1      24.558  48.557  -5.567  1.00  0.00     0.102 A 
HETATM   35  C20 UNL     1      23.364  47.993  -6.081  1.00  0.00     0.118 A 
BRANCH  34  36
HETATM   36  O3  UNL     1      24.805  48.550  -4.212  1.00  0.00    -0.353 OA
HETATM   37  C19 UNL     1      25.879  49.119  -3.540  1.00  0.00     0.210 C 
ENDBRANCH  34  36
BRANCH  35  38
HETATM   38  O4  UNL     1      22.527  47.473  -5.180  1.00  0.00    -0.346 OA
BRANCH  38  39
HETATM   39  C21 UNL     1      21.542  47.908  -4.348  1.00  0.00     0.196 C 
BRANCH  39  40
HETATM   40  C22 UNL     1      20.844  47.100  -3.345  1.00  0.00     0.153 C 
BRANCH  40  41
HETATM   41  N7  UNL     1      20.955  47.635  -2.035  1.00  0.00    -0.373 N 
BRANCH  41  42
HETATM   42  C23 UNL     1      19.875  48.368  -1.529  1.00  0.00     0.059 C 
HETATM   43  C24 UNL     1      19.069  47.616  -0.485  1.00  0.00     0.055 C 
ENDBRANCH  41  42
BRANCH  41  44
HETATM   44  C25 UNL     1      22.202  47.675  -1.398  1.00  0.00     0.059 C 
HETATM   45  C26 UNL     1      23.102  46.494  -1.684  1.00  0.00     0.055 C 
ENDBRANCH  41  44
ENDBRANCH  40  41
ENDBRANCH  39  40
ENDBRANCH  38  39
ENDBRANCH  35  38
ENDBRANCH   1  24
TORSDOF 11
ENDMDL
MODEL 4
REMARK VINA RESULT: -9.495444531      0.798      1.231
REMARK  11 active torsions:
REMARK  status: ('A' for Active; 'I' for Inactive)
REMARK    1  A    between atoms: C4_4  and  C5_5 
REMARK    2  A    between atoms: C5_5  and  C6_6 
REMARK    3  A    between atoms: C12_19  and  N4_20 
REMARK    4  A    between atoms: N4_20  and  C13_22 
REMARK    5  A    between atoms: C18_31  and  O3_32 
REMARK    6  A    between atoms: C20_34  and  O4_35 
REMARK    7  A    between atoms: O4_35  and  C21_36 
REMARK    8  A    between atoms: C21_36  and  C22_37 
REMARK    9  A    between atoms: C22_37  and  N7_38 
REMARK   10  A    between atoms: N7_38  and  C23_39 
REMARK   11  A    between atoms: N7_38  and  C25_41 
ROOT
HETATM    1  N4  UNL     1      21.227  46.911  -7.341  1.00  0.00    -0.340 N 
ATOM      2  H4  UNL     1      20.684  47.480  -6.691  1.00  0.00     0.167 HD
ENDROOT
BRANCH   1   3
HETATM    3  C12 UNL     1      21.023  45.516  -7.365  1.00  0.00     0.052 A 
HETATM    4  C11 UNL     1      21.019  44.662  -8.423  1.00  0.00     0.130 A 
HETATM    5  N3  UNL     1      20.752  43.383  -8.037  1.00  0.00    -0.286 N 
HETATM    6  C10 UNL     1      20.643  42.233  -8.741  1.00  0.00     0.258 A 
HETATM    7  C29 UNL     1      20.582  43.413  -6.716  1.00  0.00     0.053 A 
HETATM    8  C4  UNL     1      20.351  41.041  -8.113  1.00  0.00     0.016 A 
HETATM    9  O2  UNL     1      20.815  42.253 -10.004  1.00  0.00    -0.267 OA
HETATM   10  C3  UNL     1      20.170  41.052  -6.737  1.00  0.00     0.026 A 
HETATM   11  C2  UNL     1      20.283  42.225  -6.043  1.00  0.00    -0.017 A 
HETATM   12  C1  UNL     1      20.102  42.254  -4.725  1.00  0.00     0.026 C 
HETATM   13  C28 UNL     1      20.739  44.708  -6.258  1.00  0.00     0.061 A 
BRANCH   8  14
HETATM   14  C5  UNL     1      20.192  39.744  -8.817  1.00  0.00     0.090 C 
BRANCH  14  15
HETATM   15  C6  UNL     1      18.854  39.519  -9.397  1.00  0.00     0.039 A 
HETATM   16  C7  UNL     1      17.746  39.036  -8.723  1.00  0.00     0.034 A 
HETATM   17  C8  UNL     1      17.581  38.618  -7.316  1.00  0.00     0.070 C 
HETATM   18  N1  UNL     1      16.727  38.999  -9.603  1.00  0.00    -0.302 N 
HETATM   19  N2  UNL     1      17.106  39.425 -10.791  1.00  0.00    -0.266 N 
ATOM     20  H1  UNL     1      15.784  38.682  -9.379  1.00  0.00     0.186 HD
HETATM   21  C9  UNL     1      18.409  39.746 -10.674  1.00  0.00     0.268 A 
ATOM     22  H2  UNL     1      16.529  39.497 -11.629  1.00  0.00     0.190 HD
HETATM   23  O1  UNL     1      19.081  40.194 -11.640  1.00  0.00    -0.266 OA
ENDBRANCH  14  15
ENDBRANCH   8  14
ENDBRANCH   1   3
BRANCH   1  24
HETATM   24  C13 UNL     1      22.059  47.474  -8.096  1.00  0.00     0.122 A 
HETATM   25  N5  UNL     1      21.910  47.481  -9.427  1.00  0.00    -0.338 N 
HETATM   26  C14 UNL     1      22.778  48.037 -10.281  1.00  0.00     0.182 A 
ATOM     27  H5  UNL     1      21.080  47.034  -9.815  1.00  0.00     0.168 HD
HETATM   28  N6  UNL     1      23.852  48.614  -9.753  1.00  0.00    -0.351 N 
HETATM   29  C15 UNL     1      24.097  48.664  -8.441  1.00  0.00     0.050 A 
ATOM     30  H6  UNL     1      24.528  49.044 -10.385  1.00  0.00     0.166 HD
HETATM   31  C16 UNL     1      25.258  49.258  -7.991  1.00  0.00     0.033 A 
HETATM   32  C27 UNL     1      23.180  48.080  -7.538  1.00  0.00     0.071 A 
HETATM   33  C17 UNL     1      25.473  49.251  -6.636  1.00  0.00     0.042 A 
HETATM   34  C18 UNL     1      24.598  48.695  -5.746  1.00  0.00     0.102 A 
HETATM   35  C20 UNL     1      23.401  48.086  -6.199  1.00  0.00     0.118 A 
BRANCH  34  36
HETATM   36  O3  UNL     1      24.893  48.734  -4.400  1.00  0.00    -0.353 OA
HETATM   37  C19 UNL     1      26.025  49.264  -3.794  1.00  0.00     0.210 C 
ENDBRANCH  34  36
BRANCH  35  38
HETATM   38  O4  UNL     1      22.611  47.571  -5.253  1.00  0.00    -0.346 OA
BRANCH  38  39
HETATM   39  C21 UNL     1      21.705  48.018  -4.342  1.00  0.00     0.196 C 
BRANCH  39  40
HETATM   40  C22 UNL     1      21.177  47.255  -3.208  1.00  0.00     0.153 C 
BRANCH  40  41
HETATM   41  N7  UNL     1      21.707  47.685  -1.964  1.00  0.00    -0.373 N 
BRANCH  41  42
HETATM   42  C23 UNL     1      23.077  47.515  -1.737  1.00  0.00     0.059 C 
HETATM   43  C24 UNL     1      23.576  46.119  -2.066  1.00  0.00     0.055 C 
ENDBRANCH  41  42
BRANCH  41  44
HETATM   44  C25 UNL     1      20.843  47.994  -0.905  1.00  0.00     0.059 C 
HETATM   45  C26 UNL     1      19.437  48.368  -1.316  1.00  0.00     0.055 C 
ENDBRANCH  41  44
ENDBRANCH  40  41
ENDBRANCH  39  40
ENDBRANCH  38  39
ENDBRANCH  35  38
ENDBRANCH   1  24
TORSDOF 11
ENDMDL
MODEL 5
REMARK VINA RESULT: -9.490494304      4.394     13.106
REMARK  11 active torsions:
REMARK  status: ('A' for Active; 'I' for Inactive)
REMARK    1  A    between atoms: C4_4  and  C5_5 
REMARK    2  A    between atoms: C5_5  and  C6_6 
REMARK    3  A    between atoms: C12_19  and  N4_20 
REMARK    4  A    between atoms: N4_20  and  C13_22 
REMARK    5  A    between atoms: C18_31  and  O3_32 
REMARK    6  A    between atoms: C20_34  and  O4_35 
REMARK    7  A    between atoms: O4_35  and  C21_36 
REMARK    8  A    between atoms: C21_36  and  C22_37 
REMARK    9  A    between atoms: C22_37  and  N7_38 
REMARK   10  A    between atoms: N7_38  and  C23_39 
REMARK   11  A    between atoms: N7_38  and  C25_41 
ROOT
HETATM    1  N4  UNL     1      15.891  37.711 -10.363  1.00  0.00    -0.340 N 
ATOM      2  H4  UNL     1      15.111  37.905 -10.991  1.00  0.00     0.167 HD
ENDROOT
BRANCH   1   3
HETATM    3  C12 UNL     1      17.009  38.570 -10.373  1.00  0.00     0.052 A 
HETATM    4  C11 UNL     1      17.758  39.024  -9.333  1.00  0.00     0.130 A 
HETATM    5  N3  UNL     1      18.741  39.869  -9.751  1.00  0.00    -0.286 N 
HETATM    6  C10 UNL     1      19.695  40.548  -9.074  1.00  0.00     0.258 A 
HETATM    7  C29 UNL     1      18.624  39.961 -11.075  1.00  0.00     0.053 A 
HETATM    8  C4  UNL     1      20.589  41.364  -9.733  1.00  0.00     0.016 A 
HETATM    9  O2  UNL     1      19.769  40.428  -7.807  1.00  0.00    -0.267 OA
HETATM   10  C3  UNL     1      20.484  41.473 -11.113  1.00  0.00     0.026 A 
HETATM   11  C2  UNL     1      19.511  40.780 -11.779  1.00  0.00    -0.017 A 
HETATM   12  C1  UNL     1      19.390  40.881 -13.101  1.00  0.00     0.026 C 
HETATM   13  C28 UNL     1      17.569  39.177 -11.502  1.00  0.00     0.061 A 
BRANCH   8  14
HETATM   14  C5  UNL     1      21.648  42.158  -9.060  1.00  0.00     0.090 C 
BRANCH  14  15
HETATM   15  C6  UNL     1      21.189  43.445  -8.501  1.00  0.00     0.039 A 
HETATM   16  C7  UNL     1      20.986  43.723  -7.161  1.00  0.00     0.034 A 
HETATM   17  C8  UNL     1      21.146  42.872  -5.965  1.00  0.00     0.070 C 
HETATM   18  N1  UNL     1      20.590  45.009  -7.075  1.00  0.00    -0.302 N 
HETATM   19  N2  UNL     1      20.528  45.570  -8.265  1.00  0.00    -0.266 N 
ATOM     20  H1  UNL     1      20.367  45.485  -6.201  1.00  0.00     0.186 HD
HETATM   21  C9  UNL     1      20.894  44.618  -9.146  1.00  0.00     0.268 A 
ATOM     22  H2  UNL     1      20.257  46.530  -8.477  1.00  0.00     0.190 HD
HETATM   23  O1  UNL     1      20.943  44.833 -10.386  1.00  0.00    -0.266 OA
ENDBRANCH  14  15
ENDBRANCH   8  14
ENDBRANCH   1   3
BRANCH   1  24
HETATM   24  C13 UNL     1      15.827  36.711  -9.602  1.00  0.00     0.122 A 
HETATM   25  N5  UNL     1      15.737  36.843  -8.273  1.00  0.00    -0.338 N 
HETATM   26  C14 UNL     1      15.698  35.818  -7.414  1.00  0.00     0.182 A 
ATOM     27  H5  UNL     1      15.696  37.788  -7.890  1.00  0.00     0.168 HD
HETATM   28  N6  UNL     1      15.752  34.597  -7.935  1.00  0.00    -0.351 N 
HETATM   29  C15 UNL     1      15.842  34.354  -9.245  1.00  0.00     0.050 A 
ATOM     30  H6  UNL     1      15.725  33.800  -7.299  1.00  0.00     0.166 HD
HETATM   31  C16 UNL     1      15.927  33.050  -9.687  1.00  0.00     0.033 A 
HETATM   32  C27 UNL     1      15.881  35.435 -10.153  1.00  0.00     0.071 A 
HETATM   33  C17 UNL     1      16.050  32.861 -11.042  1.00  0.00     0.042 A 
HETATM   34  C18 UNL     1      16.087  33.893 -11.937  1.00  0.00     0.102 A 
HETATM   35  C20 UNL     1      15.997  35.235 -11.491  1.00  0.00     0.118 A 
BRANCH  34  36
HETATM   36  O3  UNL     1      16.212  33.612 -13.280  1.00  0.00    -0.353 OA
HETATM   37  C19 UNL     1      16.002  32.395 -13.917  1.00  0.00     0.210 C 
ENDBRANCH  34  36
BRANCH  35  38
HETATM   38  O4  UNL     1      16.041  36.172 -12.441  1.00  0.00    -0.346 OA
BRANCH  38  39
HETATM   39  C21 UNL     1      15.227  36.660 -13.416  1.00  0.00     0.196 C 
BRANCH  39  40
HETATM   40  C22 UNL     1      15.627  37.563 -14.499  1.00  0.00     0.153 C 
BRANCH  40  41
HETATM   41  N7  UNL     1      15.808  36.891 -15.735  1.00  0.00    -0.373 N 
BRANCH  41  42
HETATM   42  C23 UNL     1      16.819  35.926 -15.819  1.00  0.00     0.059 C 
HETATM   43  C24 UNL     1      18.164  36.412 -15.306  1.00  0.00     0.055 C 
ENDBRANCH  41  42
BRANCH  41  44
HETATM   44  C25 UNL     1      15.197  37.383 -16.896  1.00  0.00     0.059 C 
HETATM   45  C26 UNL     1      14.084  38.379 -16.658  1.00  0.00     0.055 C 
ENDBRANCH  41  44
ENDBRANCH  40  41
ENDBRANCH  39  40
ENDBRANCH  38  39
ENDBRANCH  35  38
ENDBRANCH   1  24
TORSDOF 11
ENDMDL
