MODEL 1
REMARK VINA RESULT: -7.378118394      0.000      0.000
REMARK  15 active torsions:
REMARK  status: ('A' for Active; 'I' for Inactive)
REMARK    1  A    between atoms: C2_2  and  C3_3 
REMARK    2  A    between atoms: C3_3  and  S1_4 
REMARK    3  A    between atoms: S1_4  and  C4_5 
REMARK    4  A    between atoms: C4_5  and  C5_6 
REMARK    5  A    between atoms: C5_6  and  O1_7 
REMARK    6  A    between atoms: C5_6  and  N1_9 
REMARK    7  A    between atoms: C5_6  and  C22_35 
REMARK    8  A    between atoms: N1_9  and  C6_10 
REMARK    9  A    between atoms: N1_9  and  C8_14 
REMARK   10  A    between atoms: C6_10  and  C7_11 
REMARK   11  A    between atoms: C8_14  and  C9_15 
REMARK   12  A    between atoms: C8_14  and  C11_19 
REMARK   13  A    between atoms: C9_15  and  C10_16 
REMARK       I    between atoms: C11_19  and  N2_21 
REMARK   14  A    between atoms: N2_21  and  C12_23 
REMARK   15  A    between atoms: C19_30  and  O7_31 
ROOT
HETATM    1  C8  UNL     1      16.632  36.164  16.954  1.00  0.00     0.112 C 
ENDROOT
BRANCH   1   2
HETATM    2  N1  UNL     1      17.766  36.545  17.721  1.00  0.00    -0.311 N 
BRANCH   2   3
HETATM    3  C5  UNL     1      18.087  37.906  17.646  1.00  0.00     0.153 C 
BRANCH   3   4
HETATM    4  C4  UNL     1      19.535  38.163  18.124  1.00  0.00     0.136 C 
BRANCH   4   5
HETATM    5  S1  UNL     1      20.876  37.719  17.150  1.00  0.00    -0.161 SA
BRANCH   5   6
HETATM    6  C3  UNL     1      22.356  37.052  17.812  1.00  0.00     0.100 C 
BRANCH   6   7
HETATM    7  C2  UNL     1      22.496  35.623  17.441  1.00  0.00    -0.027 C 
HETATM    8  C1  UNL     1      23.087  34.752  18.202  1.00  0.00     0.007 C 
ENDBRANCH   6   7
ENDBRANCH   5   6
ENDBRANCH   4   5
ENDBRANCH   3   4
BRANCH   3   9
HETATM    9  O1  UNL     1      18.227  38.191  16.268  1.00  0.00    -0.369 OA
ATOM     10  H1  UNL     1      18.187  39.140  16.290  1.00  0.00     0.212 HD
ENDBRANCH   3   9
BRANCH   3  11
HETATM   11  C22 UNL     1      17.261  38.995  18.184  1.00  0.00     0.000 C 
HETATM   12  C23 UNL     1      18.299  40.052  18.691  1.00  0.00     0.019 C 
HETATM   13  C24 UNL     1      16.471  38.743  19.438  1.00  0.00     0.019 C 
HETATM   14  C25 UNL     1      16.454  39.802  17.186  1.00  0.00     0.019 C 
ENDBRANCH   3  11
ENDBRANCH   2   3
BRANCH   2  15
HETATM   15  C6  UNL     1      18.066  35.821  18.884  1.00  0.00     0.178 C 
BRANCH  15  16
HETATM   16  C7  UNL     1      19.213  34.914  18.962  1.00  0.00     0.215 C 
HETATM   17  O2  UNL     1      19.593  34.094  18.078  1.00  0.00    -0.643 OA
HETATM   18  O3  UNL     1      20.050  34.870  20.103  1.00  0.00    -0.643 OA
ENDBRANCH  15  16
ENDBRANCH   2  15
ENDBRANCH   1   2
BRANCH   1  19
HETATM   19  C9  UNL     1      15.247  36.220  17.381  1.00  0.00     0.119 C 
BRANCH  19  20
HETATM   20  C10 UNL     1      14.589  35.152  18.114  1.00  0.00     0.201 C 
HETATM   21  O4  UNL     1      13.319  35.085  18.088  1.00  0.00    -0.644 OA
HETATM   22  O5  UNL     1      15.184  34.145  18.869  1.00  0.00    -0.644 OA
ENDBRANCH  19  20
ENDBRANCH   1  19
BRANCH   1  23
HETATM   23  C11 UNL     1      16.920  35.175  15.860  1.00  0.00     0.269 C 
HETATM   24  O6  UNL     1      16.453  35.424  14.743  1.00  0.00    -0.266 OA
HETATM   25  N2  UNL     1      17.674  34.015  16.047  1.00  0.00    -0.350 N 
ATOM     26  H2  UNL     1      18.066  33.809  16.966  1.00  0.00     0.163 HD
BRANCH  25  27
HETATM   27  C12 UNL     1      17.908  33.090  14.927  1.00  0.00     0.093 C 
HETATM   28  C13 UNL     1      17.498  31.705  15.275  1.00  0.00     0.012 C 
HETATM   29  C14 UNL     1      17.639  30.806  14.055  1.00  0.00     0.011 C 
HETATM   30  C21 UNL     1      18.329  31.177  16.396  1.00  0.00     0.044 C 
HETATM   31  C15 UNL     1      19.086  30.815  13.648  1.00  0.00    -0.011 C 
HETATM   32  C16 UNL     1      19.465  32.212  13.268  1.00  0.00     0.011 C 
HETATM   33  C20 UNL     1      19.924  30.251  14.750  1.00  0.00     0.042 C 
HETATM   34  C17 UNL     1      19.333  33.111  14.488  1.00  0.00     0.012 C 
HETATM   35  C18 UNL     1      20.256  32.536  15.540  1.00  0.00     0.044 C 
HETATM   36  C19 UNL     1      19.773  31.165  15.956  1.00  0.00     0.059 C 
BRANCH  36  37
HETATM   37  O7  UNL     1      20.549  30.774  17.027  1.00  0.00    -0.390 OA
ATOM     38  H7  UNL     1      20.076  31.017  17.814  1.00  0.00     0.210 HD
ENDBRANCH  36  37
ENDBRANCH  25  27
ENDBRANCH   1  23
TORSDOF 15
ENDMDL
MODEL 2
REMARK VINA RESULT: -7.298758763      1.658      2.051
REMARK  15 active torsions:
REMARK  status: ('A' for Active; 'I' for Inactive)
REMARK    1  A    between atoms: C2_2  and  C3_3 
REMARK    2  A    between atoms: C3_3  and  S1_4 
REMARK    3  A    between atoms: S1_4  and  C4_5 
REMARK    4  A    between atoms: C4_5  and  C5_6 
REMARK    5  A    between atoms: C5_6  and  O1_7 
REMARK    6  A    between atoms: C5_6  and  N1_9 
REMARK    7  A    between atoms: C5_6  and  C22_35 
REMARK    8  A    between atoms: N1_9  and  C6_10 
REMARK    9  A    between atoms: N1_9  and  C8_14 
REMARK   10  A    between atoms: C6_10  and  C7_11 
REMARK   11  A    between atoms: C8_14  and  C9_15 
REMARK   12  A    between atoms: C8_14  and  C11_19 
REMARK   13  A    between atoms: C9_15  and  C10_16 
REMARK       I    between atoms: C11_19  and  N2_21 
REMARK   14  A    between atoms: N2_21  and  C12_23 
REMARK   15  A    between atoms: C19_30  and  O7_31 
ROOT
HETATM    1  C8  UNL     1      17.254  36.402  17.641  1.00  0.00     0.112 C 
ENDROOT
BRANCH   1   2
HETATM    2  N1  UNL     1      18.439  37.171  17.803  1.00  0.00    -0.311 N 
BRANCH   2   3
HETATM    3  C5  UNL     1      18.281  38.539  17.549  1.00  0.00     0.153 C 
BRANCH   3   4
HETATM    4  C4  UNL     1      19.648  39.263  17.543  1.00  0.00     0.136 C 
BRANCH   4   5
HETATM    5  S1  UNL     1      20.675  39.196  16.170  1.00  0.00    -0.161 SA
BRANCH   5   6
HETATM    6  C3  UNL     1      21.203  40.626  15.304  1.00  0.00     0.100 C 
BRANCH   6   7
HETATM    7  C2  UNL     1      22.172  40.264  14.241  1.00  0.00    -0.027 C 
HETATM    8  C1  UNL     1      21.864  39.501  13.236  1.00  0.00     0.007 C 
ENDBRANCH   6   7
ENDBRANCH   5   6
ENDBRANCH   4   5
ENDBRANCH   3   4
BRANCH   3   9
HETATM    9  O1  UNL     1      17.944  38.638  16.179  1.00  0.00    -0.369 OA
ATOM     10  H1  UNL     1      17.337  39.368  16.210  1.00  0.00     0.212 HD
ENDBRANCH   3   9
BRANCH   3  11
HETATM   11  C22 UNL     1      17.335  39.420  18.246  1.00  0.00     0.000 C 
HETATM   12  C23 UNL     1      17.902  40.860  18.010  1.00  0.00     0.019 C 
HETATM   13  C24 UNL     1      17.285  39.373  19.747  1.00  0.00     0.019 C 
HETATM   14  C25 UNL     1      15.942  39.531  17.658  1.00  0.00     0.019 C 
ENDBRANCH   3  11
ENDBRANCH   2   3
BRANCH   2  15
HETATM   15  C6  UNL     1      19.400  36.739  18.729  1.00  0.00     0.178 C 
BRANCH  15  16
HETATM   16  C7  UNL     1      20.417  35.743  18.387  1.00  0.00     0.215 C 
HETATM   17  O2  UNL     1      20.985  34.936  19.178  1.00  0.00    -0.643 OA
HETATM   18  O3  UNL     1      20.887  35.584  17.060  1.00  0.00    -0.643 OA
ENDBRANCH  15  16
ENDBRANCH   2  15
ENDBRANCH   1   2
BRANCH   1  19
HETATM   19  C9  UNL     1      16.283  36.093  18.674  1.00  0.00     0.119 C 
BRANCH  19  20
HETATM   20  C10 UNL     1      15.123  35.244  18.457  1.00  0.00     0.201 C 
HETATM   21  O4  UNL     1      15.162  34.040  18.865  1.00  0.00    -0.644 OA
HETATM   22  O5  UNL     1      13.922  35.584  17.840  1.00  0.00    -0.644 OA
ENDBRANCH  19  20
ENDBRANCH   1  19
BRANCH   1  23
HETATM   23  C11 UNL     1      17.286  35.438  16.489  1.00  0.00     0.269 C 
HETATM   24  O6  UNL     1      16.636  35.744  15.485  1.00  0.00    -0.266 OA
HETATM   25  N2  UNL     1      18.003  34.240  16.506  1.00  0.00    -0.350 N 
ATOM     26  H2  UNL     1      18.545  33.985  17.331  1.00  0.00     0.163 HD
BRANCH  25  27
HETATM   27  C12 UNL     1      17.980  33.343  15.339  1.00  0.00     0.093 C 
HETATM   28  C13 UNL     1      17.424  32.012  15.692  1.00  0.00     0.012 C 
HETATM   29  C14 UNL     1      17.303  31.157  14.438  1.00  0.00     0.011 C 
HETATM   30  C21 UNL     1      18.294  31.327  16.692  1.00  0.00     0.044 C 
HETATM   31  C15 UNL     1      18.683  30.990  13.866  1.00  0.00    -0.011 C 
HETATM   32  C16 UNL     1      19.207  32.340  13.486  1.00  0.00     0.011 C 
HETATM   33  C20 UNL     1      19.552  30.270  14.846  1.00  0.00     0.042 C 
HETATM   34  C17 UNL     1      19.337  33.192  14.739  1.00  0.00     0.012 C 
HETATM   35  C18 UNL     1      20.283  32.452  15.659  1.00  0.00     0.044 C 
HETATM   36  C19 UNL     1      19.664  31.141  16.088  1.00  0.00     0.059 C 
BRANCH  36  37
HETATM   37  O7  UNL     1      20.493  30.602  17.050  1.00  0.00    -0.390 OA
ATOM     38  H7  UNL     1      20.184  30.919  17.890  1.00  0.00     0.210 HD
ENDBRANCH  36  37
ENDBRANCH  25  27
ENDBRANCH   1  23
TORSDOF 15
ENDMDL
MODEL 3
REMARK VINA RESULT: -7.182016784      1.636      2.142
REMARK  15 active torsions:
REMARK  status: ('A' for Active; 'I' for Inactive)
REMARK    1  A    between atoms: C2_2  and  C3_3 
REMARK    2  A    between atoms: C3_3  and  S1_4 
REMARK    3  A    between atoms: S1_4  and  C4_5 
REMARK    4  A    between atoms: C4_5  and  C5_6 
REMARK    5  A    between atoms: C5_6  and  O1_7 
REMARK    6  A    between atoms: C5_6  and  N1_9 
REMARK    7  A    between atoms: C5_6  and  C22_35 
REMARK    8  A    between atoms: N1_9  and  C6_10 
REMARK    9  A    between atoms: N1_9  and  C8_14 
REMARK   10  A    between atoms: C6_10  and  C7_11 
REMARK   11  A    between atoms: C8_14  and  C9_15 
REMARK   12  A    between atoms: C8_14  and  C11_19 
REMARK   13  A    between atoms: C9_15  and  C10_16 
REMARK       I    between atoms: C11_19  and  N2_21 
REMARK   14  A    between atoms: N2_21  and  C12_23 
REMARK   15  A    between atoms: C19_30  and  O7_31 
ROOT
HETATM    1  C8  UNL     1      16.942  35.523  16.708  1.00  0.00     0.112 C 
ENDROOT
BRANCH   1   2
HETATM    2  N1  UNL     1      17.836  36.182  17.594  1.00  0.00    -0.311 N 
BRANCH   2   3
HETATM    3  C5  UNL     1      17.757  37.580  17.564  1.00  0.00     0.153 C 
BRANCH   3   4
HETATM    4  C4  UNL     1      19.167  38.215  17.515  1.00  0.00     0.136 C 
BRANCH   4   5
HETATM    5  S1  UNL     1      19.582  39.345  16.293  1.00  0.00    -0.161 SA
BRANCH   5   6
HETATM    6  C3  UNL     1      21.240  39.729  15.872  1.00  0.00     0.100 C 
BRANCH   6   7
HETATM    7  C2  UNL     1      21.454  39.588  14.412  1.00  0.00    -0.027 C 
HETATM    8  C1  UNL     1      22.284  40.333  13.746  1.00  0.00     0.007 C 
ENDBRANCH   6   7
ENDBRANCH   5   6
ENDBRANCH   4   5
ENDBRANCH   3   4
BRANCH   3   9
HETATM    9  O1  UNL     1      17.292  37.910  16.270  1.00  0.00    -0.369 OA
ATOM     10  H1  UNL     1      17.956  38.539  16.011  1.00  0.00     0.212 HD
ENDBRANCH   3   9
BRANCH   3  11
HETATM   11  C22 UNL     1      16.954  38.396  18.485  1.00  0.00     0.000 C 
HETATM   12  C23 UNL     1      16.170  39.375  17.548  1.00  0.00     0.019 C 
HETATM   13  C24 UNL     1      17.663  39.366  19.387  1.00  0.00     0.019 C 
HETATM   14  C25 UNL     1      15.828  37.695  19.218  1.00  0.00     0.019 C 
ENDBRANCH   3  11
ENDBRANCH   2   3
BRANCH   2  15
HETATM   15  C6  UNL     1      18.214  35.529  18.776  1.00  0.00     0.178 C 
BRANCH  15  16
HETATM   16  C7  UNL     1      19.593  35.100  19.022  1.00  0.00     0.215 C 
HETATM   17  O2  UNL     1      20.097  34.770  20.133  1.00  0.00    -0.643 OA
HETATM   18  O3  UNL     1      20.542  35.013  17.975  1.00  0.00    -0.643 OA
ENDBRANCH  15  16
ENDBRANCH   2  15
ENDBRANCH   1   2
BRANCH   1  19
HETATM   19  C9  UNL     1      15.556  35.190  16.976  1.00  0.00     0.119 C 
BRANCH  19  20
HETATM   20  C10 UNL     1      15.140  33.977  17.661  1.00  0.00     0.201 C 
HETATM   21  O4  UNL     1      15.027  33.998  18.928  1.00  0.00    -0.644 OA
HETATM   22  O5  UNL     1      14.830  32.743  17.095  1.00  0.00    -0.644 OA
ENDBRANCH  19  20
ENDBRANCH   1  19
BRANCH   1  23
HETATM   23  C11 UNL     1      17.609  34.674  15.662  1.00  0.00     0.269 C 
HETATM   24  O6  UNL     1      17.079  34.643  14.546  1.00  0.00    -0.266 OA
HETATM   25  N2  UNL     1      18.772  33.939  15.892  1.00  0.00    -0.350 N 
ATOM     26  H2  UNL     1      19.215  33.966  16.811  1.00  0.00     0.163 HD
BRANCH  25  27
HETATM   27  C12 UNL     1      19.363  33.124  14.818  1.00  0.00     0.093 C 
HETATM   28  C13 UNL     1      18.570  31.893  14.574  1.00  0.00     0.012 C 
HETATM   29  C14 UNL     1      19.140  31.143  13.379  1.00  0.00     0.011 C 
HETATM   30  C21 UNL     1      18.580  31.014  15.780  1.00  0.00     0.044 C 
HETATM   31  C15 UNL     1      20.558  30.770  13.711  1.00  0.00    -0.011 C 
HETATM   32  C16 UNL     1      21.345  32.026  13.916  1.00  0.00     0.011 C 
HETATM   33  C20 UNL     1      20.576  29.857  14.894  1.00  0.00     0.042 C 
HETATM   34  C17 UNL     1      20.782  32.773  15.116  1.00  0.00     0.012 C 
HETATM   35  C18 UNL     1      20.895  31.831  16.294  1.00  0.00     0.044 C 
HETATM   36  C19 UNL     1      20.008  30.626  16.077  1.00  0.00     0.059 C 
BRANCH  36  37
HETATM   37  O7  UNL     1      20.025  29.899  17.249  1.00  0.00    -0.390 OA
ATOM     38  H7  UNL     1      20.669  29.210  17.138  1.00  0.00     0.210 HD
ENDBRANCH  36  37
ENDBRANCH  25  27
ENDBRANCH   1  23
TORSDOF 15
ENDMDL
MODEL 4
REMARK VINA RESULT: -7.027135662      4.137      9.072
REMARK  15 active torsions:
REMARK  status: ('A' for Active; 'I' for Inactive)
REMARK    1  A    between atoms: C2_2  and  C3_3 
REMARK    2  A    between atoms: C3_3  and  S1_4 
REMARK    3  A    between atoms: S1_4  and  C4_5 
REMARK    4  A    between atoms: C4_5  and  C5_6 
REMARK    5  A    between atoms: C5_6  and  O1_7 
REMARK    6  A    between atoms: C5_6  and  N1_9 
REMARK    7  A    between atoms: C5_6  and  C22_35 
REMARK    8  A    between atoms: N1_9  and  C6_10 
REMARK    9  A    between atoms: N1_9  and  C8_14 
REMARK   10  A    between atoms: C6_10  and  C7_11 
REMARK   11  A    between atoms: C8_14  and  C9_15 
REMARK   12  A    between atoms: C8_14  and  C11_19 
REMARK   13  A    between atoms: C9_15  and  C10_16 
REMARK       I    between atoms: C11_19  and  N2_21 
REMARK   14  A    between atoms: N2_21  and  C12_23 
REMARK   15  A    between atoms: C19_30  and  O7_31 
ROOT
HETATM    1  C8  UNL     1      21.333  30.321  12.987  1.00  0.00     0.112 C 
ENDROOT
BRANCH   1   2
HETATM    2  N1  UNL     1      21.173  28.910  13.048  1.00  0.00    -0.311 N 
BRANCH   2   3
HETATM    3  C5  UNL     1      21.676  28.221  11.938  1.00  0.00     0.153 C 
BRANCH   3   4
HETATM    4  C4  UNL     1      20.829  26.962  11.636  1.00  0.00     0.136 C 
BRANCH   4   5
HETATM    5  S1  UNL     1      19.117  27.006  11.739  1.00  0.00    -0.161 SA
BRANCH   5   6
HETATM    6  C3  UNL     1      18.093  27.495  10.403  1.00  0.00     0.100 C 
BRANCH   6   7
HETATM    7  C2  UNL     1      17.015  28.397  10.874  1.00  0.00    -0.027 C 
HETATM    8  C1  UNL     1      17.087  29.059  11.989  1.00  0.00     0.007 C 
ENDBRANCH   6   7
ENDBRANCH   5   6
ENDBRANCH   4   5
ENDBRANCH   3   4
BRANCH   3   9
HETATM    9  O1  UNL     1      21.349  29.014  10.814  1.00  0.00    -0.369 OA
ATOM     10  H1  UNL     1      22.210  29.346  10.589  1.00  0.00     0.212 HD
ENDBRANCH   3   9
BRANCH   3  11
HETATM   11  C22 UNL     1      23.083  27.843  11.750  1.00  0.00     0.000 C 
HETATM   12  C23 UNL     1      23.040  26.295  11.524  1.00  0.00     0.019 C 
HETATM   13  C24 UNL     1      24.014  27.937  12.925  1.00  0.00     0.019 C 
HETATM   14  C25 UNL     1      23.758  28.326  10.481  1.00  0.00     0.019 C 
ENDBRANCH   3  11
ENDBRANCH   2   3
BRANCH   2  15
HETATM   15  C6  UNL     1      21.155  28.289  14.306  1.00  0.00     0.178 C 
BRANCH  15  16
HETATM   16  C7  UNL     1      20.050  28.473  15.248  1.00  0.00     0.215 C 
HETATM   17  O2  UNL     1      20.090  29.085  16.354  1.00  0.00    -0.643 OA
HETATM   18  O3  UNL     1      18.759  27.949  14.993  1.00  0.00    -0.643 OA
ENDBRANCH  15  16
ENDBRANCH   2  15
ENDBRANCH   1   2
BRANCH   1  19
HETATM   19  C9  UNL     1      22.541  31.063  13.294  1.00  0.00     0.119 C 
BRANCH  19  20
HETATM   20  C10 UNL     1      22.772  31.733  14.563  1.00  0.00     0.201 C 
HETATM   21  O4  UNL     1      23.789  32.488  14.680  1.00  0.00    -0.644 OA
HETATM   22  O5  UNL     1      21.996  31.661  15.717  1.00  0.00    -0.644 OA
ENDBRANCH  19  20
ENDBRANCH   1  19
BRANCH   1  23
HETATM   23  C11 UNL     1      20.056  31.102  13.121  1.00  0.00     0.269 C 
HETATM   24  O6  UNL     1      19.658  31.701  12.116  1.00  0.00    -0.266 OA
HETATM   25  N2  UNL     1      19.318  31.177  14.303  1.00  0.00    -0.350 N 
ATOM     26  H2  UNL     1      19.640  30.681  15.134  1.00  0.00     0.163 HD
BRANCH  25  27
HETATM   27  C12 UNL     1      18.079  31.969  14.359  1.00  0.00     0.093 C 
HETATM   28  C13 UNL     1      18.369  33.423  14.438  1.00  0.00     0.012 C 
HETATM   29  C14 UNL     1      17.069  34.211  14.368  1.00  0.00     0.011 C 
HETATM   30  C21 UNL     1      19.094  33.747  15.701  1.00  0.00     0.044 C 
HETATM   31  C15 UNL     1      16.226  33.802  15.544  1.00  0.00    -0.011 C 
HETATM   32  C16 UNL     1      15.917  32.343  15.423  1.00  0.00     0.011 C 
HETATM   33  C20 UNL     1      16.927  34.158  16.816  1.00  0.00     0.042 C 
HETATM   34  C17 UNL     1      17.215  31.553  15.501  1.00  0.00     0.012 C 
HETATM   35  C18 UNL     1      17.839  31.895  16.835  1.00  0.00     0.044 C 
HETATM   36  C19 UNL     1      18.219  33.358  16.868  1.00  0.00     0.059 C 
BRANCH  36  37
HETATM   37  O7  UNL     1      18.932  33.562  18.031  1.00  0.00    -0.390 OA
ATOM     38  H7  UNL     1      19.274  34.447  17.993  1.00  0.00     0.210 HD
ENDBRANCH  36  37
ENDBRANCH  25  27
ENDBRANCH   1  23
TORSDOF 15
ENDMDL
MODEL 5
REMARK VINA RESULT: -6.905377407      3.535      8.237
REMARK  15 active torsions:
REMARK  status: ('A' for Active; 'I' for Inactive)
REMARK    1  A    between atoms: C2_2  and  C3_3 
REMARK    2  A    between atoms: C3_3  and  S1_4 
REMARK    3  A    between atoms: S1_4  and  C4_5 
REMARK    4  A    between atoms: C4_5  and  C5_6 
REMARK    5  A    between atoms: C5_6  and  O1_7 
REMARK    6  A    between atoms: C5_6  and  N1_9 
REMARK    7  A    between atoms: C5_6  and  C22_35 
REMARK    8  A    between atoms: N1_9  and  C6_10 
REMARK    9  A    between atoms: N1_9  and  C8_14 
REMARK   10  A    between atoms: C6_10  and  C7_11 
REMARK   11  A    between atoms: C8_14  and  C9_15 
REMARK   12  A    between atoms: C8_14  and  C11_19 
REMARK   13  A    between atoms: C9_15  and  C10_16 
REMARK       I    between atoms: C11_19  and  N2_21 
REMARK   14  A    between atoms: N2_21  and  C12_23 
REMARK   15  A    between atoms: C19_30  and  O7_31 
ROOT
HETATM    1  C8  UNL     1      19.539  30.903  13.689  1.00  0.00     0.112 C 
ENDROOT
BRANCH   1   2
HETATM    2  N1  UNL     1      19.665  29.589  14.214  1.00  0.00    -0.311 N 
BRANCH   2   3
HETATM    3  C5  UNL     1      19.657  28.575  13.248  1.00  0.00     0.153 C 
BRANCH   3   4
HETATM    4  C4  UNL     1      20.547  28.953  12.040  1.00  0.00     0.136 C 
BRANCH   4   5
HETATM    5  S1  UNL     1      22.229  28.611  12.044  1.00  0.00    -0.161 SA
BRANCH   5   6
HETATM    6  C3  UNL     1      22.907  27.158  11.336  1.00  0.00     0.100 C 
BRANCH   6   7
HETATM    7  C2  UNL     1      24.372  27.302  11.152  1.00  0.00    -0.027 C 
HETATM    8  C1  UNL     1      25.239  26.769  11.960  1.00  0.00     0.007 C 
ENDBRANCH   6   7
ENDBRANCH   5   6
ENDBRANCH   4   5
ENDBRANCH   3   4
BRANCH   3   9
HETATM    9  O1  UNL     1      20.420  27.518  13.795  1.00  0.00    -0.369 OA
ATOM     10  H1  UNL     1      19.903  27.323  14.568  1.00  0.00     0.212 HD
ENDBRANCH   3   9
BRANCH   3  11
HETATM   11  C22 UNL     1      18.449  27.941  12.704  1.00  0.00     0.000 C 
HETATM   12  C23 UNL     1      18.986  26.701  11.914  1.00  0.00     0.019 C 
HETATM   13  C24 UNL     1      17.684  28.659  11.629  1.00  0.00     0.019 C 
HETATM   14  C25 UNL     1      17.508  27.293  13.701  1.00  0.00     0.019 C 
ENDBRANCH   3  11
ENDBRANCH   2   3
BRANCH   2  15
HETATM   15  C6  UNL     1      20.374  29.407  15.410  1.00  0.00     0.178 C 
BRANCH  15  16
HETATM   16  C7  UNL     1      20.142  30.247  16.587  1.00  0.00     0.215 C 
HETATM   17  O2  UNL     1      20.953  31.069  17.103  1.00  0.00    -0.643 OA
HETATM   18  O3  UNL     1      18.917  30.213  17.296  1.00  0.00    -0.643 OA
ENDBRANCH  15  16
ENDBRANCH   2  15
ENDBRANCH   1   2
BRANCH   1  19
HETATM   19  C9  UNL     1      20.617  31.737  13.190  1.00  0.00     0.119 C 
BRANCH  19  20
HETATM   20  C10 UNL     1      21.691  32.245  14.026  1.00  0.00     0.201 C 
HETATM   21  O4  UNL     1      21.480  33.283  14.729  1.00  0.00    -0.644 OA
HETATM   22  O5  UNL     1      22.975  31.726  14.171  1.00  0.00    -0.644 OA
ENDBRANCH  19  20
ENDBRANCH   1  19
BRANCH   1  23
HETATM   23  C11 UNL     1      18.322  31.651  14.159  1.00  0.00     0.269 C 
HETATM   24  O6  UNL     1      17.226  31.120  13.955  1.00  0.00    -0.266 OA
HETATM   25  N2  UNL     1      18.379  32.890  14.800  1.00  0.00    -0.350 N 
ATOM     26  H2  UNL     1      19.283  33.329  14.974  1.00  0.00     0.163 HD
BRANCH  25  27
HETATM   27  C12 UNL     1      17.142  33.565  15.226  1.00  0.00     0.093 C 
HETATM   28  C13 UNL     1      17.400  34.977  15.606  1.00  0.00     0.012 C 
HETATM   29  C14 UNL     1      16.083  35.673  15.920  1.00  0.00     0.011 C 
HETATM   30  C21 UNL     1      18.307  35.045  16.788  1.00  0.00     0.044 C 
HETATM   31  C15 UNL     1      15.450  34.948  17.076  1.00  0.00    -0.011 C 
HETATM   32  C16 UNL     1      15.168  33.540  16.656  1.00  0.00     0.011 C 
HETATM   33  C20 UNL     1      16.334  35.045  18.277  1.00  0.00     0.042 C 
HETATM   34  C17 UNL     1      16.483  32.840  16.350  1.00  0.00     0.012 C 
HETATM   35  C18 UNL     1      17.302  32.903  17.620  1.00  0.00     0.044 C 
HETATM   36  C19 UNL     1      17.641  34.340  17.944  1.00  0.00     0.059 C 
BRANCH  36  37
HETATM   37  O7  UNL     1      18.523  34.316  19.004  1.00  0.00    -0.390 OA
ATOM     38  H7  UNL     1      18.402  35.126  19.483  1.00  0.00     0.210 HD
ENDBRANCH  36  37
ENDBRANCH  25  27
ENDBRANCH   1  23
TORSDOF 15
ENDMDL
