MODEL 1
REMARK VINA RESULT: -9.642288541      0.000      0.000
REMARK  12 active torsions:
REMARK  status: ('A' for Active; 'I' for Inactive)
REMARK    1  A    between atoms: C5_7  and  N2_8 
REMARK    2  A    between atoms: N2_8  and  C6_10 
REMARK    3  A    between atoms: C6_10  and  O1_11 
REMARK    4  A    between atoms: C7_13  and  N3_14 
REMARK    5  A    between atoms: N3_14  and  C8_15 
REMARK       I    between atoms: N3_14  and  C14_25 
REMARK    6  A    between atoms: C8_15  and  C9_16 
REMARK    7  A    between atoms: C14_25  and  C15_27 
REMARK    8  A    between atoms: C15_27  and  C16_28 
REMARK    9  A    between atoms: C16_28  and  C17_29 
REMARK   10  A    between atoms: C17_29  and  C18_30 
REMARK   11  A    between atoms: C18_30  and  C19_31 
REMARK   12  A    between atoms: C19_31  and  N6_32 
ROOT
HETATM    1  N3  UNL     1      20.527  29.943  13.627  1.00  0.00    -0.299 N 
HETATM    2  C14 UNL     1      20.015  31.169  13.066  1.00  0.00     0.227 C 
HETATM    3  O2  UNL     1      20.369  31.430  11.889  1.00  0.00    -0.273 OA
ENDROOT
BRANCH   1   4
HETATM    4  C7  UNL     1      20.130  29.603  14.947  1.00  0.00     0.155 C 
HETATM    5  C6  UNL     1      20.566  30.261  16.142  1.00  0.00     0.158 C 
BRANCH   5   6
HETATM    6  N2  UNL     1      21.495  31.281  16.383  1.00  0.00    -0.322 N 
ATOM      7  H2  UNL     1      22.484  31.091  16.222  1.00  0.00     0.169 HD
BRANCH   6   8
HETATM    8  C5  UNL     1      21.109  32.585  16.846  1.00  0.00     0.113 A 
HETATM    9  N1  UNL     1      19.816  32.893  17.095  1.00  0.00    -0.352 N 
HETATM   10  C4  UNL     1      19.439  34.108  17.531  1.00  0.00     0.090 A 
ATOM     11  H1  UNL     1      19.102  32.179  16.947  1.00  0.00     0.166 HD
HETATM   12  C3  UNL     1      20.367  35.105  17.744  1.00  0.00     0.024 A 
HETATM   13  C2  UNL     1      21.689  34.813  17.498  1.00  0.00    -0.051 A 
HETATM   14  C1  UNL     1      22.728  35.875  17.720  1.00  0.00     0.049 C 
HETATM   15  C24 UNL     1      22.057  33.545  17.047  1.00  0.00    -0.012 A 
HETATM   16  C25 UNL     1      23.520  33.317  16.807  1.00  0.00     0.052 C 
ENDBRANCH   6   8
ENDBRANCH   5   6
BRANCH   5  17
HETATM   17  O1  UNL     1      19.991  29.825  17.244  1.00  0.00    -0.345 OA
ATOM     18  H1  UNL     1      19.388  29.108  17.086  1.00  0.00     0.219 HD
ENDBRANCH   5  17
ENDBRANCH   1   4
BRANCH   1  19
HETATM   19  C8  UNL     1      21.566  29.259  12.970  1.00  0.00     0.115 C 
BRANCH  19  20
HETATM   20  C9  UNL     1      21.508  28.106  12.146  1.00  0.00     0.027 A 
HETATM   21  C10 UNL     1      22.739  27.442  11.811  1.00  0.00     0.035 A 
HETATM   22  C11 UNL     1      24.088  27.805  12.259  1.00  0.00     0.070 C 
HETATM   23  N4  UNL     1      22.452  26.426  11.012  1.00  0.00    -0.304 N 
HETATM   24  N5  UNL     1      21.165  26.346  10.782  1.00  0.00    -0.304 N 
ATOM     25  H4  UNL     1      23.146  25.786  10.624  1.00  0.00     0.186 HD
HETATM   26  C12 UNL     1      20.592  27.386  11.485  1.00  0.00     0.035 A 
ATOM     27  H5  UNL     1      20.686  25.656  10.203  1.00  0.00     0.186 HD
HETATM   28  C13 UNL     1      19.132  27.589  11.414  1.00  0.00     0.070 C 
ENDBRANCH  19  20
ENDBRANCH   1  19
BRANCH   2  29
HETATM   29  C15 UNL     1      19.134  32.067  13.822  1.00  0.00     0.103 C 
BRANCH  29  30
HETATM   30  C16 UNL     1      17.727  31.609  13.976  1.00  0.00     0.009 C 
BRANCH  30  31
HETATM   31  C17 UNL     1      17.030  31.997  15.233  1.00  0.00     0.002 C 
BRANCH  31  32
HETATM   32  C18 UNL     1      16.615  33.445  15.230  1.00  0.00     0.020 C 
BRANCH  32  33
HETATM   33  C19 UNL     1      15.604  33.768  16.299  1.00  0.00     0.133 C 
BRANCH  33  34
HETATM   34  N6  UNL     1      15.989  34.984  16.998  1.00  0.00    -0.310 N 
HETATM   35  C20 UNL     1      16.543  36.011  16.323  1.00  0.00     0.101 A 
HETATM   36  C21 UNL     1      16.911  37.168  16.971  1.00  0.00     0.092 A 
HETATM   37  C22 UNL     1      16.718  37.303  18.348  1.00  0.00     0.250 A 
HETATM   38  O3  UNL     1      17.032  38.323  18.980  1.00  0.00    -0.268 OA
HETATM   39  N7  UNL     1      16.159  36.246  18.985  1.00  0.00    -0.275 N 
HETATM   40  C23 UNL     1      15.813  35.134  18.315  1.00  0.00     0.329 A 
ATOM     41  H7  UNL     1      15.997  36.296  19.991  1.00  0.00     0.173 HD
HETATM   42  O4  UNL     1      15.292  34.167  18.954  1.00  0.00    -0.246 OA
ENDBRANCH  33  34
ENDBRANCH  32  33
ENDBRANCH  31  32
ENDBRANCH  30  31
ENDBRANCH  29  30
ENDBRANCH   2  29
TORSDOF 12
ENDMDL
MODEL 2
REMARK VINA RESULT: -9.581081381      2.131      5.679
REMARK  12 active torsions:
REMARK  status: ('A' for Active; 'I' for Inactive)
REMARK    1  A    between atoms: C5_7  and  N2_8 
REMARK    2  A    between atoms: N2_8  and  C6_10 
REMARK    3  A    between atoms: C6_10  and  O1_11 
REMARK    4  A    between atoms: C7_13  and  N3_14 
REMARK    5  A    between atoms: N3_14  and  C8_15 
REMARK       I    between atoms: N3_14  and  C14_25 
REMARK    6  A    between atoms: C8_15  and  C9_16 
REMARK    7  A    between atoms: C14_25  and  C15_27 
REMARK    8  A    between atoms: C15_27  and  C16_28 
REMARK    9  A    between atoms: C16_28  and  C17_29 
REMARK   10  A    between atoms: C17_29  and  C18_30 
REMARK   11  A    between atoms: C18_30  and  C19_31 
REMARK   12  A    between atoms: C19_31  and  N6_32 
ROOT
HETATM    1  N3  UNL     1      19.119  32.475  15.664  1.00  0.00    -0.299 N 
HETATM    2  C14 UNL     1      17.792  32.762  15.177  1.00  0.00     0.227 C 
HETATM    3  O2  UNL     1      17.687  33.741  14.396  1.00  0.00    -0.273 OA
ENDROOT
BRANCH   1   4
HETATM    4  C7  UNL     1      19.279  31.362  16.531  1.00  0.00     0.155 C 
HETATM    5  C6  UNL     1      19.851  30.100  16.170  1.00  0.00     0.158 C 
BRANCH   5   6
HETATM    6  N2  UNL     1      20.306  29.575  14.954  1.00  0.00    -0.322 N 
ATOM      7  H2  UNL     1      21.218  29.869  14.605  1.00  0.00     0.169 HD
BRANCH   6   8
HETATM    8  C5  UNL     1      19.539  28.639  14.180  1.00  0.00     0.113 A 
HETATM    9  N1  UNL     1      18.360  28.151  14.627  1.00  0.00    -0.352 N 
HETATM   10  C4  UNL     1      17.629  27.275  13.913  1.00  0.00     0.090 A 
ATOM     11  H1  UNL     1      18.013  28.457  15.536  1.00  0.00     0.166 HD
HETATM   12  C3  UNL     1      18.057  26.832  12.681  1.00  0.00     0.024 A 
HETATM   13  C2  UNL     1      19.254  27.318  12.206  1.00  0.00    -0.051 A 
HETATM   14  C1  UNL     1      19.752  26.856  10.866  1.00  0.00     0.049 C 
HETATM   15  C24 UNL     1      19.996  28.226  12.963  1.00  0.00    -0.012 A 
HETATM   16  C25 UNL     1      21.287  28.701  12.365  1.00  0.00     0.052 C 
ENDBRANCH   6   8
ENDBRANCH   5   6
BRANCH   5  17
HETATM   17  O1  UNL     1      19.975  29.253  17.170  1.00  0.00    -0.345 OA
ATOM     18  H1  UNL     1      19.141  28.906  17.464  1.00  0.00     0.219 HD
ENDBRANCH   5  17
ENDBRANCH   1   4
BRANCH   1  19
HETATM   19  C8  UNL     1      20.146  33.416  15.474  1.00  0.00     0.115 C 
BRANCH  19  20
HETATM   20  C9  UNL     1      21.469  33.424  15.987  1.00  0.00     0.027 A 
HETATM   21  C10 UNL     1      22.504  32.781  15.224  1.00  0.00     0.035 A 
HETATM   22  C11 UNL     1      22.360  32.123  13.920  1.00  0.00     0.070 C 
HETATM   23  N4  UNL     1      23.636  32.878  15.904  1.00  0.00    -0.304 N 
HETATM   24  N5  UNL     1      23.462  33.516  17.035  1.00  0.00    -0.304 N 
ATOM     25  H4  UNL     1      24.530  32.504  15.587  1.00  0.00     0.186 HD
HETATM   26  C12 UNL     1      22.123  33.848  17.077  1.00  0.00     0.035 A 
ATOM     27  H5  UNL     1      24.171  33.725  17.738  1.00  0.00     0.186 HD
HETATM   28  C13 UNL     1      21.593  34.564  18.254  1.00  0.00     0.070 C 
ENDBRANCH  19  20
ENDBRANCH   1  19
BRANCH   2  29
HETATM   29  C15 UNL     1      16.624  31.963  15.569  1.00  0.00     0.103 C 
BRANCH  29  30
HETATM   30  C16 UNL     1      15.376  32.730  15.824  1.00  0.00     0.009 C 
BRANCH  30  31
HETATM   31  C17 UNL     1      15.198  33.284  17.195  1.00  0.00     0.002 C 
BRANCH  31  32
HETATM   32  C18 UNL     1      15.253  34.790  17.211  1.00  0.00     0.020 C 
BRANCH  32  33
HETATM   33  C19 UNL     1      15.383  35.357  18.601  1.00  0.00     0.133 C 
BRANCH  33  34
HETATM   34  N6  UNL     1      16.499  36.287  18.657  1.00  0.00    -0.310 N 
HETATM   35  C20 UNL     1      16.298  37.605  18.452  1.00  0.00     0.101 A 
HETATM   36  C21 UNL     1      17.345  38.498  18.503  1.00  0.00     0.092 A 
HETATM   37  C22 UNL     1      18.642  38.056  18.771  1.00  0.00     0.250 A 
HETATM   38  O3  UNL     1      19.620  38.817  18.828  1.00  0.00    -0.268 OA
HETATM   39  N7  UNL     1      18.797  36.724  18.971  1.00  0.00    -0.275 N 
HETATM   40  C23 UNL     1      17.748  35.886  18.912  1.00  0.00     0.329 A 
ATOM     41  H7  UNL     1      19.726  36.352  19.170  1.00  0.00     0.173 HD
HETATM   42  O4  UNL     1      17.941  34.645  19.105  1.00  0.00    -0.246 OA
ENDBRANCH  33  34
ENDBRANCH  32  33
ENDBRANCH  31  32
ENDBRANCH  30  31
ENDBRANCH  29  30
ENDBRANCH   2  29
TORSDOF 12
ENDMDL
MODEL 3
REMARK VINA RESULT: -9.545626061      2.507      7.930
REMARK  12 active torsions:
REMARK  status: ('A' for Active; 'I' for Inactive)
REMARK    1  A    between atoms: C5_7  and  N2_8 
REMARK    2  A    between atoms: N2_8  and  C6_10 
REMARK    3  A    between atoms: C6_10  and  O1_11 
REMARK    4  A    between atoms: C7_13  and  N3_14 
REMARK    5  A    between atoms: N3_14  and  C8_15 
REMARK       I    between atoms: N3_14  and  C14_25 
REMARK    6  A    between atoms: C8_15  and  C9_16 
REMARK    7  A    between atoms: C14_25  and  C15_27 
REMARK    8  A    between atoms: C15_27  and  C16_28 
REMARK    9  A    between atoms: C16_28  and  C17_29 
REMARK   10  A    between atoms: C17_29  and  C18_30 
REMARK   11  A    between atoms: C18_30  and  C19_31 
REMARK   12  A    between atoms: C19_31  and  N6_32 
ROOT
HETATM    1  N3  UNL     1      19.011  31.496  14.146  1.00  0.00    -0.299 N 
HETATM    2  C14 UNL     1      20.100  32.006  13.351  1.00  0.00     0.227 C 
HETATM    3  O2  UNL     1      20.052  31.759  12.120  1.00  0.00    -0.273 OA
ENDROOT
BRANCH   1   4
HETATM    4  C7  UNL     1      19.020  31.775  15.538  1.00  0.00     0.155 C 
HETATM    5  C6  UNL     1      18.491  32.955  16.155  1.00  0.00     0.158 C 
BRANCH   5   6
HETATM    6  N2  UNL     1      17.935  34.131  15.637  1.00  0.00    -0.322 N 
ATOM      7  H2  UNL     1      18.024  34.317  14.638  1.00  0.00     0.169 HD
BRANCH   6   8
HETATM    8  C5  UNL     1      17.243  35.086  16.457  1.00  0.00     0.113 A 
HETATM    9  N1  UNL     1      17.845  36.221  16.881  1.00  0.00    -0.352 N 
HETATM   10  C4  UNL     1      17.210  37.125  17.647  1.00  0.00     0.090 A 
ATOM     11  H1  UNL     1      18.813  36.396  16.610  1.00  0.00     0.166 HD
HETATM   12  C3  UNL     1      15.903  36.932  18.039  1.00  0.00     0.024 A 
HETATM   13  C2  UNL     1      15.271  35.785  17.617  1.00  0.00    -0.051 A 
HETATM   14  C1  UNL     1      13.845  35.541  18.025  1.00  0.00     0.049 C 
HETATM   15  C24 UNL     1      15.948  34.860  16.822  1.00  0.00    -0.012 A 
HETATM   16  C25 UNL     1      15.179  33.640  16.409  1.00  0.00     0.052 C 
ENDBRANCH   6   8
ENDBRANCH   5   6
BRANCH   5  17
HETATM   17  O1  UNL     1      18.534  32.947  17.471  1.00  0.00    -0.345 OA
ATOM     18  H1  UNL     1      18.695  32.083  17.829  1.00  0.00     0.219 HD
ENDBRANCH   5  17
ENDBRANCH   1   4
BRANCH   1  19
HETATM   19  C8  UNL     1      18.124  30.558  13.589  1.00  0.00     0.115 C 
BRANCH  19  20
HETATM   20  C9  UNL     1      18.213  29.142  13.553  1.00  0.00     0.027 A 
HETATM   21  C10 UNL     1      17.466  28.435  12.548  1.00  0.00     0.035 A 
HETATM   22  C11 UNL     1      16.620  29.020  11.501  1.00  0.00     0.070 C 
HETATM   23  N4  UNL     1      17.667  27.138  12.725  1.00  0.00    -0.304 N 
HETATM   24  N5  UNL     1      18.466  26.911  13.737  1.00  0.00    -0.304 N 
ATOM     25  H4  UNL     1      17.252  26.408  12.146  1.00  0.00     0.186 HD
HETATM   26  C12 UNL     1      18.797  28.153  14.241  1.00  0.00     0.035 A 
ATOM     27  H5  UNL     1      18.780  26.003  14.082  1.00  0.00     0.186 HD
HETATM   28  C13 UNL     1      19.679  28.242  15.421  1.00  0.00     0.070 C 
ENDBRANCH  19  20
ENDBRANCH   1  19
BRANCH   2  29
HETATM   29  C15 UNL     1      21.208  32.770  13.940  1.00  0.00     0.103 C 
BRANCH  29  30
HETATM   30  C16 UNL     1      22.450  31.997  14.208  1.00  0.00     0.009 C 
BRANCH  30  31
HETATM   31  C17 UNL     1      22.279  30.595  14.679  1.00  0.00     0.002 C 
BRANCH  31  32
HETATM   32  C18 UNL     1      23.007  29.608  13.804  1.00  0.00     0.020 C 
BRANCH  32  33
HETATM   33  C19 UNL     1      22.111  28.953  12.787  1.00  0.00     0.133 C 
BRANCH  33  34
HETATM   34  N6  UNL     1      22.743  27.751  12.265  1.00  0.00    -0.310 N 
HETATM   35  C20 UNL     1      24.087  27.640  12.252  1.00  0.00     0.101 A 
HETATM   36  C21 UNL     1      24.699  26.508  11.763  1.00  0.00     0.092 A 
HETATM   37  C22 UNL     1      23.938  25.447  11.267  1.00  0.00     0.250 A 
HETATM   38  O3  UNL     1      24.438  24.406  10.815  1.00  0.00    -0.268 OA
HETATM   39  N7  UNL     1      22.592  25.603  11.300  1.00  0.00    -0.275 N 
HETATM   40  C23 UNL     1      22.034  26.724  11.786  1.00  0.00     0.329 A 
ATOM     41  H7  UNL     1      21.993  24.855  10.949  1.00  0.00     0.173 HD
HETATM   42  O4  UNL     1      20.767  26.826  11.796  1.00  0.00    -0.246 OA
ENDBRANCH  33  34
ENDBRANCH  32  33
ENDBRANCH  31  32
ENDBRANCH  30  31
ENDBRANCH  29  30
ENDBRANCH   2  29
TORSDOF 12
ENDMDL
MODEL 4
REMARK VINA RESULT: -9.539973751      2.217      6.024
REMARK  12 active torsions:
REMARK  status: ('A' for Active; 'I' for Inactive)
REMARK    1  A    between atoms: C5_7  and  N2_8 
REMARK    2  A    between atoms: N2_8  and  C6_10 
REMARK    3  A    between atoms: C6_10  and  O1_11 
REMARK    4  A    between atoms: C7_13  and  N3_14 
REMARK    5  A    between atoms: N3_14  and  C8_15 
REMARK       I    between atoms: N3_14  and  C14_25 
REMARK    6  A    between atoms: C8_15  and  C9_16 
REMARK    7  A    between atoms: C14_25  and  C15_27 
REMARK    8  A    between atoms: C15_27  and  C16_28 
REMARK    9  A    between atoms: C16_28  and  C17_29 
REMARK   10  A    between atoms: C17_29  and  C18_30 
REMARK   11  A    between atoms: C18_30  and  C19_31 
REMARK   12  A    between atoms: C19_31  and  N6_32 
ROOT
HETATM    1  N3  UNL     1      19.195  32.469  15.646  1.00  0.00    -0.299 N 
HETATM    2  C14 UNL     1      17.896  32.714  15.069  1.00  0.00     0.227 C 
HETATM    3  O2  UNL     1      17.809  33.700  14.296  1.00  0.00    -0.273 OA
ENDROOT
BRANCH   1   4
HETATM    4  C7  UNL     1      19.337  31.349  16.507  1.00  0.00     0.155 C 
HETATM    5  C6  UNL     1      19.895  30.083  16.142  1.00  0.00     0.158 C 
BRANCH   5   6
HETATM    6  N2  UNL     1      20.350  29.559  14.926  1.00  0.00    -0.322 N 
ATOM      7  H2  UNL     1      21.264  29.850  14.579  1.00  0.00     0.169 HD
BRANCH   6   8
HETATM    8  C5  UNL     1      19.582  28.628  14.148  1.00  0.00     0.113 A 
HETATM    9  N1  UNL     1      18.386  28.164  14.578  1.00  0.00    -0.352 N 
HETATM   10  C4  UNL     1      17.654  27.294  13.860  1.00  0.00     0.090 A 
ATOM     11  H1  UNL     1      18.028  28.487  15.477  1.00  0.00     0.166 HD
HETATM   12  C3  UNL     1      18.097  26.830  12.640  1.00  0.00     0.024 A 
HETATM   13  C2  UNL     1      19.310  27.290  12.183  1.00  0.00    -0.051 A 
HETATM   14  C1  UNL     1      19.825  26.806  10.857  1.00  0.00     0.049 C 
HETATM   15  C24 UNL     1      20.053  28.193  12.943  1.00  0.00    -0.012 A 
HETATM   16  C25 UNL     1      21.363  28.640  12.365  1.00  0.00     0.052 C 
ENDBRANCH   6   8
ENDBRANCH   5   6
BRANCH   5  17
HETATM   17  O1  UNL     1      20.003  29.228  17.138  1.00  0.00    -0.345 OA
ATOM     18  H1  UNL     1      19.352  29.367  17.815  1.00  0.00     0.219 HD
ENDBRANCH   5  17
ENDBRANCH   1   4
BRANCH   1  19
HETATM   19  C8  UNL     1      20.197  33.451  15.543  1.00  0.00     0.115 C 
BRANCH  19  20
HETATM   20  C9  UNL     1      21.185  33.835  16.485  1.00  0.00     0.027 A 
HETATM   21  C10 UNL     1      22.492  33.244  16.386  1.00  0.00     0.035 A 
HETATM   22  C11 UNL     1      22.953  32.285  15.376  1.00  0.00     0.070 C 
HETATM   23  N4  UNL     1      23.231  33.715  17.378  1.00  0.00    -0.304 N 
HETATM   24  N5  UNL     1      22.555  34.554  18.123  1.00  0.00    -0.304 N 
ATOM     25  H4  UNL     1      24.205  33.458  17.542  1.00  0.00     0.186 HD
HETATM   26  C12 UNL     1      21.295  34.621  17.565  1.00  0.00     0.035 A 
ATOM     27  H5  UNL     1      22.891  35.055  18.946  1.00  0.00     0.186 HD
HETATM   28  C13 UNL     1      20.269  35.475  18.195  1.00  0.00     0.070 C 
ENDBRANCH  19  20
ENDBRANCH   1  19
BRANCH   2  29
HETATM   29  C15 UNL     1      16.736  31.865  15.367  1.00  0.00     0.103 C 
BRANCH  29  30
HETATM   30  C16 UNL     1      15.615  32.535  16.078  1.00  0.00     0.009 C 
BRANCH  30  31
HETATM   31  C17 UNL     1      15.982  33.506  17.144  1.00  0.00     0.002 C 
BRANCH  31  32
HETATM   32  C18 UNL     1      15.509  34.902  16.830  1.00  0.00     0.020 C 
BRANCH  32  33
HETATM   33  C19 UNL     1      16.598  35.934  16.963  1.00  0.00     0.133 C 
BRANCH  33  34
HETATM   34  N6  UNL     1      16.108  37.082  17.711  1.00  0.00    -0.310 N 
HETATM   35  C20 UNL     1      15.235  36.911  18.725  1.00  0.00     0.101 A 
HETATM   36  C21 UNL     1      14.763  37.987  19.442  1.00  0.00     0.092 A 
HETATM   37  C22 UNL     1      15.180  39.284  19.134  1.00  0.00     0.250 A 
HETATM   38  O3  UNL     1      14.787  40.287  19.748  1.00  0.00    -0.268 OA
HETATM   39  N7  UNL     1      16.058  39.408  18.108  1.00  0.00    -0.275 N 
HETATM   40  C23 UNL     1      16.494  38.331  17.433  1.00  0.00     0.329 A 
ATOM     41  H7  UNL     1      16.393  40.335  17.845  1.00  0.00     0.173 HD
HETATM   42  O4  UNL     1      17.316  38.495  16.478  1.00  0.00    -0.246 OA
ENDBRANCH  33  34
ENDBRANCH  32  33
ENDBRANCH  31  32
ENDBRANCH  30  31
ENDBRANCH  29  30
ENDBRANCH   2  29
TORSDOF 12
ENDMDL
MODEL 5
REMARK VINA RESULT: -9.539325313      2.428      8.341
REMARK  12 active torsions:
REMARK  status: ('A' for Active; 'I' for Inactive)
REMARK    1  A    between atoms: C5_7  and  N2_8 
REMARK    2  A    between atoms: N2_8  and  C6_10 
REMARK    3  A    between atoms: C6_10  and  O1_11 
REMARK    4  A    between atoms: C7_13  and  N3_14 
REMARK    5  A    between atoms: N3_14  and  C8_15 
REMARK       I    between atoms: N3_14  and  C14_25 
REMARK    6  A    between atoms: C8_15  and  C9_16 
REMARK    7  A    between atoms: C14_25  and  C15_27 
REMARK    8  A    between atoms: C15_27  and  C16_28 
REMARK    9  A    between atoms: C16_28  and  C17_29 
REMARK   10  A    between atoms: C17_29  and  C18_30 
REMARK   11  A    between atoms: C18_30  and  C19_31 
REMARK   12  A    between atoms: C19_31  and  N6_32 
ROOT
HETATM    1  N3  UNL     1      18.795  32.416  15.314  1.00  0.00    -0.299 N 
HETATM    2  C14 UNL     1      18.508  31.017  15.120  1.00  0.00     0.227 C 
HETATM    3  O2  UNL     1      19.116  30.216  15.873  1.00  0.00    -0.273 OA
ENDROOT
BRANCH   1   4
HETATM    4  C7  UNL     1      18.109  33.352  14.495  1.00  0.00     0.155 C 
HETATM    5  C6  UNL     1      17.114  34.279  14.945  1.00  0.00     0.158 C 
BRANCH   5   6
HETATM    6  N2  UNL     1      16.494  34.483  16.183  1.00  0.00    -0.322 N 
ATOM      7  H2  UNL     1      16.045  33.690  16.643  1.00  0.00     0.169 HD
BRANCH   6   8
HETATM    8  C5  UNL     1      16.465  35.764  16.833  1.00  0.00     0.113 A 
HETATM    9  N1  UNL     1      17.421  36.693  16.607  1.00  0.00    -0.352 N 
HETATM   10  C4  UNL     1      17.407  37.897  17.206  1.00  0.00     0.090 A 
ATOM     11  H1  UNL     1      18.178  36.473  15.959  1.00  0.00     0.166 HD
HETATM   12  C3  UNL     1      16.405  38.239  18.088  1.00  0.00     0.024 A 
HETATM   13  C2  UNL     1      15.421  37.309  18.332  1.00  0.00    -0.051 A 
HETATM   14  C1  UNL     1      14.314  37.647  19.289  1.00  0.00     0.049 C 
HETATM   15  C24 UNL     1      15.455  36.066  17.699  1.00  0.00    -0.012 A 
HETATM   16  C25 UNL     1      14.341  35.116  18.026  1.00  0.00     0.052 C 
ENDBRANCH   6   8
ENDBRANCH   5   6
BRANCH   5  17
HETATM   17  O1  UNL     1      16.684  35.108  14.016  1.00  0.00    -0.345 OA
ATOM     18  H1  UNL     1      15.780  34.951  13.773  1.00  0.00     0.219 HD
ENDBRANCH   5  17
ENDBRANCH   1   4
BRANCH   1  19
HETATM   19  C8  UNL     1      19.891  32.797  16.109  1.00  0.00     0.115 C 
BRANCH  19  20
HETATM   20  C9  UNL     1      21.279  32.717  15.830  1.00  0.00     0.027 A 
HETATM   21  C10 UNL     1      22.198  33.342  16.744  1.00  0.00     0.035 A 
HETATM   22  C11 UNL     1      21.865  34.047  17.986  1.00  0.00     0.070 C 
HETATM   23  N4  UNL     1      23.423  33.176  16.270  1.00  0.00    -0.304 N 
HETATM   24  N5  UNL     1      23.415  32.509  15.143  1.00  0.00    -0.304 N 
ATOM     25  H4  UNL     1      24.267  33.523  16.726  1.00  0.00     0.186 HD
HETATM   26  C12 UNL     1      22.089  32.231  14.879  1.00  0.00     0.035 A 
ATOM     27  H5  UNL     1      24.223  32.249  14.576  1.00  0.00     0.186 HD
HETATM   28  C13 UNL     1      21.734  31.500  13.648  1.00  0.00     0.070 C 
ENDBRANCH  19  20
ENDBRANCH   1  19
BRANCH   2  29
HETATM   29  C15 UNL     1      17.561  30.546  14.101  1.00  0.00     0.103 C 
BRANCH  29  30
HETATM   30  C16 UNL     1      18.172  29.973  12.872  1.00  0.00     0.009 C 
BRANCH  30  31
HETATM   31  C17 UNL     1      17.319  29.059  12.063  1.00  0.00     0.002 C 
BRANCH  31  32
HETATM   32  C18 UNL     1      17.791  27.630  12.134  1.00  0.00     0.020 C 
BRANCH  32  33
HETATM   33  C19 UNL     1      18.399  27.148  10.843  1.00  0.00     0.133 C 
BRANCH  33  34
HETATM   34  N6  UNL     1      19.754  26.672  11.078  1.00  0.00    -0.310 N 
HETATM   35  C20 UNL     1      20.710  27.523  11.505  1.00  0.00     0.101 A 
HETATM   36  C21 UNL     1      21.996  27.086  11.732  1.00  0.00     0.092 A 
HETATM   37  C22 UNL     1      22.339  25.749  11.523  1.00  0.00     0.250 A 
HETATM   38  O3  UNL     1      23.481  25.303  11.712  1.00  0.00    -0.268 OA
HETATM   39  N7  UNL     1      21.347  24.931  11.094  1.00  0.00    -0.275 N 
HETATM   40  C23 UNL     1      20.104  25.397  10.885  1.00  0.00     0.329 A 
ATOM     41  H7  UNL     1      21.547  23.944  10.928  1.00  0.00     0.173 HD
HETATM   42  O4  UNL     1      19.205  24.593  10.481  1.00  0.00    -0.246 OA
ENDBRANCH  33  34
ENDBRANCH  32  33
ENDBRANCH  31  32
ENDBRANCH  30  31
ENDBRANCH  29  30
ENDBRANCH   2  29
TORSDOF 12
ENDMDL
