MODEL 1
REMARK VINA RESULT: -8.249500016      0.000      0.000
REMARK  12 active torsions:
REMARK  status: ('A' for Active; 'I' for Inactive)
REMARK    1  A    between atoms: C5_7  and  C6_8 
REMARK    2  A    between atoms: C12_16  and  O3_17 
REMARK    3  A    between atoms: C13_19  and  O4_20 
REMARK    4  A    between atoms: O4_20  and  C14_21 
REMARK    5  A    between atoms: C14_21  and  C15_22 
REMARK    6  A    between atoms: C15_22  and  C16_23 
REMARK    7  A    between atoms: C16_23  and  C17_24 
REMARK    8  A    between atoms: C18_25  and  C19_26 
REMARK    9  A    between atoms: C19_26  and  C20_27 
REMARK   10  A    between atoms: C20_27  and  C21_28 
REMARK   11  A    between atoms: C23_30  and  O5_31 
REMARK       I    between atoms: N2_34  and  C25_35 
REMARK   12  A    between atoms: C25_35  and  C26_37 
ROOT
HETATM    1  C6  UNL     1      18.652  31.713  15.497  1.00  0.00     0.131 C 
HETATM    2  O1  UNL     1      17.631  30.817  15.115  1.00  0.00    -0.352 OA
HETATM    3  C7  UNL     1      18.390  30.262  14.103  1.00  0.00     0.155 C 
HETATM    4  C8  UNL     1      17.769  30.090  12.759  1.00  0.00     0.058 C 
HETATM    5  C9  UNL     1      18.996  28.978  14.550  1.00  0.00     0.171 C 
HETATM    6  O2  UNL     1      18.529  27.883  14.309  1.00  0.00    -0.294 OA
HETATM    7  C10 UNL     1      20.219  29.374  15.306  1.00  0.00     0.093 C 
HETATM    8  C11 UNL     1      19.798  29.820  16.669  1.00  0.00     0.050 C 
HETATM    9  C12 UNL     1      19.403  31.278  16.732  1.00  0.00     0.157 C 
HETATM   10  C13 UNL     1      20.664  30.567  14.485  1.00  0.00     0.173 C 
HETATM   11  C23 UNL     1      19.399  31.349  14.276  1.00  0.00     0.156 C 
ENDROOT
BRANCH   1  12
HETATM   12  C5  UNL     1      18.185  33.134  15.638  1.00  0.00     0.057 C 
HETATM   13  C4  UNL     1      17.581  33.733  14.408  1.00  0.00     0.037 C 
HETATM   14  C3  UNL     1      16.396  34.663  14.723  1.00  0.00     0.100 C 
HETATM   15  N1  UNL     1      15.341  33.854  15.366  1.00  0.00    -0.386 N 
HETATM   16  C28 UNL     1      16.870  35.621  15.795  1.00  0.00     0.151 C 
HETATM   17  C2  UNL     1      15.853  33.041  16.414  1.00  0.00     0.019 C 
ATOM     18  H1  UNL     1      14.359  33.877  15.090  1.00  0.00     0.160 HD
HETATM   19  C1  UNL     1      15.201  32.082  17.032  1.00  0.00     0.040 C 
HETATM   20  C24 UNL     1      17.263  33.374  16.791  1.00  0.00     0.143 C 
HETATM   21  N2  UNL     1      17.214  34.837  16.981  1.00  0.00    -0.340 N 
HETATM   22  C25 UNL     1      17.457  35.449  18.226  1.00  0.00     0.220 C 
HETATM   23  O6  UNL     1      17.715  34.745  19.223  1.00  0.00    -0.273 OA
BRANCH  22  24
HETATM   24  C26 UNL     1      17.397  36.916  18.314  1.00  0.00     0.098 C 
HETATM   25  C27 UNL     1      16.056  37.383  18.898  1.00  0.00     0.014 C 
ENDBRANCH  22  24
ENDBRANCH   1  12
BRANCH   9  26
HETATM   26  O3  UNL     1      20.493  32.135  16.882  1.00  0.00    -0.392 OA
ATOM     27  H3  UNL     1      21.277  31.598  16.892  1.00  0.00     0.210 HD
ENDBRANCH   9  26
BRANCH  11  28
HETATM   28  O5  UNL     1      19.473  32.322  13.288  1.00  0.00    -0.380 OA
ATOM     29  H5  UNL     1      19.102  32.093  12.443  1.00  0.00     0.211 HD
ENDBRANCH  11  28
BRANCH  10  30
HETATM   30  O4  UNL     1      21.052  30.050  13.235  1.00  0.00    -0.382 OA
BRANCH  30  31
HETATM   31  C14 UNL     1      22.269  29.410  13.302  1.00  0.00     0.168 C 
BRANCH  31  32
HETATM   32  C15 UNL     1      22.522  28.696  11.995  1.00  0.00     0.030 C 
BRANCH  32  33
HETATM   33  C16 UNL     1      21.287  27.917  11.553  1.00  0.00     0.029 C 
BRANCH  33  34
HETATM   34  C17 UNL     1      21.289  26.558  12.146  1.00  0.00    -0.031 C 
HETATM   35  C18 UNL     1      21.882  25.503  11.664  1.00  0.00    -0.031 C 
BRANCH  35  36
HETATM   36  C19 UNL     1      22.668  25.408  10.449  1.00  0.00     0.027 C 
BRANCH  36  37
HETATM   37  C20 UNL     1      24.098  25.037  10.548  1.00  0.00     0.003 C 
BRANCH  37  38
HETATM   38  C21 UNL     1      25.115  26.118  10.614  1.00  0.00    -0.004 C 
HETATM   39  C22 UNL     1      25.354  26.623  12.006  1.00  0.00     0.005 C 
ENDBRANCH  37  38
ENDBRANCH  36  37
ENDBRANCH  35  36
ENDBRANCH  33  34
ENDBRANCH  32  33
ENDBRANCH  31  32
ENDBRANCH  30  31
ENDBRANCH  10  30
TORSDOF 12
ENDMDL
MODEL 2
REMARK VINA RESULT: -8.176510899      0.800      1.408
REMARK  12 active torsions:
REMARK  status: ('A' for Active; 'I' for Inactive)
REMARK    1  A    between atoms: C5_7  and  C6_8 
REMARK    2  A    between atoms: C12_16  and  O3_17 
REMARK    3  A    between atoms: C13_19  and  O4_20 
REMARK    4  A    between atoms: O4_20  and  C14_21 
REMARK    5  A    between atoms: C14_21  and  C15_22 
REMARK    6  A    between atoms: C15_22  and  C16_23 
REMARK    7  A    between atoms: C16_23  and  C17_24 
REMARK    8  A    between atoms: C18_25  and  C19_26 
REMARK    9  A    between atoms: C19_26  and  C20_27 
REMARK   10  A    between atoms: C20_27  and  C21_28 
REMARK   11  A    between atoms: C23_30  and  O5_31 
REMARK       I    between atoms: N2_34  and  C25_35 
REMARK   12  A    between atoms: C25_35  and  C26_37 
ROOT
HETATM    1  C6  UNL     1      18.694  31.661  15.502  1.00  0.00     0.131 C 
HETATM    2  O1  UNL     1      17.678  30.775  15.083  1.00  0.00    -0.352 OA
HETATM    3  C7  UNL     1      18.464  30.219  14.093  1.00  0.00     0.155 C 
HETATM    4  C8  UNL     1      17.883  30.059  12.729  1.00  0.00     0.058 C 
HETATM    5  C9  UNL     1      19.045  28.928  14.552  1.00  0.00     0.171 C 
HETATM    6  O2  UNL     1      18.578  27.838  14.290  1.00  0.00    -0.294 OA
HETATM    7  C10 UNL     1      20.248  29.310  15.346  1.00  0.00     0.093 C 
HETATM    8  C11 UNL     1      19.788  29.753  16.698  1.00  0.00     0.050 C 
HETATM    9  C12 UNL     1      19.403  31.213  16.757  1.00  0.00     0.157 C 
HETATM   10  C13 UNL     1      20.728  30.503  14.547  1.00  0.00     0.173 C 
HETATM   11  C23 UNL     1      19.475  31.296  14.303  1.00  0.00     0.156 C 
ENDROOT
BRANCH   1  12
HETATM   12  C5  UNL     1      18.234  33.085  15.635  1.00  0.00     0.057 C 
HETATM   13  C4  UNL     1      17.641  33.683  14.400  1.00  0.00     0.037 C 
HETATM   14  C3  UNL     1      16.460  34.621  14.706  1.00  0.00     0.100 C 
HETATM   15  N1  UNL     1      15.396  33.820  15.344  1.00  0.00    -0.386 N 
HETATM   16  C28 UNL     1      16.932  35.579  15.778  1.00  0.00     0.151 C 
HETATM   17  C2  UNL     1      15.897  33.007  16.398  1.00  0.00     0.019 C 
ATOM     18  H1  UNL     1      14.416  33.847  15.062  1.00  0.00     0.160 HD
HETATM   19  C1  UNL     1      15.236  32.054  17.014  1.00  0.00     0.040 C 
HETATM   20  C24 UNL     1      17.307  33.333  16.782  1.00  0.00     0.143 C 
HETATM   21  N2  UNL     1      17.264  34.797  16.968  1.00  0.00    -0.340 N 
HETATM   22  C25 UNL     1      17.503  35.411  18.213  1.00  0.00     0.220 C 
HETATM   23  O6  UNL     1      17.751  34.708  19.213  1.00  0.00    -0.273 OA
BRANCH  22  24
HETATM   24  C26 UNL     1      17.450  36.878  18.296  1.00  0.00     0.098 C 
HETATM   25  C27 UNL     1      16.126  37.353  18.912  1.00  0.00     0.014 C 
ENDBRANCH  22  24
ENDBRANCH   1  12
BRANCH   9  26
HETATM   26  O3  UNL     1      20.495  32.061  16.945  1.00  0.00    -0.392 OA
ATOM     27  H3  UNL     1      21.240  31.518  17.172  1.00  0.00     0.210 HD
ENDBRANCH   9  26
BRANCH  11  28
HETATM   28  O5  UNL     1      19.588  32.274  13.322  1.00  0.00    -0.380 OA
ATOM     29  H5  UNL     1      19.459  31.987  12.425  1.00  0.00     0.211 HD
ENDBRANCH  11  28
BRANCH  10  30
HETATM   30  O4  UNL     1      21.150  29.990  13.306  1.00  0.00    -0.382 OA
BRANCH  30  31
HETATM   31  C14 UNL     1      22.322  29.278  13.421  1.00  0.00     0.168 C 
BRANCH  31  32
HETATM   32  C15 UNL     1      22.202  28.001  12.620  1.00  0.00     0.030 C 
BRANCH  32  33
HETATM   33  C16 UNL     1      23.216  27.978  11.480  1.00  0.00     0.029 C 
BRANCH  33  34
HETATM   34  C17 UNL     1      24.520  27.456  11.955  1.00  0.00    -0.031 C 
HETATM   35  C18 UNL     1      25.046  26.299  11.665  1.00  0.00    -0.031 C 
BRANCH  35  36
HETATM   36  C19 UNL     1      24.486  25.262  10.819  1.00  0.00     0.027 C 
BRANCH  36  37
HETATM   37  C20 UNL     1      24.528  25.437   9.349  1.00  0.00     0.003 C 
BRANCH  37  38
HETATM   38  C21 UNL     1      23.643  24.595   8.503  1.00  0.00    -0.004 C 
HETATM   39  C22 UNL     1      24.152  24.425   7.101  1.00  0.00     0.005 C 
ENDBRANCH  37  38
ENDBRANCH  36  37
ENDBRANCH  35  36
ENDBRANCH  33  34
ENDBRANCH  32  33
ENDBRANCH  31  32
ENDBRANCH  30  31
ENDBRANCH  10  30
TORSDOF 12
ENDMDL
MODEL 3
REMARK VINA RESULT: -8.083739583      1.348      2.219
REMARK  12 active torsions:
REMARK  status: ('A' for Active; 'I' for Inactive)
REMARK    1  A    between atoms: C5_7  and  C6_8 
REMARK    2  A    between atoms: C12_16  and  O3_17 
REMARK    3  A    between atoms: C13_19  and  O4_20 
REMARK    4  A    between atoms: O4_20  and  C14_21 
REMARK    5  A    between atoms: C14_21  and  C15_22 
REMARK    6  A    between atoms: C15_22  and  C16_23 
REMARK    7  A    between atoms: C16_23  and  C17_24 
REMARK    8  A    between atoms: C18_25  and  C19_26 
REMARK    9  A    between atoms: C19_26  and  C20_27 
REMARK   10  A    between atoms: C20_27  and  C21_28 
REMARK   11  A    between atoms: C23_30  and  O5_31 
REMARK       I    between atoms: N2_34  and  C25_35 
REMARK   12  A    between atoms: C25_35  and  C26_37 
ROOT
HETATM    1  C6  UNL     1      18.669  31.614  15.470  1.00  0.00     0.131 C 
HETATM    2  O1  UNL     1      17.627  30.737  15.102  1.00  0.00    -0.352 OA
HETATM    3  C7  UNL     1      18.363  30.168  14.080  1.00  0.00     0.155 C 
HETATM    4  C8  UNL     1      17.720  30.007  12.744  1.00  0.00     0.058 C 
HETATM    5  C9  UNL     1      18.952  28.873  14.518  1.00  0.00     0.171 C 
HETATM    6  O2  UNL     1      18.463  27.787  14.284  1.00  0.00    -0.294 OA
HETATM    7  C10 UNL     1      20.192  29.248  15.256  1.00  0.00     0.093 C 
HETATM    8  C11 UNL     1      19.798  29.701  16.626  1.00  0.00     0.050 C 
HETATM    9  C12 UNL     1      19.430  31.165  16.694  1.00  0.00     0.157 C 
HETATM   10  C13 UNL     1      20.647  30.433  14.430  1.00  0.00     0.173 C 
HETATM   11  C23 UNL     1      19.392  31.237  14.238  1.00  0.00     0.156 C 
ENDROOT
BRANCH   1  12
HETATM   12  C5  UNL     1      18.229  33.043  15.617  1.00  0.00     0.057 C 
HETATM   13  C4  UNL     1      17.631  33.656  14.392  1.00  0.00     0.037 C 
HETATM   14  C3  UNL     1      16.465  34.607  14.715  1.00  0.00     0.100 C 
HETATM   15  N1  UNL     1      15.398  33.816  15.360  1.00  0.00    -0.386 N 
HETATM   16  C28 UNL     1      16.960  35.553  15.788  1.00  0.00     0.151 C 
HETATM   17  C2  UNL     1      15.899  32.990  16.404  1.00  0.00     0.019 C 
ATOM     18  H1  UNL     1      14.415  33.857  15.089  1.00  0.00     0.160 HD
HETATM   19  C1  UNL     1      15.232  32.042  17.022  1.00  0.00     0.040 C 
HETATM   20  C24 UNL     1      17.317  33.296  16.775  1.00  0.00     0.143 C 
HETATM   21  N2  UNL     1      17.295  34.759  16.970  1.00  0.00    -0.340 N 
HETATM   22  C25 UNL     1      17.555  35.362  18.216  1.00  0.00     0.220 C 
HETATM   23  O6  UNL     1      17.804  34.650  19.209  1.00  0.00    -0.273 OA
BRANCH  22  24
HETATM   24  C26 UNL     1      17.522  36.830  18.309  1.00  0.00     0.098 C 
HETATM   25  C27 UNL     1      16.204  37.318  18.926  1.00  0.00     0.014 C 
ENDBRANCH  22  24
ENDBRANCH   1  12
BRANCH   9  26
HETATM   26  O3  UNL     1      20.536  32.004  16.829  1.00  0.00    -0.392 OA
ATOM     27  H3  UNL     1      20.446  32.463  17.656  1.00  0.00     0.210 HD
ENDBRANCH   9  26
BRANCH  11  28
HETATM   28  O5  UNL     1      19.470  32.209  13.249  1.00  0.00    -0.380 OA
ATOM     29  H5  UNL     1      18.844  32.135  12.537  1.00  0.00     0.211 HD
ENDBRANCH  11  28
BRANCH  10  30
HETATM   30  O4  UNL     1      21.008  29.910  13.174  1.00  0.00    -0.382 OA
BRANCH  30  31
HETATM   31  C14 UNL     1      22.202  29.227  13.230  1.00  0.00     0.168 C 
BRANCH  31  32
HETATM   32  C15 UNL     1      22.291  28.296  12.043  1.00  0.00     0.030 C 
BRANCH  32  33
HETATM   33  C16 UNL     1      20.946  27.628  11.774  1.00  0.00     0.029 C 
BRANCH  33  34
HETATM   34  C17 UNL     1      21.142  26.235  11.306  1.00  0.00    -0.031 C 
HETATM   35  C18 UNL     1      20.225  25.316  11.196  1.00  0.00    -0.031 C 
BRANCH  35  36
HETATM   36  C19 UNL     1      18.812  25.438  11.503  1.00  0.00     0.027 C 
BRANCH  36  37
HETATM   37  C20 UNL     1      17.853  25.640  10.393  1.00  0.00     0.003 C 
BRANCH  37  38
HETATM   38  C21 UNL     1      17.887  26.922   9.643  1.00  0.00    -0.004 C 
HETATM   39  C22 UNL     1      18.355  26.766   8.226  1.00  0.00     0.005 C 
ENDBRANCH  37  38
ENDBRANCH  36  37
ENDBRANCH  35  36
ENDBRANCH  33  34
ENDBRANCH  32  33
ENDBRANCH  31  32
ENDBRANCH  30  31
ENDBRANCH  10  30
TORSDOF 12
ENDMDL
MODEL 4
REMARK VINA RESULT: -7.992908569      3.945      8.981
REMARK  12 active torsions:
REMARK  status: ('A' for Active; 'I' for Inactive)
REMARK    1  A    between atoms: C5_7  and  C6_8 
REMARK    2  A    between atoms: C12_16  and  O3_17 
REMARK    3  A    between atoms: C13_19  and  O4_20 
REMARK    4  A    between atoms: O4_20  and  C14_21 
REMARK    5  A    between atoms: C14_21  and  C15_22 
REMARK    6  A    between atoms: C15_22  and  C16_23 
REMARK    7  A    between atoms: C16_23  and  C17_24 
REMARK    8  A    between atoms: C18_25  and  C19_26 
REMARK    9  A    between atoms: C19_26  and  C20_27 
REMARK   10  A    between atoms: C20_27  and  C21_28 
REMARK   11  A    between atoms: C23_30  and  O5_31 
REMARK       I    between atoms: N2_34  and  C25_35 
REMARK   12  A    between atoms: C25_35  and  C26_37 
ROOT
HETATM    1  C6  UNL     1      19.684  28.159  12.483  1.00  0.00     0.131 C 
HETATM    2  O1  UNL     1      20.202  27.734  13.725  1.00  0.00    -0.352 OA
HETATM    3  C7  UNL     1      20.639  29.001  14.063  1.00  0.00     0.155 C 
HETATM    4  C8  UNL     1      22.025  29.160  14.587  1.00  0.00     0.058 C 
HETATM    5  C9  UNL     1      19.670  29.658  14.983  1.00  0.00     0.171 C 
HETATM    6  O2  UNL     1      19.789  29.688  16.191  1.00  0.00    -0.294 OA
HETATM    7  C10 UNL     1      18.614  30.217  14.091  1.00  0.00     0.093 C 
HETATM    8  C11 UNL     1      17.704  29.099  13.693  1.00  0.00     0.050 C 
HETATM    9  C12 UNL     1      18.184  28.330  12.484  1.00  0.00     0.157 C 
HETATM   10  C13 UNL     1      19.460  30.640  12.908  1.00  0.00     0.173 C 
HETATM   11  C23 UNL     1      20.358  29.459  12.671  1.00  0.00     0.156 C 
ENDROOT
BRANCH   1  12
HETATM   12  C5  UNL     1      20.116  27.303  11.326  1.00  0.00     0.057 C 
HETATM   13  C4  UNL     1      21.362  26.507  11.551  1.00  0.00     0.037 C 
HETATM   14  C3  UNL     1      21.300  25.115  10.898  1.00  0.00     0.100 C 
HETATM   15  N1  UNL     1      20.195  24.365  11.529  1.00  0.00    -0.386 N 
HETATM   16  C28 UNL     1      20.866  25.327   9.463  1.00  0.00     0.151 C 
HETATM   17  C2  UNL     1      18.997  25.129  11.595  1.00  0.00     0.019 C 
ATOM     18  H1  UNL     1      20.281  23.410  11.877  1.00  0.00     0.160 HD
HETATM   19  C1  UNL     1      17.916  24.808  12.267  1.00  0.00     0.040 C 
HETATM   20  C24 UNL     1      19.054  26.394  10.795  1.00  0.00     0.143 C 
HETATM   21  N2  UNL     1      19.533  25.927   9.479  1.00  0.00    -0.340 N 
HETATM   22  C25 UNL     1      18.753  26.026   8.310  1.00  0.00     0.220 C 
HETATM   23  O6  UNL     1      17.607  26.514   8.369  1.00  0.00    -0.273 OA
BRANCH  22  24
HETATM   24  C26 UNL     1      19.321  25.544   7.042  1.00  0.00     0.098 C 
HETATM   25  C27 UNL     1      18.871  26.418   5.862  1.00  0.00     0.014 C 
ENDBRANCH  22  24
ENDBRANCH   1  12
BRANCH   9  26
HETATM   26  O3  UNL     1      17.832  28.932  11.276  1.00  0.00    -0.392 OA
ATOM     27  H3  UNL     1      16.921  28.722  11.109  1.00  0.00     0.210 HD
ENDBRANCH   9  26
BRANCH  11  28
HETATM   28  O5  UNL     1      21.446  29.713  11.845  1.00  0.00    -0.380 OA
ATOM     29  H5  UNL     1      22.285  29.827  12.277  1.00  0.00     0.211 HD
ENDBRANCH  11  28
BRANCH  10  30
HETATM   30  O4  UNL     1      20.267  31.697  13.371  1.00  0.00    -0.382 OA
BRANCH  30  31
HETATM   31  C14 UNL     1      19.512  32.733  13.872  1.00  0.00     0.168 C 
BRANCH  31  32
HETATM   32  C15 UNL     1      20.216  33.317  15.075  1.00  0.00     0.030 C 
BRANCH  32  33
HETATM   33  C16 UNL     1      21.683  32.900  15.102  1.00  0.00     0.029 C 
BRANCH  33  34
HETATM   34  C17 UNL     1      22.020  32.267  16.400  1.00  0.00    -0.031 C 
HETATM   35  C18 UNL     1      22.780  32.766  17.333  1.00  0.00    -0.031 C 
BRANCH  35  36
HETATM   36  C19 UNL     1      23.469  34.043  17.322  1.00  0.00     0.027 C 
BRANCH  36  37
HETATM   37  C20 UNL     1      22.857  35.192  18.028  1.00  0.00     0.003 C 
BRANCH  37  38
HETATM   38  C21 UNL     1      21.898  36.056  17.292  1.00  0.00    -0.004 C 
HETATM   39  C22 UNL     1      20.487  35.928  17.784  1.00  0.00     0.005 C 
ENDBRANCH  37  38
ENDBRANCH  36  37
ENDBRANCH  35  36
ENDBRANCH  33  34
ENDBRANCH  32  33
ENDBRANCH  31  32
ENDBRANCH  30  31
ENDBRANCH  10  30
TORSDOF 12
ENDMDL
MODEL 5
REMARK VINA RESULT: -7.975754858      3.570      9.531
REMARK  12 active torsions:
REMARK  status: ('A' for Active; 'I' for Inactive)
REMARK    1  A    between atoms: C5_7  and  C6_8 
REMARK    2  A    between atoms: C12_16  and  O3_17 
REMARK    3  A    between atoms: C13_19  and  O4_20 
REMARK    4  A    between atoms: O4_20  and  C14_21 
REMARK    5  A    between atoms: C14_21  and  C15_22 
REMARK    6  A    between atoms: C15_22  and  C16_23 
REMARK    7  A    between atoms: C16_23  and  C17_24 
REMARK    8  A    between atoms: C18_25  and  C19_26 
REMARK    9  A    between atoms: C19_26  and  C20_27 
REMARK   10  A    between atoms: C20_27  and  C21_28 
REMARK   11  A    between atoms: C23_30  and  O5_31 
REMARK       I    between atoms: N2_34  and  C25_35 
REMARK   12  A    between atoms: C25_35  and  C26_37 
ROOT
HETATM    1  C6  UNL     1      19.589  28.202  12.526  1.00  0.00     0.131 C 
HETATM    2  O1  UNL     1      20.132  27.817  13.771  1.00  0.00    -0.352 OA
HETATM    3  C7  UNL     1      20.509  29.107  14.093  1.00  0.00     0.155 C 
HETATM    4  C8  UNL     1      21.888  29.337  14.610  1.00  0.00     0.058 C 
HETATM    5  C9  UNL     1      19.513  29.728  15.009  1.00  0.00     0.171 C 
HETATM    6  O2  UNL     1      19.635  29.777  16.216  1.00  0.00    -0.294 OA
HETATM    7  C10 UNL     1      18.429  30.226  14.116  1.00  0.00     0.093 C 
HETATM    8  C11 UNL     1      17.571  29.062  13.734  1.00  0.00     0.050 C 
HETATM    9  C12 UNL     1      18.083  28.303  12.532  1.00  0.00     0.157 C 
HETATM   10  C13 UNL     1      19.250  30.675  12.925  1.00  0.00     0.173 C 
HETATM   11  C23 UNL     1      20.202  29.536  12.697  1.00  0.00     0.156 C 
ENDROOT
BRANCH   1  12
HETATM   12  C5  UNL     1      20.057  27.355  11.377  1.00  0.00     0.057 C 
HETATM   13  C4  UNL     1      21.319  26.591  11.620  1.00  0.00     0.037 C 
HETATM   14  C3  UNL     1      21.300  25.196  10.970  1.00  0.00     0.100 C 
HETATM   15  N1  UNL     1      20.206  24.421  11.589  1.00  0.00    -0.386 N 
HETATM   16  C28 UNL     1      20.880  25.394   9.529  1.00  0.00     0.151 C 
HETATM   17  C2  UNL     1      18.989  25.155  11.638  1.00  0.00     0.019 C 
ATOM     18  H1  UNL     1      20.312  23.469  11.941  1.00  0.00     0.160 HD
HETATM   19  C1  UNL     1      17.908  24.808  12.298  1.00  0.00     0.040 C 
HETATM   20  C24 UNL     1      19.025  26.419  10.835  1.00  0.00     0.143 C 
HETATM   21  N2  UNL     1      19.532  25.961   9.526  1.00  0.00    -0.340 N 
HETATM   22  C25 UNL     1      18.764  26.038   8.348  1.00  0.00     0.220 C 
HETATM   23  O6  UNL     1      17.606  26.497   8.391  1.00  0.00    -0.273 OA
BRANCH  22  24
HETATM   24  C26 UNL     1      19.361  25.567   7.088  1.00  0.00     0.098 C 
HETATM   25  C27 UNL     1      18.879  26.406   5.896  1.00  0.00     0.014 C 
ENDBRANCH  22  24
ENDBRANCH   1  12
BRANCH   9  26
HETATM   26  O3  UNL     1      17.698  28.874  11.319  1.00  0.00    -0.392 OA
ATOM     27  H3  UNL     1      17.094  29.580  11.516  1.00  0.00     0.210 HD
ENDBRANCH   9  26
BRANCH  11  28
HETATM   28  O5  UNL     1      21.273  29.831  11.864  1.00  0.00    -0.380 OA
ATOM     29  H5  UNL     1      21.211  30.640  11.369  1.00  0.00     0.211 HD
ENDBRANCH  11  28
BRANCH  10  30
HETATM   30  O4  UNL     1      20.007  31.774  13.372  1.00  0.00    -0.382 OA
BRANCH  30  31
HETATM   31  C14 UNL     1      19.205  32.833  13.732  1.00  0.00     0.168 C 
BRANCH  31  32
HETATM   32  C15 UNL     1      19.627  33.328  15.097  1.00  0.00     0.030 C 
BRANCH  32  33
HETATM   33  C16 UNL     1      18.415  33.516  16.005  1.00  0.00     0.029 C 
BRANCH  33  34
HETATM   34  C17 UNL     1      17.197  33.773  15.199  1.00  0.00    -0.031 C 
HETATM   35  C18 UNL     1      15.963  33.636  15.592  1.00  0.00    -0.031 C 
BRANCH  35  36
HETATM   36  C19 UNL     1      15.494  33.203  16.895  1.00  0.00     0.027 C 
BRANCH  36  37
HETATM   37  C20 UNL     1      15.315  34.213  17.963  1.00  0.00     0.003 C 
BRANCH  37  38
HETATM   38  C21 UNL     1      14.376  35.341  17.731  1.00  0.00    -0.004 C 
HETATM   39  C22 UNL     1      14.523  36.448  18.732  1.00  0.00     0.005 C 
ENDBRANCH  37  38
ENDBRANCH  36  37
ENDBRANCH  35  36
ENDBRANCH  33  34
ENDBRANCH  32  33
ENDBRANCH  31  32
ENDBRANCH  30  31
ENDBRANCH  10  30
TORSDOF 12
ENDMDL
