MODEL 1
REMARK VINA RESULT: -8.989146227      0.000      0.000
REMARK  14 active torsions:
REMARK  status: ('A' for Active; 'I' for Inactive)
REMARK    1  A    between atoms: C2_2  and  C3_3 
REMARK    2  A    between atoms: C3_3  and  N1_4 
REMARK    3  A    between atoms: N1_4  and  C4_5 
REMARK    4  A    between atoms: N1_4  and  C15_27 
REMARK    5  A    between atoms: C4_5  and  C5_6 
REMARK    6  A    between atoms: C6_9  and  N3_10 
REMARK    7  A    between atoms: N3_10  and  C7_12 
REMARK    8  A    between atoms: C10_17  and  N5_18 
REMARK    9  A    between atoms: N5_18  and  C11_20 
REMARK   10  A    between atoms: C11_20  and  C12_21 
REMARK   11  A    between atoms: C12_21  and  C13_22 
REMARK   12  A    between atoms: C13_22  and  O1_23 
REMARK   13  A    between atoms: C17_29  and  N7_30 
REMARK   14  A    between atoms: N9_39  and  C23_41 
ROOT
HETATM    1  N1  UNL     1      19.369  29.441  14.821  1.00  0.00    -0.374 N 
ENDROOT
BRANCH   1   2
HETATM    2  C3  UNL     1      18.173  29.086  14.144  1.00  0.00     0.123 C 
BRANCH   2   3
HETATM    3  C2  UNL     1      17.840  29.755  12.875  1.00  0.00     0.015 C 
HETATM    4  C1  UNL     1      17.038  29.035  11.861  1.00  0.00     0.006 C 
ENDBRANCH   2   3
ENDBRANCH   1   2
BRANCH   1   5
HETATM    5  C4  UNL     1      20.603  28.705  14.787  1.00  0.00     0.200 C 
BRANCH   5   6
HETATM    6  C5  UNL     1      20.853  28.026  13.470  1.00  0.00     0.131 A 
HETATM    7  N2  UNL     1      21.942  28.307  12.734  1.00  0.00    -0.178 N 
HETATM    8  C6  UNL     1      22.238  27.747  11.551  1.00  0.00     0.694 A 
ATOM      9  H2  UNL     1      22.594  28.998  13.104  1.00  0.00     0.185 HD
HETATM   10  N4  UNL     1      21.367  26.844  11.091  1.00  0.00    -0.022 N 
HETATM   11  C10 UNL     1      20.233  26.504  11.785  1.00  0.00     0.694 A 
ATOM     12  H4  UNL     1      21.550  26.393  10.194  1.00  0.00     0.203 HD
HETATM   13  N6  UNL     1      20.006  27.110  12.966  1.00  0.00    -0.178 N 
ATOM     14  H6  UNL     1      19.167  26.868  13.492  1.00  0.00     0.185 HD
BRANCH   8  15
HETATM   15  N3  UNL     1      23.279  28.033  10.877  1.00  0.00    -0.222 N 
ATOM     16  H3  UNL     1      23.168  28.833  10.254  1.00  0.00     0.178 HD
BRANCH  15  17
HETATM   17  C7  UNL     1      24.553  27.443  10.835  1.00  0.00     0.091 C 
HETATM   18  C8  UNL     1      24.516  26.288   9.838  1.00  0.00     0.032 C 
HETATM   19  C9  UNL     1      25.139  27.024  12.138  1.00  0.00     0.032 C 
ENDBRANCH  15  17
ENDBRANCH   8  15
BRANCH  11  20
HETATM   20  N5  UNL     1      19.458  25.625  11.265  1.00  0.00    -0.225 N 
ATOM     21  H5  UNL     1      19.923  24.794  10.899  1.00  0.00     0.177 HD
BRANCH  20  22
HETATM   22  C11 UNL     1      18.049  25.646  11.126  1.00  0.00     0.140 C 
BRANCH  22  23
HETATM   23  C12 UNL     1      17.765  26.197   9.719  1.00  0.00     0.046 C 
BRANCH  23  24
HETATM   24  C13 UNL     1      17.796  25.045   8.763  1.00  0.00     0.168 C 
BRANCH  24  25
HETATM   25  O1  UNL     1      19.057  24.514   8.618  1.00  0.00    -0.396 OA
HETATM   26  C14 UNL     1      19.655  24.986   7.473  1.00  0.00     0.201 C 
ENDBRANCH  24  25
ENDBRANCH  23  24
ENDBRANCH  22  23
ENDBRANCH  20  22
ENDBRANCH  11  20
ENDBRANCH   5   6
ENDBRANCH   1   5
BRANCH   1  27
HETATM   27  C15 UNL     1      19.346  30.686  15.565  1.00  0.00     0.037 A 
HETATM   28  C16 UNL     1      20.501  31.322  15.979  1.00  0.00     0.078 A 
HETATM   29  C17 UNL     1      20.443  32.528  16.642  1.00  0.00     0.113 A 
HETATM   30  N8  UNL     1      19.242  33.124  16.904  1.00  0.00    -0.329 N 
HETATM   31  C22 UNL     1      18.089  32.554  16.526  1.00  0.00     0.104 A 
ATOM     32  H8  UNL     1      19.223  34.017  17.396  1.00  0.00     0.169 HD
HETATM   33  N9  UNL     1      16.922  33.020  16.697  1.00  0.00    -0.372 N 
HETATM   34  C26 UNL     1      18.166  31.329  15.853  1.00  0.00     0.077 A 
ATOM     35  H9  UNL     1      16.162  32.441  16.341  1.00  0.00     0.161 HD
BRANCH  29  36
HETATM   36  N7  UNL     1      21.587  33.228  17.093  1.00  0.00    -0.304 N 
HETATM   37  C18 UNL     1      22.933  32.839  16.644  1.00  0.00     0.134 C 
HETATM   38  C19 UNL     1      23.877  33.847  17.209  1.00  0.00     0.029 C 
HETATM   39  C20 UNL     1      23.024  34.983  17.694  1.00  0.00     0.105 C 
HETATM   40  C21 UNL     1      21.715  34.334  17.974  1.00  0.00     0.225 C 
HETATM   41  O2  UNL     1      20.842  34.648  18.812  1.00  0.00    -0.273 OA
ENDBRANCH  29  36
BRANCH  33  42
HETATM   42  C23 UNL     1      16.522  34.242  17.320  1.00  0.00     0.075 C 
HETATM   43  C24 UNL     1      16.344  35.353  16.313  1.00  0.00     0.031 C 
HETATM   44  C25 UNL     1      15.277  34.150  18.155  1.00  0.00     0.031 C 
ENDBRANCH  33  42
ENDBRANCH   1  27
TORSDOF 14
ENDMDL
MODEL 2
REMARK VINA RESULT: -8.983239765      1.005      3.217
REMARK  14 active torsions:
REMARK  status: ('A' for Active; 'I' for Inactive)
REMARK    1  A    between atoms: C2_2  and  C3_3 
REMARK    2  A    between atoms: C3_3  and  N1_4 
REMARK    3  A    between atoms: N1_4  and  C4_5 
REMARK    4  A    between atoms: N1_4  and  C15_27 
REMARK    5  A    between atoms: C4_5  and  C5_6 
REMARK    6  A    between atoms: C6_9  and  N3_10 
REMARK    7  A    between atoms: N3_10  and  C7_12 
REMARK    8  A    between atoms: C10_17  and  N5_18 
REMARK    9  A    between atoms: N5_18  and  C11_20 
REMARK   10  A    between atoms: C11_20  and  C12_21 
REMARK   11  A    between atoms: C12_21  and  C13_22 
REMARK   12  A    between atoms: C13_22  and  O1_23 
REMARK   13  A    between atoms: C17_29  and  N7_30 
REMARK   14  A    between atoms: N9_39  and  C23_41 
ROOT
HETATM    1  N1  UNL     1      19.320  29.388  15.017  1.00  0.00    -0.374 N 
ENDROOT
BRANCH   1   2
HETATM    2  C3  UNL     1      18.156  29.059  14.275  1.00  0.00     0.123 C 
BRANCH   2   3
HETATM    3  C2  UNL     1      17.888  29.763  13.009  1.00  0.00     0.015 C 
HETATM    4  C1  UNL     1      17.132  29.076  11.939  1.00  0.00     0.006 C 
ENDBRANCH   2   3
ENDBRANCH   1   2
BRANCH   1   5
HETATM    5  C4  UNL     1      20.518  28.598  15.093  1.00  0.00     0.200 C 
BRANCH   5   6
HETATM    6  C5  UNL     1      20.994  28.112  13.753  1.00  0.00     0.131 A 
HETATM    7  N2  UNL     1      20.139  27.597  12.852  1.00  0.00    -0.178 N 
HETATM    8  C6  UNL     1      20.482  27.140  11.637  1.00  0.00     0.694 A 
ATOM      9  H2  UNL     1      19.154  27.549  13.112  1.00  0.00     0.185 HD
HETATM   10  N4  UNL     1      21.779  27.216  11.323  1.00  0.00    -0.022 N 
HETATM   11  C10 UNL     1      22.710  27.731  12.188  1.00  0.00     0.694 A 
ATOM     12  H4  UNL     1      22.086  26.881  10.409  1.00  0.00     0.203 HD
HETATM   13  N6  UNL     1      22.288  28.168  13.390  1.00  0.00    -0.178 N 
ATOM     14  H6  UNL     1      22.970  28.553  14.044  1.00  0.00     0.185 HD
BRANCH   8  15
HETATM   15  N3  UNL     1      19.650  26.658  10.804  1.00  0.00    -0.222 N 
ATOM     16  H3  UNL     1      19.367  27.308  10.071  1.00  0.00     0.178 HD
BRANCH  15  17
HETATM   17  C7  UNL     1      19.050  25.391  10.714  1.00  0.00     0.091 C 
HETATM   18  C8  UNL     1      18.444  25.243   9.321  1.00  0.00     0.032 C 
HETATM   19  C9  UNL     1      18.071  25.037  11.778  1.00  0.00     0.032 C 
ENDBRANCH  15  17
ENDBRANCH   8  15
BRANCH  11  20
HETATM   20  N5  UNL     1      23.931  27.766  11.797  1.00  0.00    -0.225 N 
ATOM     21  H5  UNL     1      24.177  28.556  11.202  1.00  0.00     0.177 HD
BRANCH  20  22
HETATM   22  C11 UNL     1      24.985  26.861  12.075  1.00  0.00     0.140 C 
BRANCH  22  23
HETATM   23  C12 UNL     1      25.317  26.169  10.743  1.00  0.00     0.046 C 
BRANCH  23  24
HETATM   24  C13 UNL     1      24.442  24.960  10.627  1.00  0.00     0.168 C 
BRANCH  24  25
HETATM   25  O1  UNL     1      23.366  25.165   9.793  1.00  0.00    -0.396 OA
HETATM   26  C14 UNL     1      23.667  24.780   8.507  1.00  0.00     0.201 C 
ENDBRANCH  24  25
ENDBRANCH  23  24
ENDBRANCH  22  23
ENDBRANCH  20  22
ENDBRANCH  11  20
ENDBRANCH   5   6
ENDBRANCH   1   5
BRANCH   1  27
HETATM   27  C15 UNL     1      19.305  30.660  15.713  1.00  0.00     0.037 A 
HETATM   28  C16 UNL     1      20.466  31.305  16.099  1.00  0.00     0.078 A 
HETATM   29  C17 UNL     1      20.416  32.536  16.715  1.00  0.00     0.113 A 
HETATM   30  N8  UNL     1      19.219  33.148  16.959  1.00  0.00    -0.329 N 
HETATM   31  C22 UNL     1      18.062  32.570  16.607  1.00  0.00     0.104 A 
ATOM     32  H8  UNL     1      19.206  34.059  17.416  1.00  0.00     0.169 HD
HETATM   33  N9  UNL     1      16.898  33.048  16.765  1.00  0.00    -0.372 N 
HETATM   34  C26 UNL     1      18.130  31.319  15.981  1.00  0.00     0.077 A 
ATOM     35  H9  UNL     1      16.134  32.459  16.433  1.00  0.00     0.161 HD
BRANCH  29  36
HETATM   36  N7  UNL     1      21.565  33.246  17.135  1.00  0.00    -0.304 N 
HETATM   37  C18 UNL     1      22.905  32.852  16.673  1.00  0.00     0.134 C 
HETATM   38  C19 UNL     1      23.856  33.872  17.204  1.00  0.00     0.029 C 
HETATM   39  C20 UNL     1      23.008  35.016  17.681  1.00  0.00     0.105 C 
HETATM   40  C21 UNL     1      21.705  34.370  17.993  1.00  0.00     0.225 C 
HETATM   41  O2  UNL     1      20.844  34.698  18.839  1.00  0.00    -0.273 OA
ENDBRANCH  29  36
BRANCH  33  42
HETATM   42  C23 UNL     1      16.506  34.294  17.342  1.00  0.00     0.075 C 
HETATM   43  C24 UNL     1      16.343  35.371  16.295  1.00  0.00     0.031 C 
HETATM   44  C25 UNL     1      15.257  34.243  18.174  1.00  0.00     0.031 C 
ENDBRANCH  33  42
ENDBRANCH   1  27
TORSDOF 14
ENDMDL
MODEL 3
REMARK VINA RESULT: -8.837143410      0.724      3.363
REMARK  14 active torsions:
REMARK  status: ('A' for Active; 'I' for Inactive)
REMARK    1  A    between atoms: C2_2  and  C3_3 
REMARK    2  A    between atoms: C3_3  and  N1_4 
REMARK    3  A    between atoms: N1_4  and  C4_5 
REMARK    4  A    between atoms: N1_4  and  C15_27 
REMARK    5  A    between atoms: C4_5  and  C5_6 
REMARK    6  A    between atoms: C6_9  and  N3_10 
REMARK    7  A    between atoms: N3_10  and  C7_12 
REMARK    8  A    between atoms: C10_17  and  N5_18 
REMARK    9  A    between atoms: N5_18  and  C11_20 
REMARK   10  A    between atoms: C11_20  and  C12_21 
REMARK   11  A    between atoms: C12_21  and  C13_22 
REMARK   12  A    between atoms: C13_22  and  O1_23 
REMARK   13  A    between atoms: C17_29  and  N7_30 
REMARK   14  A    between atoms: N9_39  and  C23_41 
ROOT
HETATM    1  N1  UNL     1      19.354  29.313  14.741  1.00  0.00    -0.374 N 
ENDROOT
BRANCH   1   2
HETATM    2  C3  UNL     1      18.132  29.007  14.087  1.00  0.00     0.123 C 
BRANCH   2   3
HETATM    3  C2  UNL     1      17.811  29.674  12.814  1.00  0.00     0.015 C 
HETATM    4  C1  UNL     1      16.972  28.974  11.816  1.00  0.00     0.006 C 
ENDBRANCH   2   3
ENDBRANCH   1   2
BRANCH   1   5
HETATM    5  C4  UNL     1      20.538  28.500  14.731  1.00  0.00     0.200 C 
BRANCH   5   6
HETATM    6  C5  UNL     1      20.810  27.864  13.396  1.00  0.00     0.131 A 
HETATM    7  N2  UNL     1      21.913  28.164  12.691  1.00  0.00    -0.178 N 
HETATM    8  C6  UNL     1      22.229  27.643  11.494  1.00  0.00     0.694 A 
ATOM      9  H2  UNL     1      22.561  28.839  13.095  1.00  0.00     0.185 HD
HETATM   10  N4  UNL     1      21.363  26.760  10.988  1.00  0.00    -0.022 N 
HETATM   11  C10 UNL     1      20.216  26.402  11.650  1.00  0.00     0.694 A 
ATOM     12  H4  UNL     1      21.561  26.338  10.081  1.00  0.00     0.203 HD
HETATM   13  N6  UNL     1      19.969  26.969  12.846  1.00  0.00    -0.178 N 
ATOM     14  H6  UNL     1      19.119  26.713  13.349  1.00  0.00     0.185 HD
BRANCH   8  15
HETATM   15  N3  UNL     1      23.283  27.946  10.849  1.00  0.00    -0.222 N 
ATOM     16  H3  UNL     1      23.181  28.756  10.238  1.00  0.00     0.178 HD
BRANCH  15  17
HETATM   17  C7  UNL     1      24.561  27.365  10.828  1.00  0.00     0.091 C 
HETATM   18  C8  UNL     1      24.558  26.232   9.804  1.00  0.00     0.032 C 
HETATM   19  C9  UNL     1      25.117  26.920  12.135  1.00  0.00     0.032 C 
ENDBRANCH  15  17
ENDBRANCH   8  15
BRANCH  11  20
HETATM   20  N5  UNL     1      19.447  25.545  11.086  1.00  0.00    -0.225 N 
ATOM     21  H5  UNL     1      19.913  24.721  10.708  1.00  0.00     0.177 HD
BRANCH  20  22
HETATM   22  C11 UNL     1      18.041  25.580  10.915  1.00  0.00     0.140 C 
BRANCH  22  23
HETATM   23  C12 UNL     1      17.795  26.186   9.524  1.00  0.00     0.046 C 
BRANCH  23  24
HETATM   24  C13 UNL     1      17.831  25.070   8.527  1.00  0.00     0.168 C 
BRANCH  24  25
HETATM   25  O1  UNL     1      19.054  24.439   8.484  1.00  0.00    -0.396 OA
HETATM   26  C14 UNL     1      19.765  24.833   7.375  1.00  0.00     0.201 C 
ENDBRANCH  24  25
ENDBRANCH  23  24
ENDBRANCH  22  23
ENDBRANCH  20  22
ENDBRANCH  11  20
ENDBRANCH   5   6
ENDBRANCH   1   5
BRANCH   1  27
HETATM   27  C15 UNL     1      19.416  30.586  15.432  1.00  0.00     0.037 A 
HETATM   28  C16 UNL     1      18.280  31.285  15.798  1.00  0.00     0.078 A 
HETATM   29  C17 UNL     1      18.375  32.468  16.496  1.00  0.00     0.113 A 
HETATM   30  N8  UNL     1      19.593  32.979  16.844  1.00  0.00    -0.329 N 
HETATM   31  C22 UNL     1      20.728  32.346  16.516  1.00  0.00     0.104 A 
ATOM     32  H8  UNL     1      19.639  33.857  17.361  1.00  0.00     0.169 HD
HETATM   33  N9  UNL     1      21.909  32.713  16.798  1.00  0.00    -0.372 N 
HETATM   34  C26 UNL     1      20.614  31.144  15.807  1.00  0.00     0.077 A 
ATOM     35  H9  UNL     1      22.650  32.100  16.462  1.00  0.00     0.161 HD
BRANCH  29  36
HETATM   36  N7  UNL     1      17.252  33.230  16.899  1.00  0.00    -0.304 N 
HETATM   37  C18 UNL     1      16.023  33.244  16.091  1.00  0.00     0.134 C 
HETATM   38  C19 UNL     1      15.019  34.039  16.857  1.00  0.00     0.029 C 
HETATM   39  C20 UNL     1      15.581  34.187  18.242  1.00  0.00     0.105 C 
HETATM   40  C21 UNL     1      17.049  34.063  18.030  1.00  0.00     0.225 C 
HETATM   41  O2  UNL     1      17.985  34.571  18.686  1.00  0.00    -0.273 OA
ENDBRANCH  29  36
BRANCH  33  42
HETATM   42  C23 UNL     1      22.346  33.865  17.521  1.00  0.00     0.075 C 
HETATM   43  C24 UNL     1      23.852  33.975  17.544  1.00  0.00     0.031 C 
HETATM   44  C25 UNL     1      21.779  35.170  17.038  1.00  0.00     0.031 C 
ENDBRANCH  33  42
ENDBRANCH   1  27
TORSDOF 14
ENDMDL
MODEL 4
REMARK VINA RESULT: -8.819590890      1.561      3.662
REMARK  14 active torsions:
REMARK  status: ('A' for Active; 'I' for Inactive)
REMARK    1  A    between atoms: C2_2  and  C3_3 
REMARK    2  A    between atoms: C3_3  and  N1_4 
REMARK    3  A    between atoms: N1_4  and  C4_5 
REMARK    4  A    between atoms: N1_4  and  C15_27 
REMARK    5  A    between atoms: C4_5  and  C5_6 
REMARK    6  A    between atoms: C6_9  and  N3_10 
REMARK    7  A    between atoms: N3_10  and  C7_12 
REMARK    8  A    between atoms: C10_17  and  N5_18 
REMARK    9  A    between atoms: N5_18  and  C11_20 
REMARK   10  A    between atoms: C11_20  and  C12_21 
REMARK   11  A    between atoms: C12_21  and  C13_22 
REMARK   12  A    between atoms: C13_22  and  O1_23 
REMARK   13  A    between atoms: C17_29  and  N7_30 
REMARK   14  A    between atoms: N9_39  and  C23_41 
ROOT
HETATM    1  N1  UNL     1      19.041  30.358  14.373  1.00  0.00    -0.374 N 
ENDROOT
BRANCH   1   2
HETATM    2  C3  UNL     1      18.924  30.743  13.011  1.00  0.00     0.123 C 
BRANCH   2   3
HETATM    3  C2  UNL     1      20.026  31.485  12.377  1.00  0.00     0.015 C 
HETATM    4  C1  UNL     1      21.412  30.982  12.506  1.00  0.00     0.006 C 
ENDBRANCH   2   3
ENDBRANCH   1   2
BRANCH   1   5
HETATM    5  C4  UNL     1      19.190  29.013  14.854  1.00  0.00     0.200 C 
BRANCH   5   6
HETATM    6  C5  UNL     1      19.659  28.052  13.798  1.00  0.00     0.131 A 
HETATM    7  N2  UNL     1      18.788  27.315  13.087  1.00  0.00    -0.178 N 
HETATM    8  C6  UNL     1      19.124  26.436  12.130  1.00  0.00     0.694 A 
ATOM      9  H2  UNL     1      17.796  27.433  13.291  1.00  0.00     0.185 HD
HETATM   10  N4  UNL     1      20.431  26.302  11.883  1.00  0.00    -0.022 N 
HETATM   11  C10 UNL     1      21.379  27.021  12.566  1.00  0.00     0.694 A 
ATOM     12  H4  UNL     1      20.733  25.645  11.164  1.00  0.00     0.203 HD
HETATM   13  N6  UNL     1      20.963  27.883  13.513  1.00  0.00    -0.178 N 
ATOM     14  H6  UNL     1      21.657  28.424  14.029  1.00  0.00     0.185 HD
BRANCH   8  15
HETATM   15  N3  UNL     1      18.276  25.752  11.473  1.00  0.00    -0.222 N 
ATOM     16  H3  UNL     1      18.023  24.866  11.910  1.00  0.00     0.178 HD
BRANCH  15  17
HETATM   17  C7  UNL     1      17.628  25.997  10.251  1.00  0.00     0.091 C 
HETATM   18  C8  UNL     1      18.281  25.132   9.176  1.00  0.00     0.032 C 
HETATM   19  C9  UNL     1      17.524  27.418   9.822  1.00  0.00     0.032 C 
ENDBRANCH  15  17
ENDBRANCH   8  15
BRANCH  11  20
HETATM   20  N5  UNL     1      22.608  26.827  12.258  1.00  0.00    -0.225 N 
ATOM     21  H5  UNL     1      22.922  25.858  12.300  1.00  0.00     0.177 HD
BRANCH  20  22
HETATM   22  C11 UNL     1      23.592  27.769  11.867  1.00  0.00     0.140 C 
BRANCH  22  23
HETATM   23  C12 UNL     1      24.949  27.150  12.240  1.00  0.00     0.046 C 
BRANCH  23  24
HETATM   24  C13 UNL     1      25.313  26.170  11.167  1.00  0.00     0.168 C 
BRANCH  24  25
HETATM   25  O1  UNL     1      24.590  25.002  11.253  1.00  0.00    -0.396 OA
HETATM   26  C14 UNL     1      24.198  24.580  10.004  1.00  0.00     0.201 C 
ENDBRANCH  24  25
ENDBRANCH  23  24
ENDBRANCH  22  23
ENDBRANCH  20  22
ENDBRANCH  11  20
ENDBRANCH   5   6
ENDBRANCH   1   5
BRANCH   1  27
HETATM   27  C15 UNL     1      19.064  31.431  15.348  1.00  0.00     0.037 A 
HETATM   28  C16 UNL     1      20.243  31.941  15.858  1.00  0.00     0.078 A 
HETATM   29  C17 UNL     1      20.230  32.993  16.746  1.00  0.00     0.113 A 
HETATM   30  N8  UNL     1      19.051  33.558  17.144  1.00  0.00    -0.329 N 
HETATM   31  C22 UNL     1      17.876  33.105  16.682  1.00  0.00     0.104 A 
ATOM     32  H8  UNL     1      19.065  34.336  17.802  1.00  0.00     0.169 HD
HETATM   33  N9  UNL     1      16.727  33.559  16.964  1.00  0.00    -0.372 N 
HETATM   34  C26 UNL     1      17.908  32.035  15.779  1.00  0.00     0.077 A 
ATOM     35  H9  UNL     1      15.945  33.082  16.514  1.00  0.00     0.161 HD
BRANCH  29  36
HETATM   36  N7  UNL     1      21.401  33.559  17.305  1.00  0.00    -0.304 N 
HETATM   37  C18 UNL     1      22.730  33.035  16.958  1.00  0.00     0.134 C 
HETATM   38  C19 UNL     1      23.726  33.926  17.621  1.00  0.00     0.029 C 
HETATM   39  C20 UNL     1      22.961  35.141  18.063  1.00  0.00     0.105 C 
HETATM   40  C21 UNL     1      21.572  34.632  18.220  1.00  0.00     0.225 C 
HETATM   41  O2  UNL     1      20.670  35.026  18.992  1.00  0.00    -0.273 OA
ENDBRANCH  29  36
BRANCH  33  42
HETATM   42  C23 UNL     1      16.371  34.644  17.823  1.00  0.00     0.075 C 
HETATM   43  C24 UNL     1      16.602  35.982  17.162  1.00  0.00     0.031 C 
HETATM   44  C25 UNL     1      14.964  34.604  18.345  1.00  0.00     0.031 C 
ENDBRANCH  33  42
ENDBRANCH   1  27
TORSDOF 14
ENDMDL
MODEL 5
REMARK VINA RESULT: -8.810345330      1.219      4.655
REMARK  14 active torsions:
REMARK  status: ('A' for Active; 'I' for Inactive)
REMARK    1  A    between atoms: C2_2  and  C3_3 
REMARK    2  A    between atoms: C3_3  and  N1_4 
REMARK    3  A    between atoms: N1_4  and  C4_5 
REMARK    4  A    between atoms: N1_4  and  C15_27 
REMARK    5  A    between atoms: C4_5  and  C5_6 
REMARK    6  A    between atoms: C6_9  and  N3_10 
REMARK    7  A    between atoms: N3_10  and  C7_12 
REMARK    8  A    between atoms: C10_17  and  N5_18 
REMARK    9  A    between atoms: N5_18  and  C11_20 
REMARK   10  A    between atoms: C11_20  and  C12_21 
REMARK   11  A    between atoms: C12_21  and  C13_22 
REMARK   12  A    between atoms: C13_22  and  O1_23 
REMARK   13  A    between atoms: C17_29  and  N7_30 
REMARK   14  A    between atoms: N9_39  and  C23_41 
ROOT
HETATM    1  N1  UNL     1      19.300  29.361  14.950  1.00  0.00    -0.374 N 
ENDROOT
BRANCH   1   2
HETATM    2  C3  UNL     1      18.108  29.052  14.242  1.00  0.00     0.123 C 
BRANCH   2   3
HETATM    3  C2  UNL     1      17.824  29.747  12.976  1.00  0.00     0.015 C 
HETATM    4  C1  UNL     1      17.136  29.021  11.885  1.00  0.00     0.006 C 
ENDBRANCH   2   3
ENDBRANCH   1   2
BRANCH   1   5
HETATM    5  C4  UNL     1      20.463  28.523  15.039  1.00  0.00     0.200 C 
BRANCH   5   6
HETATM    6  C5  UNL     1      20.956  28.048  13.701  1.00  0.00     0.131 A 
HETATM    7  N2  UNL     1      20.112  27.543  12.785  1.00  0.00    -0.178 N 
HETATM    8  C6  UNL     1      20.470  27.096  11.570  1.00  0.00     0.694 A 
ATOM      9  H2  UNL     1      19.123  27.496  13.031  1.00  0.00     0.185 HD
HETATM   10  N4  UNL     1      21.771  27.170  11.274  1.00  0.00    -0.022 N 
HETATM   11  C10 UNL     1      22.692  27.674  12.157  1.00  0.00     0.694 A 
ATOM     12  H4  UNL     1      22.089  26.841  10.362  1.00  0.00     0.203 HD
HETATM   13  N6  UNL     1      22.255  28.102  13.356  1.00  0.00    -0.178 N 
ATOM     14  H6  UNL     1      22.929  28.479  14.023  1.00  0.00     0.185 HD
BRANCH   8  15
HETATM   15  N3  UNL     1      19.647  26.624  10.722  1.00  0.00    -0.222 N 
ATOM     16  H3  UNL     1      19.404  27.269   9.971  1.00  0.00     0.178 HD
BRANCH  15  17
HETATM   17  C7  UNL     1      19.013  25.373  10.636  1.00  0.00     0.091 C 
HETATM   18  C8  UNL     1      18.413  25.233   9.239  1.00  0.00     0.032 C 
HETATM   19  C9  UNL     1      18.017  25.053  11.695  1.00  0.00     0.032 C 
ENDBRANCH  15  17
ENDBRANCH   8  15
BRANCH  11  20
HETATM   20  N5  UNL     1      23.918  27.707  11.782  1.00  0.00    -0.225 N 
ATOM     21  H5  UNL     1      24.182  28.517  11.221  1.00  0.00     0.177 HD
BRANCH  20  22
HETATM   22  C11 UNL     1      24.957  26.779  12.038  1.00  0.00     0.140 C 
BRANCH  22  23
HETATM   23  C12 UNL     1      25.304  26.142  10.683  1.00  0.00     0.046 C 
BRANCH  23  24
HETATM   24  C13 UNL     1      24.444  24.927  10.516  1.00  0.00     0.168 C 
BRANCH  24  25
HETATM   25  O1  UNL     1      23.339  25.167   9.732  1.00  0.00    -0.396 OA
HETATM   26  C14 UNL     1      23.523  24.663   8.465  1.00  0.00     0.201 C 
ENDBRANCH  24  25
ENDBRANCH  23  24
ENDBRANCH  22  23
ENDBRANCH  20  22
ENDBRANCH  11  20
ENDBRANCH   5   6
ENDBRANCH   1   5
BRANCH   1  27
HETATM   27  C15 UNL     1      19.353  30.661  15.590  1.00  0.00     0.037 A 
HETATM   28  C16 UNL     1      18.212  31.363  15.933  1.00  0.00     0.078 A 
HETATM   29  C17 UNL     1      18.299  32.574  16.584  1.00  0.00     0.113 A 
HETATM   30  N8  UNL     1      19.515  33.109  16.905  1.00  0.00    -0.329 N 
HETATM   31  C22 UNL     1      20.654  32.473  16.598  1.00  0.00     0.104 A 
ATOM     32  H8  UNL     1      19.555  34.006  17.387  1.00  0.00     0.169 HD
HETATM   33  N9  UNL     1      21.832  32.861  16.860  1.00  0.00    -0.372 N 
HETATM   34  C26 UNL     1      20.548  31.243  15.937  1.00  0.00     0.077 A 
ATOM     35  H9  UNL     1      22.578  32.241  16.545  1.00  0.00     0.161 HD
BRANCH  29  36
HETATM   36  N7  UNL     1      17.172  33.341  16.961  1.00  0.00    -0.304 N 
HETATM   37  C18 UNL     1      15.961  33.361  16.127  1.00  0.00     0.134 C 
HETATM   38  C19 UNL     1      14.944  34.160  16.869  1.00  0.00     0.029 C 
HETATM   39  C20 UNL     1      15.476  34.306  18.266  1.00  0.00     0.105 C 
HETATM   40  C21 UNL     1      16.948  34.176  18.088  1.00  0.00     0.225 C 
HETATM   41  O2  UNL     1      17.872  34.679  18.763  1.00  0.00    -0.273 OA
ENDBRANCH  29  36
BRANCH  33  42
HETATM   42  C23 UNL     1      22.262  34.045  17.535  1.00  0.00     0.075 C 
HETATM   43  C24 UNL     1      23.768  34.120  17.632  1.00  0.00     0.031 C 
HETATM   44  C25 UNL     1      21.756  35.330  16.946  1.00  0.00     0.031 C 
ENDBRANCH  33  42
ENDBRANCH   1  27
TORSDOF 14
ENDMDL
