MODEL 1
REMARK VINA RESULT: -10.527972595      0.000      0.000
REMARK  11 active torsions:
REMARK  status: ('A' for Active; 'I' for Inactive)
REMARK    1  A    between atoms: N1_5  and  C5_6 
REMARK    2  A    between atoms: C5_6  and  C6_7 
REMARK    3  A    between atoms: C6_7  and  C7_8 
REMARK    4  A    between atoms: C7_8  and  O1_9 
REMARK    5  A    between atoms: O1_9  and  C8_10 
REMARK    6  A    between atoms: C12_14  and  C13_15 
REMARK    7  A    between atoms: C13_15  and  C14_16 
REMARK    8  A    between atoms: C17_19  and  C18_20 
REMARK    9  A    between atoms: C18_20  and  C19_21 
REMARK   10  A    between atoms: C23_28  and  C24_29 
REMARK   11  A    between atoms: C30_40  and  O6_41 
ROOT
HETATM    1  C8  UNL     1      18.561  35.820  17.806  1.00  0.00     0.069 A 
HETATM    2  C9  UNL     1      18.653  34.445  17.755  1.00  0.00     0.037 A 
HETATM    3  C10 UNL     1      19.866  33.856  17.453  1.00  0.00     0.016 A 
HETATM    4  C11 UNL     1      21.013  34.587  17.194  1.00  0.00    -0.006 A 
HETATM    5  C12 UNL     1      22.224  34.001  16.893  1.00  0.00     0.044 A 
HETATM    6  C29 UNL     1      23.314  34.819  16.650  1.00  0.00     0.258 A 
HETATM    7  O5  UNL     1      24.447  34.300  16.369  1.00  0.00    -0.267 OA
HETATM    8  N3  UNL     1      23.216  36.159  16.703  1.00  0.00    -0.303 N 
ATOM      9  H3  UNL     1      24.029  36.747  16.521  1.00  0.00     0.171 HD
HETATM   10  C30 UNL     1      22.029  36.710  16.998  1.00  0.00     0.154 A 
HETATM   11  C31 UNL     1      20.885  35.962  17.255  1.00  0.00     0.029 A 
HETATM   12  C32 UNL     1      19.682  36.556  17.555  1.00  0.00     0.053 A 
ENDROOT
BRANCH   5  13
HETATM   13  C13 UNL     1      22.312  32.569  16.844  1.00  0.00     0.029 C 
BRANCH  13  14
HETATM   14  C14 UNL     1      21.930  31.899  15.768  1.00  0.00    -0.035 A 
HETATM   15  C15 UNL     1      22.067  32.411  14.495  1.00  0.00     0.012 A 
HETATM   16  C16 UNL     1      21.667  31.704  13.376  1.00  0.00     0.012 A 
HETATM   17  C17 UNL     1      21.112  30.450  13.496  1.00  0.00    -0.035 A 
HETATM   18  C27 UNL     1      20.970  29.927  14.759  1.00  0.00     0.012 A 
HETATM   19  C28 UNL     1      21.376  30.645  15.889  1.00  0.00     0.012 A 
BRANCH  17  20
HETATM   20  C18 UNL     1      20.732  29.783  12.412  1.00  0.00     0.025 C 
BRANCH  20  21
HETATM   21  C19 UNL     1      21.100  28.407  12.139  1.00  0.00    -0.006 A 
HETATM   22  C20 UNL     1      20.123  27.443  12.184  1.00  0.00     0.019 A 
HETATM   23  C21 UNL     1      18.692  27.736  12.503  1.00  0.00     0.069 C 
HETATM   24  N2  UNL     1      20.455  26.150  11.928  1.00  0.00    -0.326 N 
HETATM   25  C22 UNL     1      21.712  25.773  11.629  1.00  0.00     0.263 A 
ATOM     26  H2  UNL     1      19.725  25.439  11.964  1.00  0.00     0.169 HD
HETATM   27  O2  UNL     1      21.982  24.553  11.396  1.00  0.00    -0.267 OA
HETATM   28  C23 UNL     1      22.723  26.710  11.573  1.00  0.00     0.115 A 
HETATM   29  C25 UNL     1      22.389  28.039  11.836  1.00  0.00    -0.027 A 
HETATM   30  C26 UNL     1      23.484  29.042  11.774  1.00  0.00     0.050 C 
BRANCH  28  31
HETATM   31  C24 UNL     1      24.078  26.290  11.247  1.00  0.00     0.215 C 
HETATM   32  O3  UNL     1      24.870  25.764  12.086  1.00  0.00    -0.644 OA
HETATM   33  O4  UNL     1      24.566  26.459   9.952  1.00  0.00    -0.644 OA
ENDBRANCH  28  31
ENDBRANCH  20  21
ENDBRANCH  17  20
ENDBRANCH  13  14
ENDBRANCH   5  13
BRANCH  10  34
HETATM   34  O6  UNL     1      21.887  38.094  17.061  1.00  0.00    -0.345 OA
ATOM     35  H6  UNL     1      22.303  38.590  17.755  1.00  0.00     0.219 HD
ENDBRANCH  10  34
BRANCH   1  36
HETATM   36  O1  UNL     1      17.330  36.427  18.113  1.00  0.00    -0.351 OA
BRANCH  36  37
HETATM   37  C7  UNL     1      16.455  36.851  17.086  1.00  0.00     0.177 C 
BRANCH  37  38
HETATM   38  C6  UNL     1      15.646  35.670  16.612  1.00  0.00     0.047 C 
BRANCH  38  39
HETATM   39  C5  UNL     1      16.047  35.326  15.210  1.00  0.00     0.130 C 
BRANCH  39  40
HETATM   40  N1  UNL     1      16.373  33.921  15.064  1.00  0.00    -0.366 N 
HETATM   41  C4  UNL     1      17.468  33.543  14.395  1.00  0.00     0.091 A 
HETATM   42  C3  UNL     1      17.835  32.220  14.220  1.00  0.00     0.024 A 
HETATM   43  C2  UNL     1      17.041  31.218  14.757  1.00  0.00    -0.059 A 
HETATM   44  C1  UNL     1      17.363  29.775  14.615  1.00  0.00     0.048 C 
HETATM   45  C34 UNL     1      15.915  31.621  15.444  1.00  0.00     0.024 A 
HETATM   46  C33 UNL     1      15.591  32.961  15.591  1.00  0.00     0.091 A 
ENDBRANCH  39  40
ENDBRANCH  38  39
ENDBRANCH  37  38
ENDBRANCH  36  37
ENDBRANCH   1  36
TORSDOF 11
ENDMDL
MODEL 2
REMARK VINA RESULT: -10.324741245      2.349     10.394
REMARK  11 active torsions:
REMARK  status: ('A' for Active; 'I' for Inactive)
REMARK    1  A    between atoms: N1_5  and  C5_6 
REMARK    2  A    between atoms: C5_6  and  C6_7 
REMARK    3  A    between atoms: C6_7  and  C7_8 
REMARK    4  A    between atoms: C7_8  and  O1_9 
REMARK    5  A    between atoms: O1_9  and  C8_10 
REMARK    6  A    between atoms: C12_14  and  C13_15 
REMARK    7  A    between atoms: C13_15  and  C14_16 
REMARK    8  A    between atoms: C17_19  and  C18_20 
REMARK    9  A    between atoms: C18_20  and  C19_21 
REMARK   10  A    between atoms: C23_28  and  C24_29 
REMARK   11  A    between atoms: C30_40  and  O6_41 
ROOT
HETATM    1  C8  UNL     1      21.848  25.346  10.573  1.00  0.00     0.069 A 
HETATM    2  C9  UNL     1      21.746  25.876  11.841  1.00  0.00     0.037 A 
HETATM    3  C10 UNL     1      20.526  26.353  12.283  1.00  0.00     0.016 A 
HETATM    4  C11 UNL     1      19.382  26.326  11.502  1.00  0.00    -0.006 A 
HETATM    5  C12 UNL     1      18.165  26.802  11.940  1.00  0.00     0.044 A 
HETATM    6  C29 UNL     1      17.078  26.730  11.085  1.00  0.00     0.258 A 
HETATM    7  O5  UNL     1      15.940  27.164  11.467  1.00  0.00    -0.267 OA
HETATM    8  N3  UNL     1      17.187  26.211   9.848  1.00  0.00    -0.303 N 
ATOM      9  H3  UNL     1      16.377  26.166   9.231  1.00  0.00     0.171 HD
HETATM   10  C30 UNL     1      18.381  25.753   9.441  1.00  0.00     0.154 A 
HETATM   11  C31 UNL     1      19.521  25.788  10.237  1.00  0.00     0.029 A 
HETATM   12  C32 UNL     1      20.731  25.311   9.791  1.00  0.00     0.053 A 
ENDROOT
BRANCH   5  13
HETATM   13  C13 UNL     1      18.066  27.349  13.263  1.00  0.00     0.029 C 
BRANCH  13  14
HETATM   14  C14 UNL     1      18.418  28.601  13.510  1.00  0.00    -0.035 A 
HETATM   15  C15 UNL     1      18.242  29.612  12.589  1.00  0.00     0.012 A 
HETATM   16  C16 UNL     1      18.611  30.917  12.856  1.00  0.00     0.012 A 
HETATM   17  C17 UNL     1      19.175  31.257  14.065  1.00  0.00    -0.035 A 
HETATM   18  C27 UNL     1      19.357  30.259  14.994  1.00  0.00     0.012 A 
HETATM   19  C28 UNL     1      18.981  28.940  14.720  1.00  0.00     0.012 A 
BRANCH  17  20
HETATM   20  C18 UNL     1      19.526  32.515  14.308  1.00  0.00     0.025 C 
BRANCH  20  21
HETATM   21  C19 UNL     1      19.181  33.231  15.521  1.00  0.00    -0.006 A 
HETATM   22  C20 UNL     1      20.188  33.578  16.388  1.00  0.00     0.019 A 
HETATM   23  C21 UNL     1      21.628  33.254  16.150  1.00  0.00     0.069 C 
HETATM   24  N2  UNL     1      19.878  34.251  17.528  1.00  0.00    -0.326 N 
HETATM   25  C22 UNL     1      18.616  34.595  17.842  1.00  0.00     0.263 A 
ATOM     26  H2  UNL     1      20.630  34.505  18.168  1.00  0.00     0.169 HD
HETATM   27  O2  UNL     1      18.367  35.225  18.918  1.00  0.00    -0.267 OA
HETATM   28  C23 UNL     1      17.576  34.266  16.998  1.00  0.00     0.115 A 
HETATM   29  C25 UNL     1      17.887  33.574  15.827  1.00  0.00    -0.027 A 
HETATM   30  C26 UNL     1      16.761  33.223  14.922  1.00  0.00     0.050 C 
BRANCH  28  31
HETATM   31  C24 UNL     1      16.214  34.646  17.349  1.00  0.00     0.215 C 
HETATM   32  O3  UNL     1      15.519  34.038  18.216  1.00  0.00    -0.644 OA
HETATM   33  O4  UNL     1      15.610  35.731  16.717  1.00  0.00    -0.644 OA
ENDBRANCH  28  31
ENDBRANCH  20  21
ENDBRANCH  17  20
ENDBRANCH  13  14
ENDBRANCH   5  13
BRANCH  10  34
HETATM   34  O6  UNL     1      18.534  25.210   8.169  1.00  0.00    -0.345 OA
ATOM     35  H6  UNL     1      19.088  25.636   7.526  1.00  0.00     0.219 HD
ENDBRANCH  10  34
BRANCH   1  36
HETATM   36  O1  UNL     1      23.086  24.858  10.118  1.00  0.00    -0.351 OA
BRANCH  36  37
HETATM   37  C7  UNL     1      23.866  25.602   9.201  1.00  0.00     0.177 C 
BRANCH  37  38
HETATM   38  C6  UNL     1      24.749  26.553   9.967  1.00  0.00     0.047 C 
BRANCH  38  39
HETATM   39  C5  UNL     1      24.241  27.952   9.788  1.00  0.00     0.130 C 
BRANCH  39  40
HETATM   40  N1  UNL     1      23.869  28.564  11.049  1.00  0.00    -0.366 N 
HETATM   41  C4  UNL     1      22.676  29.151  11.194  1.00  0.00     0.091 A 
HETATM   42  C3  UNL     1      22.261  29.753  12.369  1.00  0.00     0.024 A 
HETATM   43  C2  UNL     1      23.109  29.758  13.466  1.00  0.00    -0.059 A 
HETATM   44  C1  UNL     1      22.741  30.380  14.763  1.00  0.00     0.048 C 
HETATM   45  C34 UNL     1      24.336  29.149  13.303  1.00  0.00     0.024 A 
HETATM   46  C33 UNL     1      24.704  28.560  12.103  1.00  0.00     0.091 A 
ENDBRANCH  39  40
ENDBRANCH  38  39
ENDBRANCH  37  38
ENDBRANCH  36  37
ENDBRANCH   1  36
TORSDOF 11
ENDMDL
MODEL 3
REMARK VINA RESULT: -10.237123150      2.317      9.930
REMARK  11 active torsions:
REMARK  status: ('A' for Active; 'I' for Inactive)
REMARK    1  A    between atoms: N1_5  and  C5_6 
REMARK    2  A    between atoms: C5_6  and  C6_7 
REMARK    3  A    between atoms: C6_7  and  C7_8 
REMARK    4  A    between atoms: C7_8  and  O1_9 
REMARK    5  A    between atoms: O1_9  and  C8_10 
REMARK    6  A    between atoms: C12_14  and  C13_15 
REMARK    7  A    between atoms: C13_15  and  C14_16 
REMARK    8  A    between atoms: C17_19  and  C18_20 
REMARK    9  A    between atoms: C18_20  and  C19_21 
REMARK   10  A    between atoms: C23_28  and  C24_29 
REMARK   11  A    between atoms: C30_40  and  O6_41 
ROOT
HETATM    1  C8  UNL     1      21.381  25.741  10.919  1.00  0.00     0.069 A 
HETATM    2  C9  UNL     1      21.096  26.135  12.209  1.00  0.00     0.037 A 
HETATM    3  C10 UNL     1      19.934  26.839  12.463  1.00  0.00     0.016 A 
HETATM    4  C11 UNL     1      19.027  27.175  11.472  1.00  0.00    -0.006 A 
HETATM    5  C12 UNL     1      17.867  27.878  11.724  1.00  0.00     0.044 A 
HETATM    6  C29 UNL     1      17.023  28.165  10.665  1.00  0.00     0.258 A 
HETATM    7  O5  UNL     1      15.943  28.814  10.872  1.00  0.00    -0.267 OA
HETATM    8  N3  UNL     1      17.309  27.776   9.410  1.00  0.00    -0.303 N 
ATOM      9  H3  UNL     1      16.676  27.996   8.641  1.00  0.00     0.171 HD
HETATM   10  C30 UNL     1      18.442  27.093   9.186  1.00  0.00     0.154 A 
HETATM   11  C31 UNL     1      19.344  26.763  10.192  1.00  0.00     0.029 A 
HETATM   12  C32 UNL     1      20.497  26.062   9.930  1.00  0.00     0.053 A 
ENDROOT
BRANCH   5  13
HETATM   13  C13 UNL     1      17.577  28.283  13.070  1.00  0.00     0.029 C 
BRANCH  13  14
HETATM   14  C14 UNL     1      17.651  29.554  13.430  1.00  0.00    -0.035 A 
HETATM   15  C15 UNL     1      18.621  30.404  12.942  1.00  0.00     0.012 A 
HETATM   16  C16 UNL     1      18.691  31.730  13.322  1.00  0.00     0.012 A 
HETATM   17  C17 UNL     1      17.782  32.256  14.213  1.00  0.00    -0.035 A 
HETATM   18  C27 UNL     1      16.809  31.422  14.708  1.00  0.00     0.012 A 
HETATM   19  C28 UNL     1      16.742  30.080  14.320  1.00  0.00     0.012 A 
BRANCH  17  20
HETATM   20  C18 UNL     1      17.861  33.534  14.570  1.00  0.00     0.025 C 
BRANCH  20  21
HETATM   21  C19 UNL     1      18.413  33.987  15.832  1.00  0.00    -0.006 A 
HETATM   22  C20 UNL     1      17.548  34.311  16.849  1.00  0.00     0.019 A 
HETATM   23  C21 UNL     1      16.061  34.222  16.725  1.00  0.00     0.069 C 
HETATM   24  N2  UNL     1      18.053  34.736  18.038  1.00  0.00    -0.326 N 
HETATM   25  C22 UNL     1      19.375  34.853  18.260  1.00  0.00     0.263 A 
ATOM     26  H2  UNL     1      17.406  34.976  18.789  1.00  0.00     0.169 HD
HETATM   27  O2  UNL     1      19.808  35.254  19.386  1.00  0.00    -0.267 OA
HETATM   28  C23 UNL     1      20.277  34.537  17.265  1.00  0.00     0.115 A 
HETATM   29  C25 UNL     1      19.766  34.101  16.043  1.00  0.00    -0.027 A 
HETATM   30  C26 UNL     1      20.744  33.764  14.976  1.00  0.00     0.050 C 
BRANCH  28  31
HETATM   31  C24 UNL     1      21.705  34.666  17.520  1.00  0.00     0.215 C 
HETATM   32  O3  UNL     1      22.449  33.692  17.844  1.00  0.00    -0.644 OA
HETATM   33  O4  UNL     1      22.322  35.911  17.410  1.00  0.00    -0.644 OA
ENDBRANCH  28  31
ENDBRANCH  20  21
ENDBRANCH  17  20
ENDBRANCH  13  14
ENDBRANCH   5  13
BRANCH  10  34
HETATM   34  O6  UNL     1      18.773  26.673   7.900  1.00  0.00    -0.345 OA
ATOM     35  H6  UNL     1      19.385  27.172   7.372  1.00  0.00     0.219 HD
ENDBRANCH  10  34
BRANCH   1  36
HETATM   36  O1  UNL     1      22.560  25.023  10.653  1.00  0.00    -0.351 OA
BRANCH  36  37
HETATM   37  C7  UNL     1      23.488  25.485   9.689  1.00  0.00     0.177 C 
BRANCH  37  38
HETATM   38  C6  UNL     1      24.553  26.296  10.383  1.00  0.00     0.047 C 
BRANCH  38  39
HETATM   39  C5  UNL     1      24.328  27.750  10.100  1.00  0.00     0.130 C 
BRANCH  39  40
HETATM   40  N1  UNL     1      23.791  28.454  11.249  1.00  0.00    -0.366 N 
HETATM   41  C4  UNL     1      22.649  29.143  11.151  1.00  0.00     0.091 A 
HETATM   42  C3  UNL     1      22.084  29.835  12.208  1.00  0.00     0.024 A 
HETATM   43  C2  UNL     1      22.718  29.828  13.441  1.00  0.00    -0.059 A 
HETATM   44  C1  UNL     1      22.179  30.543  14.626  1.00  0.00     0.048 C 
HETATM   45  C34 UNL     1      23.896  29.115  13.528  1.00  0.00     0.024 A 
HETATM   46  C33 UNL     1      24.420  28.437  12.438  1.00  0.00     0.091 A 
ENDBRANCH  39  40
ENDBRANCH  38  39
ENDBRANCH  37  38
ENDBRANCH  36  37
ENDBRANCH   1  36
TORSDOF 11
ENDMDL
MODEL 4
REMARK VINA RESULT: -10.021946977      1.767      4.682
REMARK  11 active torsions:
REMARK  status: ('A' for Active; 'I' for Inactive)
REMARK    1  A    between atoms: N1_5  and  C5_6 
REMARK    2  A    between atoms: C5_6  and  C6_7 
REMARK    3  A    between atoms: C6_7  and  C7_8 
REMARK    4  A    between atoms: C7_8  and  O1_9 
REMARK    5  A    between atoms: O1_9  and  C8_10 
REMARK    6  A    between atoms: C12_14  and  C13_15 
REMARK    7  A    between atoms: C13_15  and  C14_16 
REMARK    8  A    between atoms: C17_19  and  C18_20 
REMARK    9  A    between atoms: C18_20  and  C19_21 
REMARK   10  A    between atoms: C23_28  and  C24_29 
REMARK   11  A    between atoms: C30_40  and  O6_41 
ROOT
HETATM    1  C8  UNL     1      19.026  35.938  17.784  1.00  0.00     0.069 A 
HETATM    2  C9  UNL     1      19.857  34.840  17.841  1.00  0.00     0.037 A 
HETATM    3  C10 UNL     1      19.422  33.630  17.333  1.00  0.00     0.016 A 
HETATM    4  C11 UNL     1      18.172  33.462  16.761  1.00  0.00    -0.006 A 
HETATM    5  C12 UNL     1      17.736  32.257  16.254  1.00  0.00     0.044 A 
HETATM    6  C29 UNL     1      16.469  32.190  15.700  1.00  0.00     0.258 A 
HETATM    7  O5  UNL     1      16.041  31.085  15.224  1.00  0.00    -0.267 OA
HETATM    8  N3  UNL     1      15.664  33.267  15.648  1.00  0.00    -0.303 N 
ATOM      9  H3  UNL     1      14.733  33.200  15.237  1.00  0.00     0.171 HD
HETATM   10  C30 UNL     1      16.108  34.431  16.146  1.00  0.00     0.154 A 
HETATM   11  C31 UNL     1      17.366  34.584  16.719  1.00  0.00     0.029 A 
HETATM   12  C32 UNL     1      17.792  35.791  17.222  1.00  0.00     0.053 A 
ENDROOT
BRANCH   5  13
HETATM   13  C13 UNL     1      18.608  31.119  16.315  1.00  0.00     0.029 C 
BRANCH  13  14
HETATM   14  C14 UNL     1      19.417  30.825  15.309  1.00  0.00    -0.035 A 
HETATM   15  C15 UNL     1      19.492  31.602  14.173  1.00  0.00     0.012 A 
HETATM   16  C16 UNL     1      20.340  31.290  13.127  1.00  0.00     0.012 A 
HETATM   17  C17 UNL     1      21.151  30.178  13.186  1.00  0.00    -0.035 A 
HETATM   18  C27 UNL     1      21.088  29.394  14.314  1.00  0.00     0.012 A 
HETATM   19  C28 UNL     1      20.228  29.714  15.369  1.00  0.00     0.012 A 
BRANCH  17  20
HETATM   20  C18 UNL     1      21.961  29.889  12.174  1.00  0.00     0.025 C 
BRANCH  20  21
HETATM   21  C19 UNL     1      22.566  28.587  11.969  1.00  0.00    -0.006 A 
HETATM   22  C20 UNL     1      23.902  28.432  12.245  1.00  0.00     0.019 A 
HETATM   23  C21 UNL     1      24.773  29.539  12.747  1.00  0.00     0.069 C 
HETATM   24  N2  UNL     1      24.481  27.216  12.058  1.00  0.00    -0.326 N 
HETATM   25  C22 UNL     1      23.792  26.150  11.611  1.00  0.00     0.263 A 
ATOM     26  H2  UNL     1      25.474  27.108  12.264  1.00  0.00     0.169 HD
HETATM   27  O2  UNL     1      24.369  25.029  11.450  1.00  0.00    -0.267 OA
HETATM   28  C23 UNL     1      22.448  26.263  11.323  1.00  0.00     0.115 A 
HETATM   29  C25 UNL     1      21.848  27.509  11.511  1.00  0.00    -0.027 A 
HETATM   30  C26 UNL     1      20.400  27.623  11.198  1.00  0.00     0.050 C 
BRANCH  28  31
HETATM   31  C24 UNL     1      21.713  25.102  10.841  1.00  0.00     0.215 C 
HETATM   32  O3  UNL     1      21.651  24.769   9.620  1.00  0.00    -0.644 OA
HETATM   33  O4  UNL     1      21.029  24.289  11.743  1.00  0.00    -0.644 OA
ENDBRANCH  28  31
ENDBRANCH  20  21
ENDBRANCH  17  20
ENDBRANCH  13  14
ENDBRANCH   5  13
BRANCH  10  34
HETATM   34  O6  UNL     1      15.305  35.568  16.111  1.00  0.00    -0.345 OA
ATOM     35  H6  UNL     1      14.465  35.551  15.668  1.00  0.00     0.219 HD
ENDBRANCH  10  34
BRANCH   1  36
HETATM   36  O1  UNL     1      19.463  37.172  18.298  1.00  0.00    -0.351 OA
BRANCH  36  37
HETATM   37  C7  UNL     1      20.071  38.134  17.457  1.00  0.00     0.177 C 
BRANCH  37  38
HETATM   38  C6  UNL     1      21.566  38.068  17.638  1.00  0.00     0.047 C 
BRANCH  38  39
HETATM   39  C5  UNL     1      22.209  37.730  16.328  1.00  0.00     0.130 C 
BRANCH  39  40
HETATM   40  N1  UNL     1      22.433  36.306  16.179  1.00  0.00    -0.366 N 
HETATM   41  C4  UNL     1      23.108  35.623  17.111  1.00  0.00     0.091 A 
HETATM   42  C3  UNL     1      23.356  34.264  17.030  1.00  0.00     0.024 A 
HETATM   43  C2  UNL     1      22.889  33.553  15.935  1.00  0.00    -0.059 A 
HETATM   44  C1  UNL     1      23.110  32.094  15.771  1.00  0.00     0.048 C 
HETATM   45  C34 UNL     1      22.195  34.268  14.981  1.00  0.00     0.024 A 
HETATM   46  C33 UNL     1      21.974  35.631  15.110  1.00  0.00     0.091 A 
ENDBRANCH  39  40
ENDBRANCH  38  39
ENDBRANCH  37  38
ENDBRANCH  36  37
ENDBRANCH   1  36
TORSDOF 11
ENDMDL
MODEL 5
REMARK VINA RESULT: -9.972152511      0.967      2.047
REMARK  11 active torsions:
REMARK  status: ('A' for Active; 'I' for Inactive)
REMARK    1  A    between atoms: N1_5  and  C5_6 
REMARK    2  A    between atoms: C5_6  and  C6_7 
REMARK    3  A    between atoms: C6_7  and  C7_8 
REMARK    4  A    between atoms: C7_8  and  O1_9 
REMARK    5  A    between atoms: O1_9  and  C8_10 
REMARK    6  A    between atoms: C12_14  and  C13_15 
REMARK    7  A    between atoms: C13_15  and  C14_16 
REMARK    8  A    between atoms: C17_19  and  C18_20 
REMARK    9  A    between atoms: C18_20  and  C19_21 
REMARK   10  A    between atoms: C23_28  and  C24_29 
REMARK   11  A    between atoms: C30_40  and  O6_41 
ROOT
HETATM    1  C8  UNL     1      18.533  35.875  17.811  1.00  0.00     0.069 A 
HETATM    2  C9  UNL     1      18.624  34.502  17.723  1.00  0.00     0.037 A 
HETATM    3  C10 UNL     1      19.844  33.918  17.441  1.00  0.00     0.016 A 
HETATM    4  C11 UNL     1      21.000  34.653  17.237  1.00  0.00    -0.006 A 
HETATM    5  C12 UNL     1      22.218  34.072  16.956  1.00  0.00     0.044 A 
HETATM    6  C29 UNL     1      23.317  34.893  16.770  1.00  0.00     0.258 A 
HETATM    7  O5  UNL     1      24.456  34.380  16.508  1.00  0.00    -0.267 OA
HETATM    8  N3  UNL     1      23.220  36.232  16.858  1.00  0.00    -0.303 N 
ATOM      9  H3  UNL     1      24.039  36.823  16.717  1.00  0.00     0.171 HD
HETATM   10  C30 UNL     1      22.025  36.778  17.133  1.00  0.00     0.154 A 
HETATM   11  C31 UNL     1      20.873  36.026  17.334  1.00  0.00     0.029 A 
HETATM   12  C32 UNL     1      19.663  36.615  17.614  1.00  0.00     0.053 A 
ENDROOT
BRANCH   5  13
HETATM   13  C13 UNL     1      22.304  32.642  16.869  1.00  0.00     0.029 C 
BRANCH  13  14
HETATM   14  C14 UNL     1      21.971  32.006  15.757  1.00  0.00    -0.035 A 
HETATM   15  C15 UNL     1      22.330  32.467  14.508  1.00  0.00     0.012 A 
HETATM   16  C16 UNL     1      21.980  31.797  13.351  1.00  0.00     0.012 A 
HETATM   17  C17 UNL     1      21.251  30.630  13.407  1.00  0.00    -0.035 A 
HETATM   18  C27 UNL     1      20.885  30.157  14.645  1.00  0.00     0.012 A 
HETATM   19  C28 UNL     1      21.243  30.839  15.813  1.00  0.00     0.012 A 
BRANCH  17  20
HETATM   20  C18 UNL     1      20.920  29.996  12.288  1.00  0.00     0.025 C 
BRANCH  20  21
HETATM   21  C19 UNL     1      21.125  28.577  12.072  1.00  0.00    -0.006 A 
HETATM   22  C20 UNL     1      22.393  28.068  12.203  1.00  0.00     0.019 A 
HETATM   23  C21 UNL     1      23.583  28.902  12.557  1.00  0.00     0.069 C 
HETATM   24  N2  UNL     1      22.598  26.739  12.004  1.00  0.00    -0.326 N 
HETATM   25  C22 UNL     1      21.600  25.895  11.683  1.00  0.00     0.263 A 
ATOM     26  H2  UNL     1      23.543  26.367  12.102  1.00  0.00     0.169 HD
HETATM   27  O2  UNL     1      21.833  24.657  11.506  1.00  0.00    -0.267 OA
HETATM   28  C23 UNL     1      20.312  26.365  11.542  1.00  0.00     0.115 A 
HETATM   29  C25 UNL     1      20.094  27.729  11.744  1.00  0.00    -0.027 A 
HETATM   30  C26 UNL     1      18.703  28.228  11.590  1.00  0.00     0.050 C 
BRANCH  28  31
HETATM   31  C24 UNL     1      19.240  25.441  11.196  1.00  0.00     0.215 C 
HETATM   32  O3  UNL     1      18.938  25.134  10.005  1.00  0.00    -0.644 OA
HETATM   33  O4  UNL     1      18.485  24.844  12.203  1.00  0.00    -0.644 OA
ENDBRANCH  28  31
ENDBRANCH  20  21
ENDBRANCH  17  20
ENDBRANCH  13  14
ENDBRANCH   5  13
BRANCH  10  34
HETATM   34  O6  UNL     1      21.884  38.160  17.232  1.00  0.00    -0.345 OA
ATOM     35  H6  UNL     1      22.638  38.730  17.133  1.00  0.00     0.219 HD
ENDBRANCH  10  34
BRANCH   1  36
HETATM   36  O1  UNL     1      17.295  36.476  18.098  1.00  0.00    -0.351 OA
BRANCH  36  37
HETATM   37  C7  UNL     1      16.418  36.863  17.058  1.00  0.00     0.177 C 
BRANCH  37  38
HETATM   38  C6  UNL     1      15.652  35.653  16.587  1.00  0.00     0.047 C 
BRANCH  38  39
HETATM   39  C5  UNL     1      16.069  35.318  15.187  1.00  0.00     0.130 C 
BRANCH  39  40
HETATM   40  N1  UNL     1      16.371  33.908  15.030  1.00  0.00    -0.366 N 
HETATM   41  C4  UNL     1      17.431  33.516  14.314  1.00  0.00     0.091 A 
HETATM   42  C3  UNL     1      17.773  32.188  14.125  1.00  0.00     0.024 A 
HETATM   43  C2  UNL     1      16.992  31.197  14.700  1.00  0.00    -0.059 A 
HETATM   44  C1  UNL     1      17.291  29.750  14.547  1.00  0.00     0.048 C 
HETATM   45  C34 UNL     1      15.903  31.615  15.435  1.00  0.00     0.024 A 
HETATM   46  C33 UNL     1      15.602  32.959  15.594  1.00  0.00     0.091 A 
ENDBRANCH  39  40
ENDBRANCH  38  39
ENDBRANCH  37  38
ENDBRANCH  36  37
ENDBRANCH   1  36
TORSDOF 11
ENDMDL
