MODEL 1
REMARK VINA RESULT: -8.408651932      0.000      0.000
REMARK  11 active torsions:
REMARK  status: ('A' for Active; 'I' for Inactive)
REMARK    1  A    between atoms: C2_2  and  C3_3 
REMARK    2  A    between atoms: C3_3  and  C4_4 
REMARK    3  A    between atoms: C4_4  and  C5_5 
REMARK    4  A    between atoms: C6_6  and  O1_7 
REMARK    5  A    between atoms: C7_11  and  C8_12 
REMARK    6  A    between atoms: C8_12  and  C9_13 
REMARK    7  A    between atoms: C13_20  and  C14_21 
REMARK    8  A    between atoms: C14_21  and  C15_22 
REMARK    9  A    between atoms: C15_22  and  C18_25 
REMARK   10  A    between atoms: C22_29  and  O3_30 
REMARK   11  A    between atoms: C23_34  and  C24_35 
ROOT
HETATM    1  C5  UNL     1      18.035  27.316  11.855  1.00  0.00     0.064 C 
HETATM    2  C6  UNL     1      18.154  27.186  13.272  1.00  0.00     0.160 C 
HETATM    3  N1  UNL     1      18.326  28.017  14.376  1.00  0.00    -0.356 N 
ATOM      4  H1  UNL     1      17.823  27.715  15.210  1.00  0.00     0.162 HD
HETATM    5  C7  UNL     1      19.083  29.221  14.549  1.00  0.00     0.176 C 
HETATM    6  C12 UNL     1      20.495  28.833  14.922  1.00  0.00     0.241 C 
HETATM    7  O2  UNL     1      20.589  27.722  15.554  1.00  0.00    -0.271 OA
HETATM    8  N2  UNL     1      21.605  29.596  14.617  1.00  0.00    -0.347 N 
ATOM      9  H2  UNL     1      22.507  29.210  14.899  1.00  0.00     0.163 HD
HETATM   10  C13 UNL     1      21.642  30.902  13.933  1.00  0.00     0.159 C 
HETATM   11  C22 UNL     1      21.984  30.617  12.526  1.00  0.00     0.135 C 
HETATM   12  N3  UNL     1      23.085  29.958  11.995  1.00  0.00    -0.359 N 
ATOM     13  H3  UNL     1      23.711  30.546  11.444  1.00  0.00     0.162 HD
HETATM   14  C23 UNL     1      23.488  28.575  12.097  1.00  0.00     0.179 C 
HETATM   15  C27 UNL     1      23.074  27.915  10.833  1.00  0.00     0.241 C 
HETATM   16  O4  UNL     1      23.808  28.093   9.832  1.00  0.00    -0.271 OA
HETATM   17  N4  UNL     1      21.918  27.107  10.687  1.00  0.00    -0.346 N 
ATOM     18  H4  UNL     1      21.469  27.096   9.771  1.00  0.00     0.163 HD
HETATM   19  C28 UNL     1      21.321  26.299  11.723  1.00  0.00     0.173 C 
HETATM   20  C29 UNL     1      22.307  25.168  11.952  1.00  0.00     0.042 C 
HETATM   21  C30 UNL     1      20.014  25.741  11.347  1.00  0.00     0.246 C 
HETATM   22  O5  UNL     1      19.983  24.452  11.263  1.00  0.00    -0.271 OA
HETATM   23  N5  UNL     1      18.802  26.359  11.063  1.00  0.00    -0.320 N 
HETATM   24  C31 UNL     1      18.180  25.994   9.762  1.00  0.00     0.159 C 
ENDROOT
BRANCH  10  25
HETATM   25  C14 UNL     1      22.560  31.717  14.728  1.00  0.00     0.042 C 
BRANCH  25  26
HETATM   26  C15 UNL     1      22.294  33.136  15.070  1.00  0.00    -0.042 C 
HETATM   27  C16 UNL     1      20.795  33.477  14.932  1.00  0.00     0.015 C 
HETATM   28  C17 UNL     1      23.148  34.022  14.257  1.00  0.00     0.015 C 
BRANCH  26  29
HETATM   29  C18 UNL     1      22.515  33.241  16.580  1.00  0.00    -0.003 A 
HETATM   30  C19 UNL     1      23.833  33.653  17.120  1.00  0.00     0.010 A 
HETATM   31  C20 UNL     1      22.477  34.372  17.436  1.00  0.00    -0.013 A 
HETATM   32  C21 UNL     1      22.560  35.826  17.206  1.00  0.00     0.010 C 
ENDBRANCH  26  29
ENDBRANCH  25  26
ENDBRANCH  10  25
BRANCH  11  33
HETATM   33  O3  UNL     1      21.106  31.059  11.669  1.00  0.00    -0.348 OA
ATOM     34  H3  UNL     1      20.747  30.385  11.102  1.00  0.00     0.219 HD
ENDBRANCH  11  33
BRANCH   5  35
HETATM   35  C8  UNL     1      18.556  30.088  15.661  1.00  0.00     0.038 C 
BRANCH  35  36
HETATM   36  C9  UNL     1      17.799  31.304  15.303  1.00  0.00    -0.020 C 
HETATM   37  C10 UNL     1      17.948  31.835  13.915  1.00  0.00     0.009 C 
HETATM   38  C11 UNL     1      16.313  30.983  15.484  1.00  0.00     0.009 C 
ENDBRANCH  35  36
ENDBRANCH   5  35
BRANCH  14  39
HETATM   39  C24 UNL     1      24.970  28.393  12.286  1.00  0.00     0.009 C 
HETATM   40  C25 UNL     1      25.363  26.925  12.229  1.00  0.00     0.012 C 
HETATM   41  C26 UNL     1      25.518  28.967  13.565  1.00  0.00     0.012 C 
ENDBRANCH  14  39
BRANCH   2  42
HETATM   42  O1  UNL     1      18.083  25.923  13.657  1.00  0.00    -0.345 OA
ATOM     43  H1  UNL     1      17.382  25.784  14.281  1.00  0.00     0.219 HD
ENDBRANCH   2  42
BRANCH   1  44
HETATM   44  C4  UNL     1      18.031  28.610  11.153  1.00  0.00     0.062 C 
BRANCH  44  45
HETATM   45  C3  UNL     1      16.707  29.115  10.644  1.00  0.00     0.006 C 
BRANCH  45  46
HETATM   46  C2  UNL     1      15.576  28.757  11.594  1.00  0.00    -0.004 C 
HETATM   47  C1  UNL     1      14.929  27.459  11.198  1.00  0.00     0.005 C 
ENDBRANCH  45  46
ENDBRANCH  44  45
ENDBRANCH   1  44
TORSDOF 11
ENDMDL
MODEL 2
REMARK VINA RESULT: -7.815956272      0.638      1.239
REMARK  11 active torsions:
REMARK  status: ('A' for Active; 'I' for Inactive)
REMARK    1  A    between atoms: C2_2  and  C3_3 
REMARK    2  A    between atoms: C3_3  and  C4_4 
REMARK    3  A    between atoms: C4_4  and  C5_5 
REMARK    4  A    between atoms: C6_6  and  O1_7 
REMARK    5  A    between atoms: C7_11  and  C8_12 
REMARK    6  A    between atoms: C8_12  and  C9_13 
REMARK    7  A    between atoms: C13_20  and  C14_21 
REMARK    8  A    between atoms: C14_21  and  C15_22 
REMARK    9  A    between atoms: C15_22  and  C18_25 
REMARK   10  A    between atoms: C22_29  and  O3_30 
REMARK   11  A    between atoms: C23_34  and  C24_35 
ROOT
HETATM    1  C5  UNL     1      18.018  27.118  11.667  1.00  0.00     0.064 C 
HETATM    2  C6  UNL     1      18.095  27.028  13.091  1.00  0.00     0.160 C 
HETATM    3  N1  UNL     1      18.178  27.893  14.179  1.00  0.00    -0.356 N 
ATOM      4  H1  UNL     1      17.665  27.580  15.003  1.00  0.00     0.162 HD
HETATM    5  C7  UNL     1      18.855  29.144  14.348  1.00  0.00     0.176 C 
HETATM    6  C12 UNL     1      20.273  28.851  14.778  1.00  0.00     0.241 C 
HETATM    7  O2  UNL     1      20.412  27.763  15.440  1.00  0.00    -0.271 OA
HETATM    8  N2  UNL     1      21.346  29.673  14.492  1.00  0.00    -0.347 N 
ATOM      9  H2  UNL     1      22.258  29.350  14.813  1.00  0.00     0.163 HD
HETATM   10  C13 UNL     1      21.328  30.963  13.777  1.00  0.00     0.159 C 
HETATM   11  C22 UNL     1      21.736  30.668  12.390  1.00  0.00     0.135 C 
HETATM   12  N3  UNL     1      22.893  30.066  11.913  1.00  0.00    -0.359 N 
ATOM     13  H3  UNL     1      23.501  30.678  11.370  1.00  0.00     0.162 HD
HETATM   14  C23 UNL     1      23.374  28.712  12.063  1.00  0.00     0.179 C 
HETATM   15  C27 UNL     1      23.045  28.000  10.802  1.00  0.00     0.241 C 
HETATM   16  O4  UNL     1      23.802  28.200   9.822  1.00  0.00    -0.271 OA
HETATM   17  N4  UNL     1      21.945  27.120  10.637  1.00  0.00    -0.346 N 
ATOM     18  H4  UNL     1      21.531  27.061   9.707  1.00  0.00     0.163 HD
HETATM   19  C28 UNL     1      21.362  26.300  11.672  1.00  0.00     0.173 C 
HETATM   20  C29 UNL     1      22.406  25.237  11.962  1.00  0.00     0.042 C 
HETATM   21  C30 UNL     1      20.106  25.656  11.266  1.00  0.00     0.246 C 
HETATM   22  O5  UNL     1      20.155  24.366  11.212  1.00  0.00    -0.271 OA
HETATM   23  N5  UNL     1      18.869  26.192  10.926  1.00  0.00    -0.320 N 
HETATM   24  C31 UNL     1      18.317  25.761   9.614  1.00  0.00     0.159 C 
ENDROOT
BRANCH  10  25
HETATM   25  C14 UNL     1      22.167  31.850  14.582  1.00  0.00     0.042 C 
BRANCH  25  26
HETATM   26  C15 UNL     1      21.623  32.986  15.368  1.00  0.00    -0.042 C 
HETATM   27  C16 UNL     1      22.164  32.980  16.813  1.00  0.00     0.015 C 
HETATM   28  C17 UNL     1      20.148  32.976  15.320  1.00  0.00     0.015 C 
BRANCH  26  29
HETATM   29  C18 UNL     1      22.274  34.239  14.779  1.00  0.00    -0.003 A 
HETATM   30  C19 UNL     1      22.360  35.487  15.574  1.00  0.00     0.010 A 
HETATM   31  C20 UNL     1      23.588  34.750  14.939  1.00  0.00    -0.013 A 
HETATM   32  C21 UNL     1      24.658  34.517  15.925  1.00  0.00     0.010 C 
ENDBRANCH  26  29
ENDBRANCH  25  26
ENDBRANCH  10  25
BRANCH  11  33
HETATM   33  O3  UNL     1      20.863  31.036  11.493  1.00  0.00    -0.348 OA
ATOM     34  H3  UNL     1      20.550  31.926  11.602  1.00  0.00     0.219 HD
ENDBRANCH  11  33
BRANCH   5  35
HETATM   35  C8  UNL     1      18.238  30.002  15.420  1.00  0.00     0.038 C 
BRANCH  35  36
HETATM   36  C9  UNL     1      17.073  30.837  15.065  1.00  0.00    -0.020 C 
HETATM   37  C10 UNL     1      16.702  31.947  15.992  1.00  0.00     0.009 C 
HETATM   38  C11 UNL     1      17.377  31.488  13.713  1.00  0.00     0.009 C 
ENDBRANCH  35  36
ENDBRANCH   5  35
BRANCH  14  39
HETATM   39  C24 UNL     1      24.856  28.625  12.306  1.00  0.00     0.009 C 
HETATM   40  C25 UNL     1      25.325  27.180  12.377  1.00  0.00     0.012 C 
HETATM   41  C26 UNL     1      25.334  29.327  13.549  1.00  0.00     0.012 C 
ENDBRANCH  14  39
BRANCH   2  42
HETATM   42  O1  UNL     1      18.087  25.772  13.504  1.00  0.00    -0.345 OA
ATOM     43  H1  UNL     1      18.810  25.589  14.091  1.00  0.00     0.219 HD
ENDBRANCH   2  42
BRANCH   1  44
HETATM   44  C4  UNL     1      17.962  28.393  10.935  1.00  0.00     0.062 C 
BRANCH  44  45
HETATM   45  C3  UNL     1      16.691  28.704  10.187  1.00  0.00     0.006 C 
BRANCH  45  46
HETATM   46  C2  UNL     1      15.470  28.211  10.944  1.00  0.00    -0.004 C 
HETATM   47  C1  UNL     1      15.153  29.111  12.105  1.00  0.00     0.005 C 
ENDBRANCH  45  46
ENDBRANCH  44  45
ENDBRANCH   1  44
TORSDOF 11
ENDMDL
MODEL 3
REMARK VINA RESULT: -7.768785990      3.172      9.023
REMARK  11 active torsions:
REMARK  status: ('A' for Active; 'I' for Inactive)
REMARK    1  A    between atoms: C2_2  and  C3_3 
REMARK    2  A    between atoms: C3_3  and  C4_4 
REMARK    3  A    between atoms: C4_4  and  C5_5 
REMARK    4  A    between atoms: C6_6  and  O1_7 
REMARK    5  A    between atoms: C7_11  and  C8_12 
REMARK    6  A    between atoms: C8_12  and  C9_13 
REMARK    7  A    between atoms: C13_20  and  C14_21 
REMARK    8  A    between atoms: C14_21  and  C15_22 
REMARK    9  A    between atoms: C15_22  and  C18_25 
REMARK   10  A    between atoms: C22_29  and  O3_30 
REMARK   11  A    between atoms: C23_34  and  C24_35 
ROOT
HETATM    1  C5  UNL     1      22.121  33.968  16.223  1.00  0.00     0.064 C 
HETATM    2  C6  UNL     1      22.069  32.687  16.851  1.00  0.00     0.160 C 
HETATM    3  N1  UNL     1      21.888  31.358  16.477  1.00  0.00    -0.356 N 
ATOM      4  H1  UNL     1      22.445  30.692  17.012  1.00  0.00     0.162 HD
HETATM    5  C7  UNL     1      21.060  30.759  15.473  1.00  0.00     0.176 C 
HETATM    6  C12 UNL     1      19.695  30.526  16.075  1.00  0.00     0.241 C 
HETATM    7  O2  UNL     1      19.701  30.325  17.341  1.00  0.00    -0.271 OA
HETATM    8  N2  UNL     1      18.524  30.524  15.342  1.00  0.00    -0.347 N 
ATOM      9  H2  UNL     1      17.663  30.383  15.871  1.00  0.00     0.163 HD
HETATM   10  C13 UNL     1      18.371  30.702  13.886  1.00  0.00     0.159 C 
HETATM   11  C22 UNL     1      17.990  32.113  13.685  1.00  0.00     0.135 C 
HETATM   12  N3  UNL     1      16.915  32.826  14.198  1.00  0.00    -0.359 N 
ATOM     13  H3  UNL     1      16.229  33.124  13.505  1.00  0.00     0.162 HD
HETATM   14  C23 UNL     1      16.609  33.213  15.556  1.00  0.00     0.179 C 
HETATM   15  C27 UNL     1      17.014  34.635  15.696  1.00  0.00     0.241 C 
HETATM   16  O4  UNL     1      16.228  35.497  15.235  1.00  0.00    -0.271 OA
HETATM   17  N4  UNL     1      18.215  35.074  16.309  1.00  0.00    -0.346 N 
ATOM     18  H4  UNL     1      18.624  35.942  15.963  1.00  0.00     0.163 HD
HETATM   19  C28 UNL     1      18.907  34.400  17.381  1.00  0.00     0.173 C 
HETATM   20  C29 UNL     1      18.009  34.570  18.593  1.00  0.00     0.042 C 
HETATM   21  C30 UNL     1      20.231  34.969  17.668  1.00  0.00     0.246 C 
HETATM   22  O5  UNL     1      20.345  35.504  18.839  1.00  0.00    -0.271 OA
HETATM   23  N5  UNL     1      21.386  35.035  16.898  1.00  0.00    -0.320 N 
HETATM   24  C31 UNL     1      21.976  36.391  16.733  1.00  0.00     0.159 C 
ENDROOT
BRANCH  10  25
HETATM   25  C14 UNL     1      17.435  29.657  13.476  1.00  0.00     0.042 C 
BRANCH  25  26
HETATM   26  C15 UNL     1      17.816  28.532  12.585  1.00  0.00    -0.042 C 
HETATM   27  C16 UNL     1      18.154  27.263  13.394  1.00  0.00     0.015 C 
HETATM   28  C17 UNL     1      18.919  28.942  11.695  1.00  0.00     0.015 C 
BRANCH  26  29
HETATM   29  C18 UNL     1      16.528  28.128  11.864  1.00  0.00    -0.003 A 
HETATM   30  C19 UNL     1      16.235  28.640  10.504  1.00  0.00     0.010 A 
HETATM   31  C20 UNL     1      16.300  27.122  10.889  1.00  0.00    -0.013 A 
HETATM   32  C21 UNL     1      17.182  26.363   9.985  1.00  0.00     0.010 C 
ENDBRANCH  26  29
ENDBRANCH  25  26
ENDBRANCH  10  25
BRANCH  11  33
HETATM   33  O3  UNL     1      18.800  32.773  12.903  1.00  0.00    -0.348 OA
ATOM     34  H3  UNL     1      19.580  33.097  13.340  1.00  0.00     0.219 HD
ENDBRANCH  11  33
BRANCH   5  35
HETATM   35  C8  UNL     1      21.574  29.421  15.013  1.00  0.00     0.038 C 
BRANCH  35  36
HETATM   36  C9  UNL     1      22.384  29.367  13.781  1.00  0.00    -0.020 C 
HETATM   37  C10 UNL     1      22.295  28.135  12.940  1.00  0.00     0.009 C 
HETATM   38  C11 UNL     1      21.934  30.529  12.891  1.00  0.00     0.009 C 
ENDBRANCH  35  36
ENDBRANCH   5  35
BRANCH  14  39
HETATM   39  C24 UNL     1      15.153  33.077  15.907  1.00  0.00     0.009 C 
HETATM   40  C25 UNL     1      14.866  33.601  17.305  1.00  0.00     0.012 C 
HETATM   41  C26 UNL     1      14.610  31.676  15.819  1.00  0.00     0.012 C 
ENDBRANCH  14  39
BRANCH   2  42
HETATM   42  O1  UNL     1      22.241  32.774  18.160  1.00  0.00    -0.345 OA
ATOM     43  H1  UNL     1      22.748  33.541  18.398  1.00  0.00     0.219 HD
ENDBRANCH   2  42
BRANCH   1  44
HETATM   44  C4  UNL     1      22.008  34.168  14.770  1.00  0.00     0.062 C 
BRANCH  44  45
HETATM   45  C3  UNL     1      23.274  34.480  14.016  1.00  0.00     0.006 C 
BRANCH  45  46
HETATM   46  C2  UNL     1      24.489  33.884  14.705  1.00  0.00    -0.004 C 
HETATM   47  C1  UNL     1      24.948  34.754  15.841  1.00  0.00     0.005 C 
ENDBRANCH  45  46
ENDBRANCH  44  45
ENDBRANCH   1  44
TORSDOF 11
ENDMDL
MODEL 4
REMARK VINA RESULT: -6.842200759      1.180      1.758
REMARK  11 active torsions:
REMARK  status: ('A' for Active; 'I' for Inactive)
REMARK    1  A    between atoms: C2_2  and  C3_3 
REMARK    2  A    between atoms: C3_3  and  C4_4 
REMARK    3  A    between atoms: C4_4  and  C5_5 
REMARK    4  A    between atoms: C6_6  and  O1_7 
REMARK    5  A    between atoms: C7_11  and  C8_12 
REMARK    6  A    between atoms: C8_12  and  C9_13 
REMARK    7  A    between atoms: C13_20  and  C14_21 
REMARK    8  A    between atoms: C14_21  and  C15_22 
REMARK    9  A    between atoms: C15_22  and  C18_25 
REMARK   10  A    between atoms: C22_29  and  O3_30 
REMARK   11  A    between atoms: C23_34  and  C24_35 
ROOT
HETATM    1  C5  UNL     1      18.415  26.713  11.007  1.00  0.00     0.064 C 
HETATM    2  C6  UNL     1      18.379  26.523  12.422  1.00  0.00     0.160 C 
HETATM    3  N1  UNL     1      18.252  27.304  13.568  1.00  0.00    -0.356 N 
ATOM      4  H1  UNL     1      17.715  26.866  14.316  1.00  0.00     0.162 HD
HETATM    5  C7  UNL     1      18.740  28.613  13.884  1.00  0.00     0.176 C 
HETATM    6  C12 UNL     1      20.142  28.468  14.427  1.00  0.00     0.241 C 
HETATM    7  O2  UNL     1      20.365  27.357  15.027  1.00  0.00    -0.271 OA
HETATM    8  N2  UNL     1      21.117  29.437  14.301  1.00  0.00    -0.347 N 
ATOM      9  H2  UNL     1      22.033  29.207  14.687  1.00  0.00     0.163 HD
HETATM   10  C13 UNL     1      20.992  30.767  13.675  1.00  0.00     0.159 C 
HETATM   11  C22 UNL     1      21.554  30.634  12.317  1.00  0.00     0.135 C 
HETATM   12  N3  UNL     1      22.818  30.220  11.915  1.00  0.00    -0.359 N 
ATOM     13  H3  UNL     1      23.384  30.944  11.474  1.00  0.00     0.162 HD
HETATM   14  C23 UNL     1      23.459  28.931  12.021  1.00  0.00     0.179 C 
HETATM   15  C27 UNL     1      23.337  28.283  10.690  1.00  0.00     0.241 C 
HETATM   16  O4  UNL     1      24.144  28.652   9.803  1.00  0.00    -0.271 OA
HETATM   17  N4  UNL     1      22.382  27.287  10.362  1.00  0.00    -0.346 N 
ATOM     18  H4  UNL     1      22.062  27.249   9.395  1.00  0.00     0.163 HD
HETATM   19  C28 UNL     1      21.824  26.323  11.280  1.00  0.00     0.173 C 
HETATM   20  C29 UNL     1      22.970  25.380  11.598  1.00  0.00     0.042 C 
HETATM   21  C30 UNL     1      20.704  25.560  10.713  1.00  0.00     0.246 C 
HETATM   22  O5  UNL     1      20.928  24.294  10.580  1.00  0.00    -0.271 OA
HETATM   23  N5  UNL     1      19.442  25.961  10.292  1.00  0.00    -0.320 N 
HETATM   24  C31 UNL     1      19.067  25.568   8.907  1.00  0.00     0.159 C 
ENDROOT
BRANCH  10  25
HETATM   25  C14 UNL     1      21.633  31.687  14.614  1.00  0.00     0.042 C 
BRANCH  25  26
HETATM   26  C15 UNL     1      20.981  32.154  15.863  1.00  0.00    -0.042 C 
HETATM   27  C16 UNL     1      22.024  32.588  16.913  1.00  0.00     0.015 C 
HETATM   28  C17 UNL     1      20.065  31.116  16.375  1.00  0.00     0.015 C 
BRANCH  26  29
HETATM   29  C18 UNL     1      20.308  33.480  15.502  1.00  0.00    -0.003 A 
HETATM   30  C19 UNL     1      18.836  33.558  15.344  1.00  0.00     0.010 A 
HETATM   31  C20 UNL     1      19.675  34.442  16.330  1.00  0.00    -0.013 A 
HETATM   32  C21 UNL     1      19.130  34.405  17.699  1.00  0.00     0.010 C 
ENDBRANCH  26  29
ENDBRANCH  25  26
ENDBRANCH  10  25
BRANCH  11  33
HETATM   33  O3  UNL     1      20.723  30.958  11.366  1.00  0.00    -0.348 OA
ATOM     34  H3  UNL     1      21.112  31.481  10.674  1.00  0.00     0.219 HD
ENDBRANCH  11  33
BRANCH   5  35
HETATM   35  C8  UNL     1      17.924  29.301  14.945  1.00  0.00     0.038 C 
BRANCH  35  36
HETATM   36  C9  UNL     1      16.853  30.222  14.518  1.00  0.00    -0.020 C 
HETATM   37  C10 UNL     1      16.278  31.147  15.541  1.00  0.00     0.009 C 
HETATM   38  C11 UNL     1      17.431  31.109  13.412  1.00  0.00     0.009 C 
ENDBRANCH  35  36
ENDBRANCH   5  35
BRANCH  14  39
HETATM   39  C24 UNL     1      24.913  29.011  12.400  1.00  0.00     0.009 C 
HETATM   40  C25 UNL     1      25.474  27.642  12.750  1.00  0.00     0.012 C 
HETATM   41  C26 UNL     1      25.216  29.940  13.545  1.00  0.00     0.012 C 
ENDBRANCH  14  39
BRANCH   2  42
HETATM   42  O1  UNL     1      18.500  25.247  12.749  1.00  0.00    -0.345 OA
ATOM     43  H1  UNL     1      17.688  24.772  12.622  1.00  0.00     0.219 HD
ENDBRANCH   2  42
BRANCH   1  44
HETATM   44  C4  UNL     1      18.255  28.024  10.358  1.00  0.00     0.062 C 
BRANCH  44  45
HETATM   45  C3  UNL     1      16.884  28.376   9.842  1.00  0.00     0.006 C 
BRANCH  45  46
HETATM   46  C2  UNL     1      15.952  28.774  10.973  1.00  0.00    -0.004 C 
HETATM   47  C1  UNL     1      15.030  27.645  11.337  1.00  0.00     0.005 C 
ENDBRANCH  45  46
ENDBRANCH  44  45
ENDBRANCH   1  44
TORSDOF 11
ENDMDL
MODEL 5
REMARK VINA RESULT: -6.373659458      3.122      8.851
REMARK  11 active torsions:
REMARK  status: ('A' for Active; 'I' for Inactive)
REMARK    1  A    between atoms: C2_2  and  C3_3 
REMARK    2  A    between atoms: C3_3  and  C4_4 
REMARK    3  A    between atoms: C4_4  and  C5_5 
REMARK    4  A    between atoms: C6_6  and  O1_7 
REMARK    5  A    between atoms: C7_11  and  C8_12 
REMARK    6  A    between atoms: C8_12  and  C9_13 
REMARK    7  A    between atoms: C13_20  and  C14_21 
REMARK    8  A    between atoms: C14_21  and  C15_22 
REMARK    9  A    between atoms: C15_22  and  C18_25 
REMARK   10  A    between atoms: C22_29  and  O3_30 
REMARK   11  A    between atoms: C23_34  and  C24_35 
ROOT
HETATM    1  C5  UNL     1      22.141  33.868  16.261  1.00  0.00     0.064 C 
HETATM    2  C6  UNL     1      22.071  32.590  16.895  1.00  0.00     0.160 C 
HETATM    3  N1  UNL     1      21.901  31.259  16.524  1.00  0.00    -0.356 N 
ATOM      4  H1  UNL     1      22.442  30.597  17.080  1.00  0.00     0.162 HD
HETATM    5  C7  UNL     1      21.102  30.654  15.500  1.00  0.00     0.176 C 
HETATM    6  C12 UNL     1      19.720  30.424  16.064  1.00  0.00     0.241 C 
HETATM    7  O2  UNL     1      19.690  30.231  17.331  1.00  0.00    -0.271 OA
HETATM    8  N2  UNL     1      18.571  30.417  15.297  1.00  0.00    -0.347 N 
ATOM      9  H2  UNL     1      17.695  30.279  15.801  1.00  0.00     0.163 HD
HETATM   10  C13 UNL     1      18.461  30.586  13.836  1.00  0.00     0.159 C 
HETATM   11  C22 UNL     1      18.086  31.996  13.615  1.00  0.00     0.135 C 
HETATM   12  N3  UNL     1      16.996  32.711  14.092  1.00  0.00    -0.359 N 
ATOM     13  H3  UNL     1      16.331  33.005  13.377  1.00  0.00     0.162 HD
HETATM   14  C23 UNL     1      16.651  33.107  15.438  1.00  0.00     0.179 C 
HETATM   15  C27 UNL     1      17.052  34.530  15.581  1.00  0.00     0.241 C 
HETATM   16  O4  UNL     1      16.279  35.389  15.091  1.00  0.00    -0.271 OA
HETATM   17  N4  UNL     1      18.234  34.974  16.226  1.00  0.00    -0.346 N 
ATOM     18  H4  UNL     1      18.653  35.839  15.887  1.00  0.00     0.163 HD
HETATM   19  C28 UNL     1      18.895  34.306  17.322  1.00  0.00     0.173 C 
HETATM   20  C29 UNL     1      17.962  34.484  18.505  1.00  0.00     0.042 C 
HETATM   21  C30 UNL     1      20.210  34.878  17.643  1.00  0.00     0.246 C 
HETATM   22  O5  UNL     1      20.290  35.419  18.814  1.00  0.00    -0.271 OA
HETATM   23  N5  UNL     1      21.387  34.939  16.907  1.00  0.00    -0.320 N 
HETATM   24  C31 UNL     1      21.981  36.293  16.751  1.00  0.00     0.159 C 
ENDROOT
BRANCH  10  25
HETATM   25  C14 UNL     1      17.537  29.538  13.405  1.00  0.00     0.042 C 
BRANCH  25  26
HETATM   26  C15 UNL     1      17.988  28.202  12.940  1.00  0.00    -0.042 C 
HETATM   27  C16 UNL     1      16.815  27.385  12.357  1.00  0.00     0.015 C 
HETATM   28  C17 UNL     1      18.679  27.491  14.033  1.00  0.00     0.015 C 
BRANCH  26  29
HETATM   29  C18 UNL     1      18.848  28.469  11.704  1.00  0.00    -0.003 A 
HETATM   30  C19 UNL     1      20.049  27.643  11.431  1.00  0.00     0.010 A 
HETATM   31  C20 UNL     1      18.853  27.832  10.436  1.00  0.00    -0.013 A 
HETATM   32  C21 UNL     1      18.340  26.542   9.943  1.00  0.00     0.010 C 
ENDBRANCH  26  29
ENDBRANCH  25  26
ENDBRANCH  10  25
BRANCH  11  33
HETATM   33  O3  UNL     1      18.919  32.651  12.853  1.00  0.00    -0.348 OA
ATOM     34  H3  UNL     1      19.236  33.461  13.236  1.00  0.00     0.219 HD
ENDBRANCH  11  33
BRANCH   5  35
HETATM   35  C8  UNL     1      21.630  29.313  15.064  1.00  0.00     0.038 C 
BRANCH  35  36
HETATM   36  C9  UNL     1      22.275  29.210  13.741  1.00  0.00    -0.020 C 
HETATM   37  C10 UNL     1      21.952  30.255  12.723  1.00  0.00     0.009 C 
HETATM   38  C11 UNL     1      23.788  29.284  13.967  1.00  0.00     0.009 C 
ENDBRANCH  35  36
ENDBRANCH   5  35
BRANCH  14  39
HETATM   39  C24 UNL     1      15.185  32.973  15.747  1.00  0.00     0.009 C 
HETATM   40  C25 UNL     1      14.855  33.517  17.128  1.00  0.00     0.012 C 
HETATM   41  C26 UNL     1      14.648  31.570  15.664  1.00  0.00     0.012 C 
ENDBRANCH  14  39
BRANCH   2  42
HETATM   42  O1  UNL     1      22.204  32.686  18.207  1.00  0.00    -0.345 OA
ATOM     43  H1  UNL     1      22.777  32.012  18.553  1.00  0.00     0.219 HD
ENDBRANCH   2  42
BRANCH   1  44
HETATM   44  C4  UNL     1      22.070  34.058  14.803  1.00  0.00     0.062 C 
BRANCH  44  45
HETATM   45  C3  UNL     1      23.305  33.732  14.005  1.00  0.00     0.006 C 
BRANCH  45  46
HETATM   46  C2  UNL     1      24.455  34.658  14.361  1.00  0.00    -0.004 C 
HETATM   47  C1  UNL     1      24.902  34.444  15.780  1.00  0.00     0.005 C 
ENDBRANCH  45  46
ENDBRANCH  44  45
ENDBRANCH   1  44
TORSDOF 11
ENDMDL
