MODEL 1
REMARK VINA RESULT: -9.038327129      0.000      0.000
REMARK  11 active torsions:
REMARK  status: ('A' for Active; 'I' for Inactive)
REMARK    1  A    between atoms: N1_1  and  S1_4 
REMARK    2  A    between atoms: S1_4  and  N2_5 
REMARK    3  A    between atoms: S1_4  and  C1_9 
REMARK    4  A    between atoms: C9_17  and  C10_18 
REMARK    5  A    between atoms: C10_18  and  C11_19 
REMARK    6  A    between atoms: N3_27  and  C18_28 
REMARK    7  A    between atoms: C18_28  and  C19_29 
REMARK    8  A    between atoms: C19_29  and  C20_30 
REMARK    9  A    between atoms: C20_30  and  C21_31 
REMARK   10  A    between atoms: N6_38  and  C24_39 
REMARK   11  A    between atoms: C24_39  and  C25_40 
ROOT
HETATM    1  C1  UNL     1      18.423  30.526  14.379  1.00  0.00     0.132 C 
HETATM    2  C2  UNL     1      17.499  30.296  13.408  1.00  0.00     0.054 C 
HETATM    3  C3  UNL     1      17.454  29.189  12.469  1.00  0.00    -0.023 A 
HETATM    4  C4  UNL     1      16.195  29.120  11.870  1.00  0.00     0.012 A 
HETATM    5  C5  UNL     1      15.920  28.124  10.933  1.00  0.00     0.002 A 
HETATM    6  C6  UNL     1      16.917  27.227  10.631  1.00  0.00     0.018 A 
HETATM    7  C7  UNL     1      18.186  27.288  11.231  1.00  0.00     0.042 A 
HETATM    8  C8  UNL     1      18.434  28.270  12.138  1.00  0.00     0.006 A 
HETATM    9  C9  UNL     1      19.858  28.191  12.522  1.00  0.00     0.150 C 
HETATM   10  C17 UNL     1      20.117  28.702  13.868  1.00  0.00     0.258 C 
HETATM   11  O2  UNL     1      21.021  28.122  14.497  1.00  0.00    -0.270 OA
HETATM   12  N3  UNL     1      19.560  29.767  14.688  1.00  0.00    -0.306 N 
HETATM   13  N6  UNL     1      20.271  26.885  12.177  1.00  0.00    -0.321 N 
HETATM   14  C31 UNL     1      19.310  26.373  11.185  1.00  0.00     0.256 C 
HETATM   15  O3  UNL     1      19.475  25.361  10.480  1.00  0.00    -0.267 OA
ENDROOT
BRANCH  12  16
HETATM   16  C18 UNL     1      20.199  30.049  15.920  1.00  0.00     0.133 C 
BRANCH  16  17
HETATM   17  C19 UNL     1      21.503  30.726  15.952  1.00  0.00     0.026 C 
BRANCH  17  18
HETATM   18  C20 UNL     1      21.676  31.910  14.991  1.00  0.00     0.060 C 
BRANCH  18  19
HETATM   19  C21 UNL     1      21.809  33.173  15.796  1.00  0.00     0.025 A 
HETATM   20  C22 UNL     1      21.859  34.446  15.344  1.00  0.00     0.113 A 
HETATM   21  N4  UNL     1      21.981  35.252  16.422  1.00  0.00    -0.360 N 
HETATM   22  C23 UNL     1      22.009  34.498  17.527  1.00  0.00     0.180 A 
ATOM     23  H4  UNL     1      22.042  36.270  16.396  1.00  0.00     0.166 HD
HETATM   24  N5  UNL     1      21.902  33.218  17.129  1.00  0.00    -0.355 N 
ATOM     25  H5  UNL     1      21.893  32.408  17.747  1.00  0.00     0.166 HD
ENDBRANCH  18  19
ENDBRANCH  17  18
ENDBRANCH  16  17
ENDBRANCH  12  16
BRANCH   1  26
HETATM   26  S1  UNL     1      18.091  31.938  15.243  1.00  0.00     0.147 S 
HETATM   27  O1  UNL     1      16.544  31.965  15.406  1.00  0.00    -0.222 OA
BRANCH  26  28
HETATM   28  N1  UNL     1      18.499  32.122  16.691  1.00  0.00    -0.340 N 
ATOM     29  H12 UNL     1      19.431  32.411  16.989  1.00  0.00     0.167 HD
ATOM     30  H11 UNL     1      17.715  31.918  17.310  1.00  0.00     0.167 HD
ENDBRANCH  26  28
BRANCH  26  31
HETATM   31  N2  UNL     1      18.337  33.423  14.344  1.00  0.00    -0.340 N 
ATOM     32  H22 UNL     1      18.904  33.490  13.499  1.00  0.00     0.167 HD
ATOM     33  H21 UNL     1      17.836  34.195  14.785  1.00  0.00     0.167 HD
ENDBRANCH  26  31
ENDBRANCH   1  26
BRANCH   9  34
HETATM   34  C10 UNL     1      20.640  29.236  11.656  1.00  0.00     0.085 C 
BRANCH  34  35
HETATM   35  C11 UNL     1      22.064  29.203  11.763  1.00  0.00    -0.055 A 
HETATM   36  C12 UNL     1      22.880  29.096  10.661  1.00  0.00     0.007 A 
HETATM   37  C13 UNL     1      24.253  29.069  10.706  1.00  0.00     0.001 A 
HETATM   38  C14 UNL     1      24.880  29.153  11.916  1.00  0.00     0.000 A 
HETATM   39  C15 UNL     1      24.109  29.263  13.055  1.00  0.00     0.001 A 
HETATM   40  C16 UNL     1      22.729  29.288  12.981  1.00  0.00     0.007 A 
ENDBRANCH  34  35
ENDBRANCH   9  34
BRANCH  13  41
HETATM   41  C24 UNL     1      21.422  26.033  12.537  1.00  0.00     0.166 C 
BRANCH  41  42
HETATM   42  C25 UNL     1      22.372  25.820  11.427  1.00  0.00    -0.040 A 
HETATM   43  C26 UNL     1      22.031  25.563  10.135  1.00  0.00     0.009 A 
HETATM   44  C27 UNL     1      22.942  25.361   9.103  1.00  0.00     0.001 A 
HETATM   45  C28 UNL     1      24.281  25.425   9.413  1.00  0.00     0.000 A 
HETATM   46  C29 UNL     1      24.701  25.680  10.696  1.00  0.00     0.001 A 
HETATM   47  C30 UNL     1      23.758  25.872  11.675  1.00  0.00     0.009 A 
ENDBRANCH  41  42
ENDBRANCH  13  41
TORSDOF 11
ENDMDL
MODEL 2
REMARK VINA RESULT: -8.935921235      2.408      7.045
REMARK  11 active torsions:
REMARK  status: ('A' for Active; 'I' for Inactive)
REMARK    1  A    between atoms: N1_1  and  S1_4 
REMARK    2  A    between atoms: S1_4  and  N2_5 
REMARK    3  A    between atoms: S1_4  and  C1_9 
REMARK    4  A    between atoms: C9_17  and  C10_18 
REMARK    5  A    between atoms: C10_18  and  C11_19 
REMARK    6  A    between atoms: N3_27  and  C18_28 
REMARK    7  A    between atoms: C18_28  and  C19_29 
REMARK    8  A    between atoms: C19_29  and  C20_30 
REMARK    9  A    between atoms: C20_30  and  C21_31 
REMARK   10  A    between atoms: N6_38  and  C24_39 
REMARK   11  A    between atoms: C24_39  and  C25_40 
ROOT
HETATM    1  C1  UNL     1      18.080  29.692  13.036  1.00  0.00     0.132 C 
HETATM    2  C2  UNL     1      17.027  29.934  13.862  1.00  0.00     0.054 C 
HETATM    3  C3  UNL     1      16.815  31.089  14.716  1.00  0.00    -0.023 A 
HETATM    4  C4  UNL     1      15.486  31.133  15.141  1.00  0.00     0.012 A 
HETATM    5  C5  UNL     1      15.052  32.167  15.970  1.00  0.00     0.002 A 
HETATM    6  C6  UNL     1      15.965  33.124  16.344  1.00  0.00     0.018 A 
HETATM    7  C7  UNL     1      17.303  33.089  15.920  1.00  0.00     0.042 A 
HETATM    8  C8  UNL     1      17.706  32.069  15.116  1.00  0.00     0.006 A 
HETATM    9  C9  UNL     1      19.165  32.192  14.916  1.00  0.00     0.150 C 
HETATM   10  C17 UNL     1      19.620  31.619  13.650  1.00  0.00     0.258 C 
HETATM   11  O2  UNL     1      20.576  32.203  13.109  1.00  0.00    -0.270 OA
HETATM   12  N3  UNL     1      19.218  30.485  12.831  1.00  0.00    -0.306 N 
HETATM   13  N6  UNL     1      19.478  33.533  15.231  1.00  0.00    -0.321 N 
HETATM   14  C31 UNL     1      18.375  34.055  16.055  1.00  0.00     0.256 C 
HETATM   15  O3  UNL     1      18.406  35.111  16.712  1.00  0.00    -0.267 OA
ENDROOT
BRANCH  12  16
HETATM   16  C18 UNL     1      20.025  30.164  11.713  1.00  0.00     0.133 C 
BRANCH  16  17
HETATM   17  C19 UNL     1      21.071  29.135  11.811  1.00  0.00     0.026 C 
BRANCH  17  18
HETATM   18  C20 UNL     1      22.376  29.421  11.055  1.00  0.00     0.060 C 
BRANCH  18  19
HETATM   19  C21 UNL     1      23.273  28.220  11.167  1.00  0.00     0.025 A 
HETATM   20  C22 UNL     1      24.622  28.181  11.093  1.00  0.00     0.113 A 
HETATM   21  N4  UNL     1      24.997  26.892  11.248  1.00  0.00    -0.360 N 
HETATM   22  C23 UNL     1      23.904  26.138  11.415  1.00  0.00     0.180 A 
ATOM     23  H4  UNL     1      25.958  26.549  11.240  1.00  0.00     0.166 HD
HETATM   24  N5  UNL     1      22.847  26.968  11.363  1.00  0.00    -0.355 N 
ATOM     25  H5  UNL     1      21.872  26.687  11.459  1.00  0.00     0.166 HD
ENDBRANCH  18  19
ENDBRANCH  17  18
ENDBRANCH  16  17
ENDBRANCH  12  16
BRANCH   1  26
HETATM   26  S1  UNL     1      17.920  28.221  12.224  1.00  0.00     0.147 S 
HETATM   27  O1  UNL     1      16.417  27.843  12.354  1.00  0.00    -0.222 OA
BRANCH  26  28
HETATM   28  N1  UNL     1      18.082  28.096  10.723  1.00  0.00    -0.340 N 
ATOM     29  H12 UNL     1      17.368  28.373  10.047  1.00  0.00     0.167 HD
ATOM     30  H11 UNL     1      18.994  27.702  10.494  1.00  0.00     0.167 HD
ENDBRANCH  26  28
BRANCH  26  31
HETATM   31  N2  UNL     1      18.658  26.852  13.036  1.00  0.00    -0.340 N 
ATOM     32  H22 UNL     1      19.538  26.901  13.549  1.00  0.00     0.167 HD
ATOM     33  H21 UNL     1      18.084  26.017  12.919  1.00  0.00     0.167 HD
ENDBRANCH  26  31
ENDBRANCH   1  26
BRANCH   9  34
HETATM   34  C10 UNL     1      19.864  31.234  15.939  1.00  0.00     0.085 C 
BRANCH  34  35
HETATM   35  C11 UNL     1      20.947  30.453  15.433  1.00  0.00    -0.055 A 
HETATM   36  C12 UNL     1      22.168  31.005  15.122  1.00  0.00     0.007 A 
HETATM   37  C13 UNL     1      23.244  30.299  14.641  1.00  0.00     0.001 A 
HETATM   38  C14 UNL     1      23.124  28.953  14.446  1.00  0.00     0.000 A 
HETATM   39  C15 UNL     1      21.919  28.348  14.742  1.00  0.00     0.001 A 
HETATM   40  C16 UNL     1      20.852  29.082  15.225  1.00  0.00     0.007 A 
ENDBRANCH  34  35
ENDBRANCH   9  34
BRANCH  13  41
HETATM   41  C24 UNL     1      20.633  34.415  14.972  1.00  0.00     0.166 C 
BRANCH  41  42
HETATM   42  C25 UNL     1      21.746  34.231  15.926  1.00  0.00    -0.040 A 
HETATM   43  C26 UNL     1      21.611  33.942  17.248  1.00  0.00     0.009 A 
HETATM   44  C27 UNL     1      22.673  33.776  18.132  1.00  0.00     0.001 A 
HETATM   45  C28 UNL     1      23.947  33.915  17.632  1.00  0.00     0.000 A 
HETATM   46  C29 UNL     1      24.161  34.207  16.307  1.00  0.00     0.001 A 
HETATM   47  C30 UNL     1      23.076  34.359  15.480  1.00  0.00     0.009 A 
ENDBRANCH  41  42
ENDBRANCH  13  41
TORSDOF 11
ENDMDL
MODEL 3
REMARK VINA RESULT: -8.710493960      2.435      5.452
REMARK  11 active torsions:
REMARK  status: ('A' for Active; 'I' for Inactive)
REMARK    1  A    between atoms: N1_1  and  S1_4 
REMARK    2  A    between atoms: S1_4  and  N2_5 
REMARK    3  A    between atoms: S1_4  and  C1_9 
REMARK    4  A    between atoms: C9_17  and  C10_18 
REMARK    5  A    between atoms: C10_18  and  C11_19 
REMARK    6  A    between atoms: N3_27  and  C18_28 
REMARK    7  A    between atoms: C18_28  and  C19_29 
REMARK    8  A    between atoms: C19_29  and  C20_30 
REMARK    9  A    between atoms: C20_30  and  C21_31 
REMARK   10  A    between atoms: N6_38  and  C24_39 
REMARK   11  A    between atoms: C24_39  and  C25_40 
ROOT
HETATM    1  C1  UNL     1      21.947  31.740  14.300  1.00  0.00     0.132 C 
HETATM    2  C2  UNL     1      23.078  30.987  14.369  1.00  0.00     0.054 C 
HETATM    3  C3  UNL     1      23.400  29.796  13.605  1.00  0.00    -0.023 A 
HETATM    4  C4  UNL     1      24.763  29.513  13.708  1.00  0.00     0.012 A 
HETATM    5  C5  UNL     1      25.301  28.410  13.046  1.00  0.00     0.002 A 
HETATM    6  C6  UNL     1      24.453  27.628  12.298  1.00  0.00     0.018 A 
HETATM    7  C7  UNL     1      23.081  27.906  12.186  1.00  0.00     0.042 A 
HETATM    8  C8  UNL     1      22.577  28.983  12.844  1.00  0.00     0.006 A 
HETATM    9  C9  UNL     1      21.110  28.984  12.668  1.00  0.00     0.150 C 
HETATM   10  C17 UNL     1      20.525  30.322  12.743  1.00  0.00     0.258 C 
HETATM   11  O2  UNL     1      19.540  30.519  12.008  1.00  0.00    -0.270 OA
HETATM   12  N3  UNL     1      20.818  31.532  13.496  1.00  0.00    -0.306 N 
HETATM   13  N6  UNL     1      20.865  28.174  11.537  1.00  0.00    -0.321 N 
HETATM   14  C31 UNL     1      22.053  27.326  11.344  1.00  0.00     0.256 C 
HETATM   15  O3  UNL     1      22.113  26.329  10.601  1.00  0.00    -0.267 OA
ENDROOT
BRANCH  12  16
HETATM   16  C18 UNL     1      19.902  32.607  13.393  1.00  0.00     0.133 C 
BRANCH  16  17
HETATM   17  C19 UNL     1      18.973  32.912  14.490  1.00  0.00     0.026 C 
BRANCH  17  18
HETATM   18  C20 UNL     1      17.562  33.357  14.080  1.00  0.00     0.060 C 
BRANCH  18  19
HETATM   19  C21 UNL     1      16.945  34.120  15.219  1.00  0.00     0.025 A 
HETATM   20  C22 UNL     1      16.925  33.787  16.529  1.00  0.00     0.113 A 
HETATM   21  N4  UNL     1      16.262  34.766  17.183  1.00  0.00    -0.360 N 
HETATM   22  C23 UNL     1      15.874  35.694  16.300  1.00  0.00     0.180 A 
ATOM     23  H4  UNL     1      16.087  34.794  18.188  1.00  0.00     0.166 HD
HETATM   24  N5  UNL     1      16.301  35.285  15.093  1.00  0.00    -0.355 N 
ATOM     25  H5  UNL     1      16.156  35.785  14.216  1.00  0.00     0.166 HD
ENDBRANCH  18  19
ENDBRANCH  17  18
ENDBRANCH  16  17
ENDBRANCH  12  16
BRANCH   1  26
HETATM   26  S1  UNL     1      21.990  33.043  15.373  1.00  0.00     0.147 S 
HETATM   27  O1  UNL     1      23.367  32.939  16.089  1.00  0.00    -0.222 OA
BRANCH  26  28
HETATM   28  N1  UNL     1      22.059  34.482  14.904  1.00  0.00    -0.340 N 
ATOM     29  H12 UNL     1      21.553  35.250  15.346  1.00  0.00     0.167 HD
ATOM     30  H11 UNL     1      22.676  34.565  14.097  1.00  0.00     0.167 HD
ENDBRANCH  26  28
BRANCH  26  31
HETATM   31  N2  UNL     1      20.911  32.897  16.748  1.00  0.00    -0.340 N 
ATOM     32  H22 UNL     1      19.974  33.297  16.781  1.00  0.00     0.167 HD
ATOM     33  H21 UNL     1      21.355  32.361  17.494  1.00  0.00     0.167 HD
ENDBRANCH  26  31
ENDBRANCH   1  26
BRANCH   9  34
HETATM   34  C10 UNL     1      20.481  28.317  13.938  1.00  0.00     0.085 C 
BRANCH  34  35
HETATM   35  C11 UNL     1      19.373  29.001  14.525  1.00  0.00    -0.055 A 
HETATM   36  C12 UNL     1      18.124  29.004  13.947  1.00  0.00     0.007 A 
HETATM   37  C13 UNL     1      17.023  29.636  14.472  1.00  0.00     0.001 A 
HETATM   38  C14 UNL     1      17.145  30.318  15.648  1.00  0.00     0.000 A 
HETATM   39  C15 UNL     1      18.376  30.346  16.271  1.00  0.00     0.001 A 
HETATM   40  C16 UNL     1      19.468  29.702  15.721  1.00  0.00     0.007 A 
ENDBRANCH  34  35
ENDBRANCH   9  34
BRANCH  13  41
HETATM   41  C24 UNL     1      19.716  27.982  10.629  1.00  0.00     0.166 C 
BRANCH  41  42
HETATM   42  C25 UNL     1      18.715  27.020  11.135  1.00  0.00    -0.040 A 
HETATM   43  C26 UNL     1      18.987  25.771  11.601  1.00  0.00     0.009 A 
HETATM   44  C27 UNL     1      18.029  24.878  12.069  1.00  0.00     0.001 A 
HETATM   45  C28 UNL     1      16.716  25.288  12.060  1.00  0.00     0.000 A 
HETATM   46  C29 UNL     1      16.365  26.536  11.604  1.00  0.00     0.001 A 
HETATM   47  C30 UNL     1      17.353  27.377  11.154  1.00  0.00     0.009 A 
ENDBRANCH  41  42
ENDBRANCH  13  41
TORSDOF 11
ENDMDL
MODEL 4
REMARK VINA RESULT: -8.454050810      2.888      8.548
REMARK  11 active torsions:
REMARK  status: ('A' for Active; 'I' for Inactive)
REMARK    1  A    between atoms: N1_1  and  S1_4 
REMARK    2  A    between atoms: S1_4  and  N2_5 
REMARK    3  A    between atoms: S1_4  and  C1_9 
REMARK    4  A    between atoms: C9_17  and  C10_18 
REMARK    5  A    between atoms: C10_18  and  C11_19 
REMARK    6  A    between atoms: N3_27  and  C18_28 
REMARK    7  A    between atoms: C18_28  and  C19_29 
REMARK    8  A    between atoms: C19_29  and  C20_30 
REMARK    9  A    between atoms: C20_30  and  C21_31 
REMARK   10  A    between atoms: N6_38  and  C24_39 
REMARK   11  A    between atoms: C24_39  and  C25_40 
ROOT
HETATM    1  C1  UNL     1      22.611  30.203  13.688  1.00  0.00     0.132 C 
HETATM    2  C2  UNL     1      23.158  31.448  13.668  1.00  0.00     0.054 C 
HETATM    3  C3  UNL     1      22.677  32.641  14.341  1.00  0.00    -0.023 A 
HETATM    4  C4  UNL     1      23.674  33.618  14.358  1.00  0.00     0.012 A 
HETATM    5  C5  UNL     1      23.434  34.852  14.962  1.00  0.00     0.002 A 
HETATM    6  C6  UNL     1      22.202  35.064  15.532  1.00  0.00     0.018 A 
HETATM    7  C7  UNL     1      21.193  34.087  15.522  1.00  0.00     0.042 A 
HETATM    8  C8  UNL     1      21.447  32.893  14.923  1.00  0.00     0.006 A 
HETATM    9  C9  UNL     1      20.202  32.098  14.939  1.00  0.00     0.150 C 
HETATM   10  C17 UNL     1      20.443  30.656  14.935  1.00  0.00     0.258 C 
HETATM   11  O2  UNL     1      19.622  29.973  15.574  1.00  0.00    -0.270 OA
HETATM   12  N3  UNL     1      21.444  29.783  14.341  1.00  0.00    -0.306 N 
HETATM   13  N6  UNL     1      19.400  32.672  15.951  1.00  0.00    -0.321 N 
HETATM   14  C31 UNL     1      19.906  34.035  16.186  1.00  0.00     0.256 C 
HETATM   15  O3  UNL     1      19.314  34.921  16.829  1.00  0.00    -0.267 OA
ENDROOT
BRANCH  12  16
HETATM   16  C18 UNL     1      21.244  28.385  14.451  1.00  0.00     0.133 C 
BRANCH  16  17
HETATM   17  C19 UNL     1      20.185  27.715  13.682  1.00  0.00     0.026 C 
BRANCH  17  18
HETATM   18  C20 UNL     1      20.637  26.952  12.429  1.00  0.00     0.060 C 
BRANCH  18  19
HETATM   19  C21 UNL     1      19.450  26.243  11.839  1.00  0.00     0.025 A 
HETATM   20  C22 UNL     1      19.220  25.947  10.541  1.00  0.00     0.113 A 
HETATM   21  N4  UNL     1      18.031  25.306  10.478  1.00  0.00    -0.360 N 
HETATM   22  C23 UNL     1      17.527  25.204  11.714  1.00  0.00     0.180 A 
ATOM     23  H4  UNL     1      17.591  24.956   9.627  1.00  0.00     0.166 HD
HETATM   24  N5  UNL     1      18.411  25.784  12.544  1.00  0.00    -0.355 N 
ATOM     25  H5  UNL     1      18.305  25.863  13.555  1.00  0.00     0.166 HD
ENDBRANCH  18  19
ENDBRANCH  17  18
ENDBRANCH  16  17
ENDBRANCH  12  16
BRANCH   1  26
HETATM   26  S1  UNL     1      23.500  29.108  12.762  1.00  0.00     0.147 S 
HETATM   27  O1  UNL     1      24.910  29.748  12.612  1.00  0.00    -0.222 OA
BRANCH  26  28
HETATM   28  N1  UNL     1      23.899  27.740  13.276  1.00  0.00    -0.340 N 
ATOM     29  H12 UNL     1      23.751  26.871  12.762  1.00  0.00     0.167 HD
ATOM     30  H11 UNL     1      24.330  27.817  14.197  1.00  0.00     0.167 HD
ENDBRANCH  26  28
BRANCH  26  31
HETATM   31  N2  UNL     1      23.020  29.013  11.077  1.00  0.00    -0.340 N 
ATOM     32  H22 UNL     1      23.554  28.524  10.360  1.00  0.00     0.167 HD
ATOM     33  H21 UNL     1      22.142  29.512  10.928  1.00  0.00     0.167 HD
ENDBRANCH  26  31
ENDBRANCH   1  26
BRANCH   9  34
HETATM   34  C10 UNL     1      19.505  32.284  13.548  1.00  0.00     0.085 C 
BRANCH  34  35
HETATM   35  C11 UNL     1      18.619  31.239  13.144  1.00  0.00    -0.055 A 
HETATM   36  C12 UNL     1      17.405  31.029  13.756  1.00  0.00     0.007 A 
HETATM   37  C13 UNL     1      16.512  30.047  13.402  1.00  0.00     0.001 A 
HETATM   38  C14 UNL     1      16.823  29.204  12.374  1.00  0.00     0.000 A 
HETATM   39  C15 UNL     1      18.029  29.372  11.724  1.00  0.00     0.001 A 
HETATM   40  C16 UNL     1      18.909  30.368  12.101  1.00  0.00     0.007 A 
ENDBRANCH  34  35
ENDBRANCH   9  34
BRANCH  13  41
HETATM   41  C24 UNL     1      18.210  32.229  16.706  1.00  0.00     0.166 C 
BRANCH  41  42
HETATM   42  C25 UNL     1      17.059  33.148  16.589  1.00  0.00    -0.040 A 
HETATM   43  C26 UNL     1      16.354  33.665  17.631  1.00  0.00     0.009 A 
HETATM   44  C27 UNL     1      15.268  34.525  17.500  1.00  0.00     0.001 A 
HETATM   45  C28 UNL     1      14.884  34.877  16.227  1.00  0.00     0.000 A 
HETATM   46  C29 UNL     1      15.549  34.395  15.126  1.00  0.00     0.001 A 
HETATM   47  C30 UNL     1      16.613  33.549  15.314  1.00  0.00     0.009 A 
ENDBRANCH  41  42
ENDBRANCH  13  41
TORSDOF 11
ENDMDL
MODEL 5
REMARK VINA RESULT: -8.395715031      1.306      1.708
REMARK  11 active torsions:
REMARK  status: ('A' for Active; 'I' for Inactive)
REMARK    1  A    between atoms: N1_1  and  S1_4 
REMARK    2  A    between atoms: S1_4  and  N2_5 
REMARK    3  A    between atoms: S1_4  and  C1_9 
REMARK    4  A    between atoms: C9_17  and  C10_18 
REMARK    5  A    between atoms: C10_18  and  C11_19 
REMARK    6  A    between atoms: N3_27  and  C18_28 
REMARK    7  A    between atoms: C18_28  and  C19_29 
REMARK    8  A    between atoms: C19_29  and  C20_30 
REMARK    9  A    between atoms: C20_30  and  C21_31 
REMARK   10  A    between atoms: N6_38  and  C24_39 
REMARK   11  A    between atoms: C24_39  and  C25_40 
ROOT
HETATM    1  C1  UNL     1      17.811  29.374  13.642  1.00  0.00     0.132 C 
HETATM    2  C2  UNL     1      17.105  29.021  12.534  1.00  0.00     0.054 C 
HETATM    3  C3  UNL     1      17.426  27.983  11.570  1.00  0.00    -0.023 A 
HETATM    4  C4  UNL     1      16.310  27.699  10.783  1.00  0.00     0.012 A 
HETATM    5  C5  UNL     1      16.386  26.723   9.788  1.00  0.00     0.002 A 
HETATM    6  C6  UNL     1      17.579  26.063   9.620  1.00  0.00     0.018 A 
HETATM    7  C7  UNL     1      18.707  26.341  10.409  1.00  0.00     0.042 A 
HETATM    8  C8  UNL     1      18.612  27.299  11.369  1.00  0.00     0.006 A 
HETATM    9  C9  UNL     1      19.950  27.484  11.967  1.00  0.00     0.150 C 
HETATM   10  C17 UNL     1      19.900  27.957  13.349  1.00  0.00     0.258 C 
HETATM   11  O2  UNL     1      20.803  27.534  14.095  1.00  0.00    -0.270 OA
HETATM   12  N3  UNL     1      19.022  28.840  14.102  1.00  0.00    -0.306 N 
HETATM   13  N6  UNL     1      20.670  26.308  11.655  1.00  0.00    -0.321 N 
HETATM   14  C31 UNL     1      19.990  25.673  10.513  1.00  0.00     0.256 C 
HETATM   15  O3  UNL     1      20.460  24.757   9.814  1.00  0.00    -0.267 OA
ENDROOT
BRANCH  12  16
HETATM   16  C18 UNL     1      19.403  29.173  15.425  1.00  0.00     0.133 C 
BRANCH  16  17
HETATM   17  C19 UNL     1      20.453  30.170  15.677  1.00  0.00     0.026 C 
BRANCH  17  18
HETATM   18  C20 UNL     1      19.994  31.496  16.299  1.00  0.00     0.060 C 
BRANCH  18  19
HETATM   19  C21 UNL     1      21.203  32.337  16.597  1.00  0.00     0.025 A 
HETATM   20  C22 UNL     1      21.354  33.668  16.423  1.00  0.00     0.113 A 
HETATM   21  N4  UNL     1      22.603  33.989  16.826  1.00  0.00    -0.360 N 
HETATM   22  C23 UNL     1      23.224  32.879  17.244  1.00  0.00     0.180 A 
ATOM     23  H4  UNL     1      23.008  34.926  16.814  1.00  0.00     0.166 HD
HETATM   24  N5  UNL     1      22.351  31.867  17.098  1.00  0.00    -0.355 N 
ATOM     25  H5  UNL     1      22.535  30.892  17.333  1.00  0.00     0.166 HD
ENDBRANCH  18  19
ENDBRANCH  17  18
ENDBRANCH  16  17
ENDBRANCH  12  16
BRANCH   1  26
HETATM   26  S1  UNL     1      17.073  30.639  14.482  1.00  0.00     0.147 S 
HETATM   27  O1  UNL     1      15.608  30.679  13.959  1.00  0.00    -0.222 OA
BRANCH  26  28
HETATM   28  N1  UNL     1      16.805  30.580  15.972  1.00  0.00    -0.340 N 
ATOM     29  H12 UNL     1      17.313  29.977  16.620  1.00  0.00     0.167 HD
ATOM     30  H11 UNL     1      16.055  31.223  16.225  1.00  0.00     0.167 HD
ENDBRANCH  26  28
BRANCH  26  31
HETATM   31  N2  UNL     1      17.614  32.241  14.019  1.00  0.00    -0.340 N 
ATOM     32  H22 UNL     1      18.453  32.688  14.390  1.00  0.00     0.167 HD
ATOM     33  H21 UNL     1      16.976  32.650  13.336  1.00  0.00     0.167 HD
ENDBRANCH  26  31
ENDBRANCH   1  26
BRANCH   9  34
HETATM   34  C10 UNL     1      20.618  28.712  11.260  1.00  0.00     0.085 C 
BRANCH  34  35
HETATM   35  C11 UNL     1      21.398  29.570  12.093  1.00  0.00    -0.055 A 
HETATM   36  C12 UNL     1      22.604  29.177  12.626  1.00  0.00     0.007 A 
HETATM   37  C13 UNL     1      23.398  29.964  13.425  1.00  0.00     0.001 A 
HETATM   38  C14 UNL     1      22.989  31.230  13.729  1.00  0.00     0.000 A 
HETATM   39  C15 UNL     1      21.786  31.676  13.219  1.00  0.00     0.001 A 
HETATM   40  C16 UNL     1      21.006  30.863  12.418  1.00  0.00     0.007 A 
ENDBRANCH  34  35
ENDBRANCH   9  34
BRANCH  13  41
HETATM   41  C24 UNL     1      21.906  25.684  12.165  1.00  0.00     0.166 C 
BRANCH  41  42
HETATM   42  C25 UNL     1      23.123  26.093  11.434  1.00  0.00    -0.040 A 
HETATM   43  C26 UNL     1      23.244  26.159  10.080  1.00  0.00     0.009 A 
HETATM   44  C27 UNL     1      24.401  26.542   9.409  1.00  0.00     0.001 A 
HETATM   45  C28 UNL     1      25.497  26.879  10.170  1.00  0.00     0.000 A 
HETATM   46  C29 UNL     1      25.449  26.836  11.542  1.00  0.00     0.001 A 
HETATM   47  C30 UNL     1      24.281  26.450  12.151  1.00  0.00     0.009 A 
ENDBRANCH  41  42
ENDBRANCH  13  41
TORSDOF 11
ENDMDL
