MODEL 1
REMARK VINA RESULT: -4.931227900      0.000      0.000
REMARK  11 active torsions:
REMARK  status: ('A' for Active; 'I' for Inactive)
REMARK    1  A    between atoms: C2_2  and  C3_3 
REMARK    2  A    between atoms: C3_3  and  C5_5 
REMARK    3  A    between atoms: C7_10  and  C8_11 
REMARK    4  A    between atoms: C8_11  and  C9_12 
REMARK    5  A    between atoms: C13_19  and  C14_20 
REMARK    6  A    between atoms: C14_20  and  C15_21 
REMARK    7  A    between atoms: C19_28  and  C20_29 
REMARK    8  A    between atoms: C20_29  and  C21_30 
REMARK    9  A    between atoms: C24_35  and  O4_36 
REMARK   10  A    between atoms: C25_38  and  C26_39 
REMARK   11  A    between atoms: C26_39  and  C28_41 
ROOT
HETATM    1  C5  UNL     1      17.853  26.853   8.788  1.00  0.00     0.180 C 
HETATM    2  N1  UNL     1      19.077  26.358   9.367  1.00  0.00    -0.346 N 
ATOM      3  H1  UNL     1      19.847  26.355   8.699  1.00  0.00     0.163 HD
HETATM    4  C6  UNL     1      19.455  25.889  10.602  1.00  0.00     0.241 C 
HETATM    5  O1  UNL     1      19.575  24.619  10.779  1.00  0.00    -0.271 OA
HETATM    6  C7  UNL     1      19.787  26.596  11.875  1.00  0.00     0.177 C 
HETATM    7  N2  UNL     1      21.189  26.314  12.233  1.00  0.00    -0.346 N 
ATOM      8  H2  UNL     1      21.422  26.441  13.218  1.00  0.00     0.163 HD
HETATM    9  C12 UNL     1      22.232  25.904  11.427  1.00  0.00     0.241 C 
HETATM   10  O2  UNL     1      22.902  24.860  11.769  1.00  0.00    -0.271 OA
HETATM   11  C13 UNL     1      22.730  26.515  10.154  1.00  0.00     0.177 C 
HETATM   12  N3  UNL     1      23.378  25.539   9.293  1.00  0.00    -0.346 N 
ATOM     13  H3  UNL     1      24.224  25.135   9.693  1.00  0.00     0.163 HD
HETATM   14  C18 UNL     1      23.069  25.054   8.040  1.00  0.00     0.241 C 
HETATM   15  O3  UNL     1      23.844  25.322   7.050  1.00  0.00    -0.271 OA
HETATM   16  C19 UNL     1      21.893  24.203   7.617  1.00  0.00     0.176 C 
HETATM   17  N4  UNL     1      21.393  24.652   6.361  1.00  0.00    -0.356 N 
ATOM     18  H4  UNL     1      22.104  24.650   5.630  1.00  0.00     0.162 HD
HETATM   19  C24 UNL     1      20.167  25.088   5.908  1.00  0.00     0.160 C 
HETATM   20  C25 UNL     1      18.769  24.747   6.177  1.00  0.00     0.068 C 
HETATM   21  N5  UNL     1      17.890  25.902   6.348  1.00  0.00    -0.320 N 
HETATM   22  C30 UNL     1      16.850  26.052   5.272  1.00  0.00     0.159 C 
HETATM   23  C31 UNL     1      17.854  26.891   7.308  1.00  0.00     0.247 C 
HETATM   24  O5  UNL     1      17.811  28.094   6.826  1.00  0.00    -0.271 OA
ENDROOT
BRANCH   1  25
HETATM   25  C3  UNL     1      17.617  28.190   9.449  1.00  0.00     0.013 C 
HETATM   26  C4  UNL     1      18.721  28.633  10.364  1.00  0.00     0.012 C 
BRANCH  25  27
HETATM   27  C2  UNL     1      16.251  28.453   9.958  1.00  0.00     0.002 C 
HETATM   28  C1  UNL     1      15.694  27.229  10.717  1.00  0.00     0.005 C 
ENDBRANCH  25  27
ENDBRANCH   1  25
BRANCH   6  29
HETATM   29  C8  UNL     1      18.833  26.105  12.941  1.00  0.00     0.038 C 
BRANCH  29  30
HETATM   30  C9  UNL     1      18.476  27.118  13.973  1.00  0.00    -0.020 C 
HETATM   31  C10 UNL     1      17.389  28.060  13.424  1.00  0.00     0.009 C 
HETATM   32  C11 UNL     1      19.632  28.009  14.360  1.00  0.00     0.009 C 
ENDBRANCH  29  30
ENDBRANCH   6  29
BRANCH  20  33
HETATM   33  C26 UNL     1      18.473  23.600   7.066  1.00  0.00     0.036 C 
HETATM   34  C27 UNL     1      16.938  23.538   7.215  1.00  0.00     0.016 C 
BRANCH  33  35
HETATM   35  C28 UNL     1      18.722  22.283   6.283  1.00  0.00     0.006 C 
HETATM   36  C29 UNL     1      17.613  21.296   6.544  1.00  0.00     0.006 C 
ENDBRANCH  33  35
ENDBRANCH  20  33
BRANCH  19  37
HETATM   37  O4  UNL     1      20.211  26.049   5.012  1.00  0.00    -0.345 OA
ATOM     38  H4  UNL     1      19.366  26.376   4.729  1.00  0.00     0.219 HD
ENDBRANCH  19  37
BRANCH  11  39
HETATM   39  C14 UNL     1      23.816  27.515  10.629  1.00  0.00     0.038 C 
BRANCH  39  40
HETATM   40  C15 UNL     1      23.428  28.334  11.793  1.00  0.00    -0.020 C 
HETATM   41  C16 UNL     1      24.741  28.930  12.346  1.00  0.00     0.009 C 
HETATM   42  C17 UNL     1      22.519  29.481  11.539  1.00  0.00     0.009 C 
ENDBRANCH  39  40
ENDBRANCH  11  39
BRANCH  16  43
HETATM   43  C20 UNL     1      22.333  22.804   7.782  1.00  0.00     0.038 C 
BRANCH  43  44
HETATM   44  C21 UNL     1      22.468  21.900   6.639  1.00  0.00    -0.020 C 
HETATM   45  C22 UNL     1      21.889  20.542   6.906  1.00  0.00     0.009 C 
HETATM   46  C23 UNL     1      23.971  21.666   6.377  1.00  0.00     0.009 C 
ENDBRANCH  43  44
ENDBRANCH  16  43
TORSDOF 11
ENDMDL
MODEL 2
REMARK VINA RESULT: -4.814595658      0.787      1.020
REMARK  11 active torsions:
REMARK  status: ('A' for Active; 'I' for Inactive)
REMARK    1  A    between atoms: C2_2  and  C3_3 
REMARK    2  A    between atoms: C3_3  and  C5_5 
REMARK    3  A    between atoms: C7_10  and  C8_11 
REMARK    4  A    between atoms: C8_11  and  C9_12 
REMARK    5  A    between atoms: C13_19  and  C14_20 
REMARK    6  A    between atoms: C14_20  and  C15_21 
REMARK    7  A    between atoms: C19_28  and  C20_29 
REMARK    8  A    between atoms: C20_29  and  C21_30 
REMARK    9  A    between atoms: C24_35  and  O4_36 
REMARK   10  A    between atoms: C25_38  and  C26_39 
REMARK   11  A    between atoms: C26_39  and  C28_41 
ROOT
HETATM    1  C5  UNL     1      18.168  26.436   8.572  1.00  0.00     0.180 C 
HETATM    2  N1  UNL     1      19.442  25.995   9.085  1.00  0.00    -0.346 N 
ATOM      3  H1  UNL     1      20.179  26.041   8.382  1.00  0.00     0.163 HD
HETATM    4  C6  UNL     1      19.901  25.528  10.293  1.00  0.00     0.241 C 
HETATM    5  O1  UNL     1      20.092  24.263  10.443  1.00  0.00    -0.271 OA
HETATM    6  C7  UNL     1      20.256  26.232  11.561  1.00  0.00     0.177 C 
HETATM    7  N2  UNL     1      21.686  26.017  11.848  1.00  0.00    -0.346 N 
ATOM      8  H2  UNL     1      21.959  26.141  12.824  1.00  0.00     0.163 HD
HETATM    9  C12 UNL     1      22.709  25.672  10.988  1.00  0.00     0.241 C 
HETATM   10  O2  UNL     1      23.446  24.659  11.282  1.00  0.00    -0.271 OA
HETATM   11  C13 UNL     1      23.116  26.325   9.704  1.00  0.00     0.177 C 
HETATM   12  N3  UNL     1      23.770  25.396   8.798  1.00  0.00    -0.346 N 
ATOM     13  H3  UNL     1      24.653  25.030   9.151  1.00  0.00     0.163 HD
HETATM   14  C18 UNL     1      23.427  24.914   7.552  1.00  0.00     0.241 C 
HETATM   15  O3  UNL     1      24.140  25.235   6.532  1.00  0.00    -0.271 OA
HETATM   16  C19 UNL     1      22.275  24.011   7.170  1.00  0.00     0.176 C 
HETATM   17  N4  UNL     1      21.695  24.452   5.946  1.00  0.00    -0.356 N 
ATOM     18  H4  UNL     1      22.371  24.497   5.184  1.00  0.00     0.162 HD
HETATM   19  C24 UNL     1      20.429  24.832   5.558  1.00  0.00     0.160 C 
HETATM   20  C25 UNL     1      19.064  24.417   5.886  1.00  0.00     0.068 C 
HETATM   21  N5  UNL     1      18.137  25.523   6.117  1.00  0.00    -0.320 N 
HETATM   22  C30 UNL     1      17.041  25.636   5.093  1.00  0.00     0.159 C 
HETATM   23  C31 UNL     1      18.097  26.495   7.094  1.00  0.00     0.247 C 
HETATM   24  O5  UNL     1      17.973  27.702   6.635  1.00  0.00    -0.271 OA
ENDROOT
BRANCH   1  25
HETATM   25  C3  UNL     1      17.898  27.750   9.265  1.00  0.00     0.013 C 
HETATM   26  C4  UNL     1      19.023  28.239  10.129  1.00  0.00     0.012 C 
BRANCH  25  27
HETATM   27  C2  UNL     1      16.548  27.933   9.848  1.00  0.00     0.002 C 
HETATM   28  C1  UNL     1      16.602  28.815  11.114  1.00  0.00     0.005 C 
ENDBRANCH  25  27
ENDBRANCH   1  25
BRANCH   6  29
HETATM   29  C8  UNL     1      19.379  25.679  12.662  1.00  0.00     0.038 C 
BRANCH  29  30
HETATM   30  C9  UNL     1      18.003  26.246  12.708  1.00  0.00    -0.020 C 
HETATM   31  C10 UNL     1      17.762  26.914  14.074  1.00  0.00     0.009 C 
HETATM   32  C11 UNL     1      16.922  25.203  12.566  1.00  0.00     0.009 C 
ENDBRANCH  29  30
ENDBRANCH   6  29
BRANCH  20  33
HETATM   33  C26 UNL     1      18.868  23.244   6.769  1.00  0.00     0.036 C 
HETATM   34  C27 UNL     1      17.345  23.080   6.957  1.00  0.00     0.016 C 
BRANCH  33  35
HETATM   35  C28 UNL     1      19.181  21.954   5.964  1.00  0.00     0.006 C 
HETATM   36  C29 UNL     1      18.475  20.769   6.569  1.00  0.00     0.006 C 
ENDBRANCH  33  35
ENDBRANCH  20  33
BRANCH  19  37
HETATM   37  O4  UNL     1      20.383  25.806   4.677  1.00  0.00    -0.345 OA
ATOM     38  H4  UNL     1      19.519  26.166   4.518  1.00  0.00     0.219 HD
ENDBRANCH  19  37
BRANCH  11  39
HETATM   39  C14 UNL     1      24.171  27.372  10.145  1.00  0.00     0.038 C 
BRANCH  39  40
HETATM   40  C15 UNL     1      23.764  28.210  11.288  1.00  0.00    -0.020 C 
HETATM   41  C16 UNL     1      25.047  28.922  11.769  1.00  0.00     0.009 C 
HETATM   42  C17 UNL     1      22.765  29.276  11.022  1.00  0.00     0.009 C 
ENDBRANCH  39  40
ENDBRANCH  11  39
BRANCH  16  43
HETATM   43  C20 UNL     1      22.793  22.634   7.291  1.00  0.00     0.038 C 
BRANCH  43  44
HETATM   44  C21 UNL     1      23.267  21.885   6.127  1.00  0.00    -0.020 C 
HETATM   45  C22 UNL     1      22.602  20.547   5.990  1.00  0.00     0.009 C 
HETATM   46  C23 UNL     1      24.769  21.584   6.320  1.00  0.00     0.009 C 
ENDBRANCH  43  44
ENDBRANCH  16  43
TORSDOF 11
ENDMDL
MODEL 3
REMARK VINA RESULT: -4.590547787     11.247     16.136
REMARK  11 active torsions:
REMARK  status: ('A' for Active; 'I' for Inactive)
REMARK    1  A    between atoms: C2_2  and  C3_3 
REMARK    2  A    between atoms: C3_3  and  C5_5 
REMARK    3  A    between atoms: C7_10  and  C8_11 
REMARK    4  A    between atoms: C8_11  and  C9_12 
REMARK    5  A    between atoms: C13_19  and  C14_20 
REMARK    6  A    between atoms: C14_20  and  C15_21 
REMARK    7  A    between atoms: C19_28  and  C20_29 
REMARK    8  A    between atoms: C20_29  and  C21_30 
REMARK    9  A    between atoms: C24_35  and  O4_36 
REMARK   10  A    between atoms: C25_38  and  C26_39 
REMARK   11  A    between atoms: C26_39  and  C28_41 
ROOT
HETATM    1  C5  UNL     1      21.930  37.387  16.108  1.00  0.00     0.180 C 
HETATM    2  N1  UNL     1      20.708  36.963  16.746  1.00  0.00    -0.346 N 
ATOM      3  H1  UNL     1      19.921  37.571  16.518  1.00  0.00     0.163 HD
HETATM    4  C6  UNL     1      20.348  35.937  17.586  1.00  0.00     0.241 C 
HETATM    5  O1  UNL     1      20.201  36.180  18.843  1.00  0.00    -0.271 OA
HETATM    6  C7  UNL     1      20.066  34.494  17.329  1.00  0.00     0.177 C 
HETATM    7  N2  UNL     1      18.666  34.203  17.690  1.00  0.00    -0.346 N 
ATOM      8  H2  UNL     1      18.460  33.224  17.888  1.00  0.00     0.163 HD
HETATM    9  C12 UNL     1      17.594  35.066  17.798  1.00  0.00     0.241 C 
HETATM   10  O2  UNL     1      16.906  35.062  18.885  1.00  0.00    -0.271 OA
HETATM   11  C13 UNL     1      17.080  36.054  16.797  1.00  0.00     0.177 C 
HETATM   12  N3  UNL     1      16.387  37.165  17.428  1.00  0.00    -0.346 N 
ATOM     13  H3  UNL     1      15.541  36.892  17.927  1.00  0.00     0.163 HD
HETATM   14  C18 UNL     1      16.653  38.517  17.482  1.00  0.00     0.241 C 
HETATM   15  O3  UNL     1      15.861  39.341  16.893  1.00  0.00    -0.271 OA
HETATM   16  C19 UNL     1      17.797  39.231  18.166  1.00  0.00     0.176 C 
HETATM   17  N4  UNL     1      18.277  40.287  17.340  1.00  0.00    -0.356 N 
ATOM     18  H4  UNL     1      17.548  40.955  17.092  1.00  0.00     0.162 HD
HETATM   19  C24 UNL     1      19.502  40.611  16.799  1.00  0.00     0.160 C 
HETATM   20  C25 UNL     1      20.897  40.512  17.231  1.00  0.00     0.068 C 
HETATM   21  N5  UNL     1      21.809  40.001  16.210  1.00  0.00    -0.320 N 
HETATM   22  C30 UNL     1      22.826  41.002  15.732  1.00  0.00     0.159 C 
HETATM   23  C31 UNL     1      21.893  38.773  15.589  1.00  0.00     0.247 C 
HETATM   24  O5  UNL     1      21.954  38.837  14.295  1.00  0.00    -0.271 OA
ENDROOT
BRANCH   1  25
HETATM   25  C3  UNL     1      22.215  36.334  15.064  1.00  0.00     0.013 C 
HETATM   26  C4  UNL     1      21.052  35.437  14.754  1.00  0.00     0.012 C 
BRANCH  25  27
HETATM   27  C2  UNL     1      23.521  35.643  15.151  1.00  0.00     0.002 C 
HETATM   28  C1  UNL     1      23.511  34.325  14.346  1.00  0.00     0.005 C 
ENDBRANCH  25  27
ENDBRANCH   1  25
BRANCH   6  29
HETATM   29  C8  UNL     1      21.033  33.676  18.155  1.00  0.00     0.038 C 
BRANCH  29  30
HETATM   30  C9  UNL     1      22.391  33.527  17.562  1.00  0.00    -0.020 C 
HETATM   31  C10 UNL     1      22.678  32.040  17.287  1.00  0.00     0.009 C 
HETATM   32  C11 UNL     1      23.496  33.997  18.476  1.00  0.00     0.009 C 
ENDBRANCH  29  30
ENDBRANCH   6  29
BRANCH  20  33
HETATM   33  C26 UNL     1      21.186  40.055  18.610  1.00  0.00     0.036 C 
HETATM   34  C27 UNL     1      22.722  40.025  18.755  1.00  0.00     0.016 C 
BRANCH  33  35
HETATM   35  C28 UNL     1      20.844  41.201  19.599  1.00  0.00     0.006 C 
HETATM   36  C29 UNL     1      21.886  42.287  19.530  1.00  0.00     0.006 C 
ENDBRANCH  33  35
ENDBRANCH  20  33
BRANCH  19  37
HETATM   37  O4  UNL     1      19.460  41.143  15.598  1.00  0.00    -0.345 OA
ATOM     38  H4  UNL     1      19.574  40.531  14.881  1.00  0.00     0.219 HD
ENDBRANCH  19  37
BRANCH  11  39
HETATM   39  C14 UNL     1      16.032  35.245  15.990  1.00  0.00     0.038 C 
BRANCH  39  40
HETATM   40  C15 UNL     1      16.469  33.892  15.599  1.00  0.00    -0.020 C 
HETATM   41  C16 UNL     1      15.192  33.025  15.575  1.00  0.00     0.009 C 
HETATM   42  C17 UNL     1      17.102  33.747  14.263  1.00  0.00     0.009 C 
ENDBRANCH  39  40
ENDBRANCH  11  39
BRANCH  16  43
HETATM   43  C20 UNL     1      17.325  39.517  19.535  1.00  0.00     0.038 C 
BRANCH  43  44
HETATM   44  C21 UNL     1      17.146  40.888  20.017  1.00  0.00    -0.020 C 
HETATM   45  C22 UNL     1      17.486  41.039  21.470  1.00  0.00     0.009 C 
HETATM   46  C23 UNL     1      15.651  41.253  19.900  1.00  0.00     0.009 C 
ENDBRANCH  43  44
ENDBRANCH  16  43
TORSDOF 11
ENDMDL
MODEL 4
REMARK VINA RESULT: -4.106489158     11.354     15.727
REMARK  11 active torsions:
REMARK  status: ('A' for Active; 'I' for Inactive)
REMARK    1  A    between atoms: C2_2  and  C3_3 
REMARK    2  A    between atoms: C3_3  and  C5_5 
REMARK    3  A    between atoms: C7_10  and  C8_11 
REMARK    4  A    between atoms: C8_11  and  C9_12 
REMARK    5  A    between atoms: C13_19  and  C14_20 
REMARK    6  A    between atoms: C14_20  and  C15_21 
REMARK    7  A    between atoms: C19_28  and  C20_29 
REMARK    8  A    between atoms: C20_29  and  C21_30 
REMARK    9  A    between atoms: C24_35  and  O4_36 
REMARK   10  A    between atoms: C25_38  and  C26_39 
REMARK   11  A    between atoms: C26_39  and  C28_41 
ROOT
HETATM    1  C5  UNL     1      22.715  38.050  17.241  1.00  0.00     0.180 C 
HETATM    2  N1  UNL     1      21.324  38.406  17.108  1.00  0.00    -0.346 N 
ATOM      3  H1  UNL     1      20.718  37.824  17.686  1.00  0.00     0.163 HD
HETATM    4  C6  UNL     1      20.618  39.342  16.390  1.00  0.00     0.241 C 
HETATM    5  O1  UNL     1      19.994  38.973  15.325  1.00  0.00    -0.271 OA
HETATM    6  C7  UNL     1      20.403  40.804  16.605  1.00  0.00     0.177 C 
HETATM    7  N2  UNL     1      18.964  41.055  16.807  1.00  0.00    -0.346 N 
ATOM      8  H2  UNL     1      18.657  42.009  16.618  1.00  0.00     0.163 HD
HETATM    9  C12 UNL     1      17.974  40.186  17.216  1.00  0.00     0.241 C 
HETATM   10  O2  UNL     1      16.911  40.080  16.499  1.00  0.00    -0.271 OA
HETATM   11  C13 UNL     1      17.940  39.303  18.426  1.00  0.00     0.177 C 
HETATM   12  N3  UNL     1      17.100  38.134  18.230  1.00  0.00    -0.346 N 
ATOM     13  H3  UNL     1      16.115  38.354  18.087  1.00  0.00     0.163 HD
HETATM   14  C18 UNL     1      17.378  36.784  18.199  1.00  0.00     0.241 C 
HETATM   15  O3  UNL     1      16.919  36.022  19.128  1.00  0.00    -0.271 OA
HETATM   16  C19 UNL     1      18.184  36.005  17.184  1.00  0.00     0.176 C 
HETATM   17  N4  UNL     1      18.996  35.038  17.844  1.00  0.00    -0.356 N 
ATOM     18  H4  UNL     1      18.453  34.398  18.423  1.00  0.00     0.162 HD
HETATM   19  C24 UNL     1      20.347  34.771  17.878  1.00  0.00     0.160 C 
HETATM   20  C25 UNL     1      21.450  34.827  16.917  1.00  0.00     0.068 C 
HETATM   21  N5  UNL     1      22.671  35.438  17.438  1.00  0.00    -0.320 N 
HETATM   22  C30 UNL     1      23.834  34.492  17.559  1.00  0.00     0.159 C 
HETATM   23  C31 UNL     1      22.944  36.723  17.857  1.00  0.00     0.247 C 
HETATM   24  O5  UNL     1      23.517  36.790  19.019  1.00  0.00    -0.271 OA
ENDROOT
BRANCH   1  25
HETATM   25  C3  UNL     1      23.348  39.203  17.983  1.00  0.00     0.013 C 
HETATM   26  C4  UNL     1      22.394  39.997  18.825  1.00  0.00     0.012 C 
BRANCH  25  27
HETATM   27  C2  UNL     1      24.335  40.016  17.236  1.00  0.00     0.002 C 
HETATM   28  C1  UNL     1      25.272  40.779  18.198  1.00  0.00     0.005 C 
ENDBRANCH  25  27
ENDBRANCH   1  25
BRANCH   6  29
HETATM   29  C8  UNL     1      20.928  41.535  15.389  1.00  0.00     0.038 C 
BRANCH  29  30
HETATM   30  C9  UNL     1      22.283  41.109  14.942  1.00  0.00    -0.020 C 
HETATM   31  C10 UNL     1      23.266  42.287  15.068  1.00  0.00     0.009 C 
HETATM   32  C11 UNL     1      22.330  40.690  13.492  1.00  0.00     0.009 C 
ENDBRANCH  29  30
ENDBRANCH   6  29
BRANCH  20  33
HETATM   33  C26 UNL     1      21.148  35.143  15.502  1.00  0.00     0.036 C 
HETATM   34  C27 UNL     1      22.503  35.235  14.769  1.00  0.00     0.016 C 
BRANCH  33  35
HETATM   35  C28 UNL     1      20.560  33.877  14.821  1.00  0.00     0.006 C 
HETATM   36  C29 UNL     1      21.567  32.757  14.828  1.00  0.00     0.006 C 
ENDBRANCH  33  35
ENDBRANCH  20  33
BRANCH  19  37
HETATM   37  O4  UNL     1      20.806  34.363  19.039  1.00  0.00    -0.345 OA
ATOM     38  H4  UNL     1      21.165  35.045  19.594  1.00  0.00     0.219 HD
ENDBRANCH  19  37
BRANCH  11  39
HETATM   39  C14 UNL     1      17.267  40.189  19.506  1.00  0.00     0.038 C 
BRANCH  39  40
HETATM   40  C15 UNL     1      15.952  39.705  19.965  1.00  0.00    -0.020 C 
HETATM   41  C16 UNL     1      15.963  39.846  21.503  1.00  0.00     0.009 C 
HETATM   42  C17 UNL     1      14.755  40.442  19.483  1.00  0.00     0.009 C 
ENDBRANCH  39  40
ENDBRANCH  11  39
BRANCH  16  43
HETATM   43  C20 UNL     1      17.219  35.581  16.150  1.00  0.00     0.038 C 
BRANCH  43  44
HETATM   44  C21 UNL     1      16.859  34.175  15.963  1.00  0.00    -0.020 C 
HETATM   45  C22 UNL     1      16.928  33.748  14.526  1.00  0.00     0.009 C 
HETATM   46  C23 UNL     1      15.385  33.990  16.382  1.00  0.00     0.009 C 
ENDBRANCH  43  44
ENDBRANCH  16  43
TORSDOF 11
ENDMDL
MODEL 5
REMARK VINA RESULT: -4.034665788     11.792     16.630
REMARK  11 active torsions:
REMARK  status: ('A' for Active; 'I' for Inactive)
REMARK    1  A    between atoms: C2_2  and  C3_3 
REMARK    2  A    between atoms: C3_3  and  C5_5 
REMARK    3  A    between atoms: C7_10  and  C8_11 
REMARK    4  A    between atoms: C8_11  and  C9_12 
REMARK    5  A    between atoms: C13_19  and  C14_20 
REMARK    6  A    between atoms: C14_20  and  C15_21 
REMARK    7  A    between atoms: C19_28  and  C20_29 
REMARK    8  A    between atoms: C20_29  and  C21_30 
REMARK    9  A    between atoms: C24_35  and  O4_36 
REMARK   10  A    between atoms: C25_38  and  C26_39 
REMARK   11  A    between atoms: C26_39  and  C28_41 
ROOT
HETATM    1  C5  UNL     1      21.609  38.567  16.234  1.00  0.00     0.180 C 
HETATM    2  N1  UNL     1      20.477  37.880  16.805  1.00  0.00    -0.346 N 
ATOM      3  H1  UNL     1      19.607  38.397  16.678  1.00  0.00     0.163 HD
HETATM    4  C6  UNL     1      20.288  36.698  17.479  1.00  0.00     0.241 C 
HETATM    5  O1  UNL     1      20.142  36.723  18.758  1.00  0.00    -0.271 OA
HETATM    6  C7  UNL     1      20.204  35.285  17.003  1.00  0.00     0.177 C 
HETATM    7  N2  UNL     1      18.870  34.746  17.322  1.00  0.00    -0.346 N 
ATOM      8  H2  UNL     1      18.809  33.729  17.368  1.00  0.00     0.163 HD
HETATM    9  C12 UNL     1      17.690  35.420  17.567  1.00  0.00     0.241 C 
HETATM   10  O2  UNL     1      17.040  35.152  18.644  1.00  0.00    -0.271 OA
HETATM   11  C13 UNL     1      17.015  36.465  16.734  1.00  0.00     0.177 C 
HETATM   12  N3  UNL     1      16.191  37.356  17.532  1.00  0.00    -0.346 N 
ATOM     13  H3  UNL     1      15.405  36.893  17.987  1.00  0.00     0.163 HD
HETATM   14  C18 UNL     1      16.265  38.708  17.792  1.00  0.00     0.241 C 
HETATM   15  O3  UNL     1      15.350  39.491  17.342  1.00  0.00    -0.271 OA
HETATM   16  C19 UNL     1      17.316  39.466  18.573  1.00  0.00     0.176 C 
HETATM   17  N4  UNL     1      17.620  40.693  17.917  1.00  0.00    -0.356 N 
ATOM     18  H4  UNL     1      16.798  41.280  17.779  1.00  0.00     0.162 HD
HETATM   19  C24 UNL     1      18.772  41.268  17.426  1.00  0.00     0.160 C 
HETATM   20  C25 UNL     1      20.179  41.304  17.831  1.00  0.00     0.068 C 
HETATM   21  N5  UNL     1      21.125  41.091  16.738  1.00  0.00    -0.320 N 
HETATM   22  C30 UNL     1      21.978  42.287  16.416  1.00  0.00     0.159 C 
HETATM   23  C31 UNL     1      21.364  39.996  15.935  1.00  0.00     0.247 C 
HETATM   24  O5  UNL     1      21.381  40.264  14.666  1.00  0.00    -0.271 OA
ENDROOT
BRANCH   1  25
HETATM   25  C3  UNL     1      22.011  37.737  15.038  1.00  0.00     0.013 C 
HETATM   26  C4  UNL     1      21.665  38.349  13.713  1.00  0.00     0.012 C 
BRANCH  25  27
HETATM   27  C2  UNL     1      21.769  36.278  15.126  1.00  0.00     0.002 C 
HETATM   28  C1  UNL     1      22.925  35.481  14.482  1.00  0.00     0.005 C 
ENDBRANCH  25  27
ENDBRANCH   1  25
BRANCH   6  29
HETATM   29  C8  UNL     1      21.299  34.498  17.688  1.00  0.00     0.038 C 
BRANCH  29  30
HETATM   30  C9  UNL     1      21.504  33.122  17.157  1.00  0.00    -0.020 C 
HETATM   31  C10 UNL     1      23.011  32.841  17.010  1.00  0.00     0.009 C 
HETATM   32  C11 UNL     1      20.913  32.918  15.783  1.00  0.00     0.009 C 
ENDBRANCH  29  30
ENDBRANCH   6  29
BRANCH  20  33
HETATM   33  C26 UNL     1      20.566  40.689  19.121  1.00  0.00     0.036 C 
HETATM   34  C27 UNL     1      22.081  40.928  19.290  1.00  0.00     0.016 C 
BRANCH  33  35
HETATM   35  C28 UNL     1      20.023  41.570  20.279  1.00  0.00     0.006 C 
HETATM   36  C29 UNL     1      20.970  41.545  21.451  1.00  0.00     0.006 C 
ENDBRANCH  33  35
ENDBRANCH  20  33
BRANCH  19  37
HETATM   37  O4  UNL     1      18.623  41.964  16.322  1.00  0.00    -0.345 OA
ATOM     38  H4  UNL     1      18.024  41.591  15.687  1.00  0.00     0.219 HD
ENDBRANCH  19  37
BRANCH  11  39
HETATM   39  C14 UNL     1      16.070  35.646  15.817  1.00  0.00     0.038 C 
BRANCH  39  40
HETATM   40  C15 UNL     1      16.489  34.250  15.593  1.00  0.00    -0.020 C 
HETATM   41  C16 UNL     1      15.215  33.394  15.764  1.00  0.00     0.009 C 
HETATM   42  C17 UNL     1      17.044  33.917  14.257  1.00  0.00     0.009 C 
ENDBRANCH  39  40
ENDBRANCH  11  39
BRANCH  16  43
HETATM   43  C20 UNL     1      16.846  39.471  19.972  1.00  0.00     0.038 C 
BRANCH  43  44
HETATM   44  C21 UNL     1      16.224  40.652  20.572  1.00  0.00    -0.020 C 
HETATM   45  C22 UNL     1      16.754  40.951  21.943  1.00  0.00     0.009 C 
HETATM   46  C23 UNL     1      14.719  40.367  20.761  1.00  0.00     0.009 C 
ENDBRANCH  43  44
ENDBRANCH  16  43
TORSDOF 11
ENDMDL
