MODEL 1
REMARK VINA RESULT: -7.345763595      0.000      0.000
REMARK  14 active torsions:
REMARK  status: ('A' for Active; 'I' for Inactive)
REMARK    1  A    between atoms: C2_2  and  C3_3 
REMARK    2  A    between atoms: C4_8  and  C5_9 
REMARK    3  A    between atoms: C8_12  and  C9_13 
REMARK    4  A    between atoms: C9_13  and  C10_14 
REMARK    5  A    between atoms: C11_17  and  O1_18 
REMARK    6  A    between atoms: C12_20  and  C13_21 
REMARK    7  A    between atoms: C17_26  and  O2_27 
REMARK    8  A    between atoms: C18_29  and  C19_30 
REMARK    9  A    between atoms: C19_30  and  C20_31 
REMARK   10  A    between atoms: C20_31  and  C21_32 
REMARK   11  A    between atoms: C21_32  and  N5_33 
REMARK   12  A    between atoms: C24_44  and  O3_45 
REMARK   13  A    between atoms: C25_47  and  C26_48 
REMARK   14  A    between atoms: C26_48  and  C27_49 
ROOT
HETATM    1  C10 UNL     1       4.992  -7.193  17.095  1.00  0.00     0.180 C 
HETATM    2  N3  UNL     1       3.806  -7.830  17.568  1.00  0.00    -0.359 N 
ATOM      3  H3  UNL     1       2.997  -7.590  16.996  1.00  0.00     0.162 HD
HETATM    4  C11 UNL     1       3.464  -8.683  18.591  1.00  0.00     0.136 C 
HETATM    5  C12 UNL     1       3.725 -10.090  18.963  1.00  0.00     0.163 C 
HETATM    6  N4  UNL     1       4.438 -10.918  18.065  1.00  0.00    -0.355 N 
HETATM    7  C16 UNL     1       4.047 -10.678  16.643  1.00  0.00     0.152 C 
HETATM    8  C17 UNL     1       5.402 -11.905  18.258  1.00  0.00     0.137 C 
HETATM    9  C18 UNL     1       6.388 -12.295  19.238  1.00  0.00     0.158 C 
HETATM   10  N8  UNL     1       7.779 -12.101  18.778  1.00  0.00    -0.355 N 
ATOM     11  H8  UNL     1       8.500 -12.721  19.146  1.00  0.00     0.162 HD
HETATM   12  C23 UNL     1       8.166 -11.092  17.847  1.00  0.00     0.174 C 
HETATM   13  S1  UNL     1       9.378 -11.578  16.804  1.00  0.00    -0.041 SA
HETATM   14  N9  UNL     1       7.673  -9.782  17.660  1.00  0.00    -0.316 N 
ATOM     15  H9  UNL     1       7.186  -9.718  16.766  1.00  0.00     0.170 HD
HETATM   16  C24 UNL     1       7.642  -8.575  18.295  1.00  0.00     0.141 C 
HETATM   17  C25 UNL     1       8.253  -7.228  18.174  1.00  0.00     0.159 C 
HETATM   18  N10 UNL     1       7.163  -6.217  18.175  1.00  0.00    -0.347 N 
ATOM     19  H10 UNL     1       7.458  -5.241  18.221  1.00  0.00     0.163 HD
HETATM   20  C30 UNL     1       5.797  -6.436  18.124  1.00  0.00     0.241 C 
HETATM   21  O4  UNL     1       5.051  -5.956  19.043  1.00  0.00    -0.271 OA
ENDROOT
BRANCH   1  22
HETATM   22  C9  UNL     1       4.736  -6.099  16.059  1.00  0.00     0.077 C 
BRANCH  22  23
HETATM   23  C8  UNL     1       4.294  -4.804  16.526  1.00  0.00    -0.007 A 
HETATM   24  C3  UNL     1       3.047  -4.507  17.040  1.00  0.00     0.034 A 
HETATM   25  N1  UNL     1       3.078  -3.174  17.333  1.00  0.00    -0.304 N 
HETATM   26  N2  UNL     1       4.237  -2.670  17.031  1.00  0.00    -0.304 N 
ATOM     27  H1  UNL     1       2.301  -2.648  17.733  1.00  0.00     0.186 HD
HETATM   28  C4  UNL     1       5.030  -3.623  16.528  1.00  0.00     0.037 A 
ATOM     29  H2  UNL     1       4.503  -1.694  17.158  1.00  0.00     0.186 HD
BRANCH  24  30
HETATM   30  C2  UNL     1       1.845  -5.362  17.245  1.00  0.00     0.055 C 
HETATM   31  C1  UNL     1       1.043  -5.394  15.952  1.00  0.00     0.011 C 
ENDBRANCH  24  30
BRANCH  28  32
HETATM   32  C5  UNL     1       6.418  -3.381  16.038  1.00  0.00     0.029 C 
HETATM   33  C6  UNL     1       6.886  -1.991  16.470  1.00  0.00     0.016 C 
HETATM   34  C7  UNL     1       6.419  -3.510  14.546  1.00  0.00     0.016 C 
ENDBRANCH  28  32
ENDBRANCH  22  23
ENDBRANCH   1  22
BRANCH   4  35
HETATM   35  O1  UNL     1       2.699  -8.151  19.509  1.00  0.00    -0.348 OA
ATOM     36  H1  UNL     1       1.902  -8.635  19.687  1.00  0.00     0.219 HD
ENDBRANCH   4  35
BRANCH   5  37
HETATM   37  C13 UNL     1       2.377 -10.723  19.369  1.00  0.00     0.008 C 
HETATM   38  C14 UNL     1       2.483 -11.801  20.369  1.00  0.00     0.012 C 
HETATM   39  C15 UNL     1       1.549 -11.157  18.219  1.00  0.00     0.012 C 
ENDBRANCH   5  37
BRANCH  17  40
HETATM   40  C26 UNL     1       9.248  -7.011  17.115  1.00  0.00     0.037 C 
BRANCH  40  41
HETATM   41  C27 UNL     1       9.331  -5.585  16.695  1.00  0.00    -0.020 C 
HETATM   42  C28 UNL     1       9.835  -5.551  15.254  1.00  0.00     0.009 C 
HETATM   43  C29 UNL     1      10.382  -4.852  17.513  1.00  0.00     0.009 C 
ENDBRANCH  40  41
ENDBRANCH  17  40
BRANCH  16  44
HETATM   44  O3  UNL     1       6.871  -8.449  19.341  1.00  0.00    -0.348 OA
ATOM     45  H3  UNL     1       6.344  -7.662  19.417  1.00  0.00     0.219 HD
ENDBRANCH  16  44
BRANCH   8  46
HETATM   46  O2  UNL     1       5.434 -12.750  17.237  1.00  0.00    -0.348 OA
ATOM     47  H2  UNL     1       6.159 -12.557  16.653  1.00  0.00     0.219 HD
ENDBRANCH   8  46
BRANCH   9  48
HETATM   48  C19 UNL     1       6.233 -11.870  20.661  1.00  0.00     0.035 C 
BRANCH  48  49
HETATM   49  C20 UNL     1       7.578 -11.617  21.330  1.00  0.00     0.022 C 
BRANCH  49  50
HETATM   50  C21 UNL     1       7.609 -11.996  22.789  1.00  0.00     0.122 C 
BRANCH  50  51
HETATM   51  N5  UNL     1       7.869 -10.832  23.577  1.00  0.00    -0.367 N 
HETATM   52  C22 UNL     1       7.158 -10.378  24.542  1.00  0.00     0.196 C 
HETATM   53  N6  UNL     1       5.978 -11.057  24.918  1.00  0.00    -0.067 NA
HETATM   54  N7  UNL     1       7.502  -9.207  25.268  1.00  0.00    -0.067 NA
ATOM     55  H5  UNL     1       8.711 -10.305  23.346  1.00  0.00     0.161 HD
ENDBRANCH  50  51
ENDBRANCH  49  50
ENDBRANCH  48  49
ENDBRANCH   9  48
TORSDOF 14
ENDMDL
MODEL 2
REMARK VINA RESULT: -7.335591492      8.912     14.693
REMARK  14 active torsions:
REMARK  status: ('A' for Active; 'I' for Inactive)
REMARK    1  A    between atoms: C2_2  and  C3_3 
REMARK    2  A    between atoms: C4_8  and  C5_9 
REMARK    3  A    between atoms: C8_12  and  C9_13 
REMARK    4  A    between atoms: C9_13  and  C10_14 
REMARK    5  A    between atoms: C11_17  and  O1_18 
REMARK    6  A    between atoms: C12_20  and  C13_21 
REMARK    7  A    between atoms: C17_26  and  O2_27 
REMARK    8  A    between atoms: C18_29  and  C19_30 
REMARK    9  A    between atoms: C19_30  and  C20_31 
REMARK   10  A    between atoms: C20_31  and  C21_32 
REMARK   11  A    between atoms: C21_32  and  N5_33 
REMARK   12  A    between atoms: C24_44  and  O3_45 
REMARK   13  A    between atoms: C25_47  and  C26_48 
REMARK   14  A    between atoms: C26_48  and  C27_49 
ROOT
HETATM    1  C10 UNL     1       4.238   1.031  12.721  1.00  0.00     0.180 C 
HETATM    2  N3  UNL     1       3.011   1.401  12.093  1.00  0.00    -0.359 N 
ATOM      3  H3  UNL     1       2.271   1.557  12.778  1.00  0.00     0.162 HD
HETATM    4  C11 UNL     1       2.561   1.603  10.809  1.00  0.00     0.136 C 
HETATM    5  C12 UNL     1       2.790   2.578   9.721  1.00  0.00     0.163 C 
HETATM    6  N4  UNL     1       3.610   3.704   9.967  1.00  0.00    -0.355 N 
HETATM    7  C16 UNL     1       3.384   4.281  11.326  1.00  0.00     0.152 C 
HETATM    8  C17 UNL     1       4.555   4.368   9.189  1.00  0.00     0.137 C 
HETATM    9  C18 UNL     1       5.425   4.111   8.066  1.00  0.00     0.158 C 
HETATM   10  N8  UNL     1       6.858   4.094   8.427  1.00  0.00    -0.355 N 
ATOM     11  H8  UNL     1       7.537   4.373   7.720  1.00  0.00     0.162 HD
HETATM   12  C23 UNL     1       7.340   3.708   9.712  1.00  0.00     0.174 C 
HETATM   13  S1  UNL     1       8.669   4.587  10.216  1.00  0.00    -0.041 SA
HETATM   14  N9  UNL     1       6.860   2.734  10.615  1.00  0.00    -0.316 N 
ATOM     15  H9  UNL     1       6.479   3.187  11.445  1.00  0.00     0.170 HD
HETATM   16  C24 UNL     1       6.745   1.379  10.729  1.00  0.00     0.141 C 
HETATM   17  C25 UNL     1       7.353   0.262  11.494  1.00  0.00     0.159 C 
HETATM   18  N10 UNL     1       6.261  -0.518  12.134  1.00  0.00    -0.347 N 
ATOM     19  H10 UNL     1       6.540  -1.387  12.590  1.00  0.00     0.163 HD
HETATM   20  C30 UNL     1       4.912  -0.210  12.187  1.00  0.00     0.241 C 
HETATM   21  O4  UNL     1       4.061  -1.052  11.739  1.00  0.00    -0.271 OA
ENDROOT
BRANCH   1  22
HETATM   22  C9  UNL     1       4.094   0.672  14.200  1.00  0.00     0.077 C 
BRANCH  22  23
HETATM   23  C8  UNL     1       3.438  -0.570  14.543  1.00  0.00    -0.007 A 
HETATM   24  C3  UNL     1       2.081  -0.818  14.477  1.00  0.00     0.034 A 
HETATM   25  N1  UNL     1       1.921  -2.105  14.903  1.00  0.00    -0.304 N 
HETATM   26  N2  UNL     1       3.071  -2.626  15.213  1.00  0.00    -0.304 N 
ATOM     27  H1  UNL     1       1.026  -2.590  14.969  1.00  0.00     0.186 HD
HETATM   28  C4  UNL     1       4.044  -1.731  15.014  1.00  0.00     0.037 A 
ATOM     29  H2  UNL     1       3.211  -3.576  15.557  1.00  0.00     0.186 HD
BRANCH  24  30
HETATM   30  C2  UNL     1       0.944   0.057  14.078  1.00  0.00     0.055 C 
HETATM   31  C1  UNL     1      -0.170  -0.817  13.521  1.00  0.00     0.011 C 
ENDBRANCH  24  30
BRANCH  28  32
HETATM   32  C5  UNL     1       5.485  -1.984  15.309  1.00  0.00     0.029 C 
HETATM   33  C6  UNL     1       5.757  -3.488  15.315  1.00  0.00     0.016 C 
HETATM   34  C7  UNL     1       5.807  -1.372  16.638  1.00  0.00     0.016 C 
ENDBRANCH  28  32
ENDBRANCH  22  23
ENDBRANCH   1  22
BRANCH   4  35
HETATM   35  O1  UNL     1       1.691   0.720  10.394  1.00  0.00    -0.348 OA
ATOM     36  H1  UNL     1       1.987   0.187   9.665  1.00  0.00     0.219 HD
ENDBRANCH   4  35
BRANCH   5  37
HETATM   37  C13 UNL     1       1.411   2.991   9.167  1.00  0.00     0.008 C 
HETATM   38  C14 UNL     1       1.464   3.912   8.017  1.00  0.00     0.012 C 
HETATM   39  C15 UNL     1       0.478   3.498  10.201  1.00  0.00     0.012 C 
ENDBRANCH   5  37
BRANCH  17  40
HETATM   40  C26 UNL     1       8.462   0.571  12.407  1.00  0.00     0.037 C 
BRANCH  40  41
HETATM   41  C27 UNL     1       9.177  -0.652  12.868  1.00  0.00    -0.020 C 
HETATM   42  C28 UNL     1       8.885  -0.830  14.356  1.00  0.00     0.009 C 
HETATM   43  C29 UNL     1      10.681  -0.455  12.767  1.00  0.00     0.009 C 
ENDBRANCH  40  41
ENDBRANCH  17  40
BRANCH  16  44
HETATM   44  O3  UNL     1       5.857   0.772   9.989  1.00  0.00    -0.348 OA
ATOM     45  H3  UNL     1       6.023  -0.129   9.738  1.00  0.00     0.219 HD
ENDBRANCH  16  44
BRANCH   8  46
HETATM   46  O2  UNL     1       4.712   5.622   9.592  1.00  0.00    -0.348 OA
ATOM     47  H2  UNL     1       5.601   5.777   9.892  1.00  0.00     0.219 HD
ENDBRANCH   8  46
BRANCH   9  48
HETATM   48  C19 UNL     1       5.102   3.008   7.111  1.00  0.00     0.035 C 
BRANCH  48  49
HETATM   49  C20 UNL     1       4.471   3.533   5.827  1.00  0.00     0.022 C 
BRANCH  49  50
HETATM   50  C21 UNL     1       4.719   5.000   5.587  1.00  0.00     0.122 C 
BRANCH  50  51
HETATM   51  N5  UNL     1       3.468   5.679   5.460  1.00  0.00    -0.367 N 
HETATM   52  C22 UNL     1       3.068   6.694   6.133  1.00  0.00     0.196 C 
HETATM   53  N6  UNL     1       3.909   7.250   7.122  1.00  0.00    -0.067 NA
HETATM   54  N7  UNL     1       1.800   7.302   5.931  1.00  0.00    -0.067 NA
ATOM     55  H5  UNL     1       2.822   5.317   4.758  1.00  0.00     0.161 HD
ENDBRANCH  50  51
ENDBRANCH  49  50
ENDBRANCH  48  49
ENDBRANCH   9  48
TORSDOF 14
ENDMDL
MODEL 3
REMARK VINA RESULT: -7.255962519      1.145      1.489
REMARK  14 active torsions:
REMARK  status: ('A' for Active; 'I' for Inactive)
REMARK    1  A    between atoms: C2_2  and  C3_3 
REMARK    2  A    between atoms: C4_8  and  C5_9 
REMARK    3  A    between atoms: C8_12  and  C9_13 
REMARK    4  A    between atoms: C9_13  and  C10_14 
REMARK    5  A    between atoms: C11_17  and  O1_18 
REMARK    6  A    between atoms: C12_20  and  C13_21 
REMARK    7  A    between atoms: C17_26  and  O2_27 
REMARK    8  A    between atoms: C18_29  and  C19_30 
REMARK    9  A    between atoms: C19_30  and  C20_31 
REMARK   10  A    between atoms: C20_31  and  C21_32 
REMARK   11  A    between atoms: C21_32  and  N5_33 
REMARK   12  A    between atoms: C24_44  and  O3_45 
REMARK   13  A    between atoms: C25_47  and  C26_48 
REMARK   14  A    between atoms: C26_48  and  C27_49 
ROOT
HETATM    1  C10 UNL     1       4.947  -7.230  17.061  1.00  0.00     0.180 C 
HETATM    2  N3  UNL     1       3.747  -7.840  17.533  1.00  0.00    -0.359 N 
ATOM      3  H3  UNL     1       2.942  -7.572  16.966  1.00  0.00     0.162 HD
HETATM    4  C11 UNL     1       3.387  -8.694  18.549  1.00  0.00     0.136 C 
HETATM    5  C12 UNL     1       3.611 -10.112  18.905  1.00  0.00     0.163 C 
HETATM    6  N4  UNL     1       4.298 -10.949  17.995  1.00  0.00    -0.355 N 
HETATM    7  C16 UNL     1       3.908 -10.684  16.578  1.00  0.00     0.152 C 
HETATM    8  C17 UNL     1       5.237 -11.963  18.174  1.00  0.00     0.137 C 
HETATM    9  C18 UNL     1       6.216 -12.389  19.145  1.00  0.00     0.158 C 
HETATM   10  N8  UNL     1       7.610 -12.228  18.681  1.00  0.00    -0.355 N 
ATOM     11  H8  UNL     1       8.316 -12.870  19.039  1.00  0.00     0.162 HD
HETATM   12  C23 UNL     1       8.019 -11.220  17.759  1.00  0.00     0.174 C 
HETATM   13  S1  UNL     1       9.214 -11.727  16.706  1.00  0.00    -0.041 SA
HETATM   14  N9  UNL     1       7.561  -9.896  17.587  1.00  0.00    -0.316 N 
ATOM     15  H9  UNL     1       7.072  -9.809  16.696  1.00  0.00     0.170 HD
HETATM   16  C24 UNL     1       7.565  -8.695  18.235  1.00  0.00     0.141 C 
HETATM   17  C25 UNL     1       8.211  -7.363  18.124  1.00  0.00     0.159 C 
HETATM   18  N10 UNL     1       7.148  -6.323  18.141  1.00  0.00    -0.347 N 
ATOM     19  H10 UNL     1       7.469  -5.356  18.195  1.00  0.00     0.163 HD
HETATM   20  C30 UNL     1       5.777  -6.505  18.093  1.00  0.00     0.241 C 
HETATM   21  O4  UNL     1       5.048  -6.015  19.021  1.00  0.00    -0.271 OA
ENDROOT
BRANCH   1  22
HETATM   22  C9  UNL     1       4.717  -6.119  16.037  1.00  0.00     0.077 C 
BRANCH  22  23
HETATM   23  C8  UNL     1       4.283  -4.825  16.516  1.00  0.00    -0.007 A 
HETATM   24  C3  UNL     1       3.035  -4.524  17.026  1.00  0.00     0.034 A 
HETATM   25  N1  UNL     1       3.076  -3.195  17.335  1.00  0.00    -0.304 N 
HETATM   26  N2  UNL     1       4.241  -2.697  17.046  1.00  0.00    -0.304 N 
ATOM     27  H1  UNL     1       2.301  -2.667  17.737  1.00  0.00     0.186 HD
HETATM   28  C4  UNL     1       5.029  -3.651  16.537  1.00  0.00     0.037 A 
ATOM     29  H2  UNL     1       4.515  -1.725  17.186  1.00  0.00     0.186 HD
BRANCH  24  30
HETATM   30  C2  UNL     1       1.825  -5.370  17.215  1.00  0.00     0.055 C 
HETATM   31  C1  UNL     1       1.026  -5.373  15.920  1.00  0.00     0.011 C 
ENDBRANCH  24  30
BRANCH  28  32
HETATM   32  C5  UNL     1       6.422  -3.415  16.058  1.00  0.00     0.029 C 
HETATM   33  C6  UNL     1       6.886  -2.020  16.475  1.00  0.00     0.016 C 
HETATM   34  C7  UNL     1       6.438  -3.566  14.567  1.00  0.00     0.016 C 
ENDBRANCH  28  32
ENDBRANCH  22  23
ENDBRANCH   1  22
BRANCH   4  35
HETATM   35  O1  UNL     1       2.640  -8.151  19.475  1.00  0.00    -0.348 OA
ATOM     36  H1  UNL     1       1.706  -8.258  19.341  1.00  0.00     0.219 HD
ENDBRANCH   4  35
BRANCH   5  37
HETATM   37  C13 UNL     1       2.249 -10.712  19.311  1.00  0.00     0.008 C 
HETATM   38  C14 UNL     1       2.325 -11.758  20.347  1.00  0.00     0.012 C 
HETATM   39  C15 UNL     1       1.432 -11.173  18.163  1.00  0.00     0.012 C 
ENDBRANCH   5  37
BRANCH  17  40
HETATM   40  C26 UNL     1       9.207  -7.162  17.063  1.00  0.00     0.037 C 
BRANCH  40  41
HETATM   41  C27 UNL     1       9.334  -5.733  16.665  1.00  0.00    -0.020 C 
HETATM   42  C28 UNL     1       9.789  -5.693  15.208  1.00  0.00     0.009 C 
HETATM   43  C29 UNL     1      10.441  -5.058  17.458  1.00  0.00     0.009 C 
ENDBRANCH  40  41
ENDBRANCH  17  40
BRANCH  16  44
HETATM   44  O3  UNL     1       6.802  -8.559  19.285  1.00  0.00    -0.348 OA
ATOM     45  H3  UNL     1       6.798  -9.256  19.930  1.00  0.00     0.219 HD
ENDBRANCH  16  44
BRANCH   8  46
HETATM   46  O2  UNL     1       5.242 -12.798  17.145  1.00  0.00    -0.348 OA
ATOM     47  H2  UNL     1       4.551 -12.588  16.527  1.00  0.00     0.219 HD
ENDBRANCH   8  46
BRANCH   9  48
HETATM   48  C19 UNL     1       6.078 -11.975  20.574  1.00  0.00     0.035 C 
BRANCH  48  49
HETATM   49  C20 UNL     1       7.036 -12.736  21.482  1.00  0.00     0.022 C 
BRANCH  49  50
HETATM   50  C21 UNL     1       7.915 -11.842  22.319  1.00  0.00     0.122 C 
BRANCH  50  51
HETATM   51  N5  UNL     1       9.278 -12.013  21.926  1.00  0.00    -0.367 N 
HETATM   52  C22 UNL     1       9.959 -11.257  21.146  1.00  0.00     0.196 C 
HETATM   53  N6  UNL     1       9.353 -10.113  20.580  1.00  0.00    -0.067 NA
HETATM   54  N7  UNL     1      11.316 -11.514  20.815  1.00  0.00    -0.067 NA
ATOM     55  H5  UNL     1       9.763 -12.826  22.307  1.00  0.00     0.161 HD
ENDBRANCH  50  51
ENDBRANCH  49  50
ENDBRANCH  48  49
ENDBRANCH   9  48
TORSDOF 14
ENDMDL
MODEL 4
REMARK VINA RESULT: -7.000208276      8.523     12.473
REMARK  14 active torsions:
REMARK  status: ('A' for Active; 'I' for Inactive)
REMARK    1  A    between atoms: C2_2  and  C3_3 
REMARK    2  A    between atoms: C4_8  and  C5_9 
REMARK    3  A    between atoms: C8_12  and  C9_13 
REMARK    4  A    between atoms: C9_13  and  C10_14 
REMARK    5  A    between atoms: C11_17  and  O1_18 
REMARK    6  A    between atoms: C12_20  and  C13_21 
REMARK    7  A    between atoms: C17_26  and  O2_27 
REMARK    8  A    between atoms: C18_29  and  C19_30 
REMARK    9  A    between atoms: C19_30  and  C20_31 
REMARK   10  A    between atoms: C20_31  and  C21_32 
REMARK   11  A    between atoms: C21_32  and  N5_33 
REMARK   12  A    between atoms: C24_44  and  O3_45 
REMARK   13  A    between atoms: C25_47  and  C26_48 
REMARK   14  A    between atoms: C26_48  and  C27_49 
ROOT
HETATM    1  C10 UNL     1       4.165   3.024  10.111  1.00  0.00     0.180 C 
HETATM    2  N3  UNL     1       3.010   2.445  10.716  1.00  0.00    -0.359 N 
ATOM      3  H3  UNL     1       2.257   2.315  10.040  1.00  0.00     0.162 HD
HETATM    4  C11 UNL     1       2.642   2.015  11.969  1.00  0.00     0.136 C 
HETATM    5  C12 UNL     1       3.013   0.923  12.893  1.00  0.00     0.163 C 
HETATM    6  N4  UNL     1       3.924  -0.067  12.457  1.00  0.00    -0.355 N 
HETATM    7  C16 UNL     1       3.692  -0.463  11.036  1.00  0.00     0.152 C 
HETATM    8  C17 UNL     1       4.963  -0.738  13.099  1.00  0.00     0.137 C 
HETATM    9  C18 UNL     1       5.855  -0.559  14.219  1.00  0.00     0.158 C 
HETATM   10  N8  UNL     1       7.262  -0.345  13.819  1.00  0.00    -0.355 N 
ATOM     11  H8  UNL     1       7.997  -0.652  14.455  1.00  0.00     0.162 HD
HETATM   12  C23 UNL     1       7.645   0.270  12.590  1.00  0.00     0.174 C 
HETATM   13  S1  UNL     1       9.027  -0.388  11.920  1.00  0.00    -0.041 SA
HETATM   14  N9  UNL     1       7.033   1.310  11.857  1.00  0.00    -0.316 N 
ATOM     15  H9  UNL     1       6.659   0.945  10.982  1.00  0.00     0.170 HD
HETATM   16  C24 UNL     1       6.784   2.648  11.949  1.00  0.00     0.141 C 
HETATM   17  C25 UNL     1       7.246   3.919  11.338  1.00  0.00     0.159 C 
HETATM   18  N10 UNL     1       6.056   4.669  10.856  1.00  0.00    -0.347 N 
ATOM     19  H10 UNL     1       6.229   5.618  10.525  1.00  0.00     0.163 HD
HETATM   20  C30 UNL     1       4.742   4.237  10.801  1.00  0.00     0.241 C 
HETATM   21  O4  UNL     1       3.836   4.915  11.395  1.00  0.00    -0.271 OA
ENDROOT
BRANCH   1  22
HETATM   22  C9  UNL     1       3.919   3.576   8.707  1.00  0.00     0.077 C 
BRANCH  22  23
HETATM   23  C8  UNL     1       2.684   4.285   8.456  1.00  0.00    -0.007 A 
HETATM   24  C3  UNL     1       1.409   3.785   8.635  1.00  0.00     0.034 A 
HETATM   25  N1  UNL     1       0.565   4.791   8.264  1.00  0.00    -0.304 N 
HETATM   26  N2  UNL     1       1.241   5.833   7.882  1.00  0.00    -0.304 N 
ATOM     27  H1  UNL     1      -0.454   4.734   8.284  1.00  0.00     0.186 HD
HETATM   28  C4  UNL     1       2.552   5.584   7.976  1.00  0.00     0.037 A 
ATOM     29  H2  UNL     1       0.834   6.710   7.559  1.00  0.00     0.186 HD
BRANCH  24  30
HETATM   30  C2  UNL     1       0.937   2.449   9.094  1.00  0.00     0.055 C 
HETATM   31  C1  UNL     1      -0.346   2.634   9.891  1.00  0.00     0.011 C 
ENDBRANCH  24  30
BRANCH  28  32
HETATM   32  C5  UNL     1       3.616   6.550   7.578  1.00  0.00     0.029 C 
HETATM   33  C6  UNL     1       2.994   7.916   7.282  1.00  0.00     0.016 C 
HETATM   34  C7  UNL     1       4.319   6.006   6.372  1.00  0.00     0.016 C 
ENDBRANCH  28  32
ENDBRANCH  22  23
ENDBRANCH   1  22
BRANCH   4  35
HETATM   35  O1  UNL     1       1.711   2.737  12.538  1.00  0.00    -0.348 OA
ATOM     36  H1  UNL     1       1.502   2.479  13.428  1.00  0.00     0.219 HD
ENDBRANCH   4  35
BRANCH   5  37
HETATM   37  C13 UNL     1       1.706   0.296  13.424  1.00  0.00     0.008 C 
HETATM   38  C14 UNL     1       1.901  -0.827  14.359  1.00  0.00     0.012 C 
HETATM   39  C15 UNL     1       0.743  -0.071  12.360  1.00  0.00     0.012 C 
ENDBRANCH   5  37
BRANCH  17  40
HETATM   40  C26 UNL     1       8.336   3.860  10.355  1.00  0.00     0.037 C 
BRANCH  40  41
HETATM   41  C27 UNL     1       7.862   4.103   8.964  1.00  0.00    -0.020 C 
HETATM   42  C28 UNL     1       7.631   2.745   8.306  1.00  0.00     0.009 C 
HETATM   43  C29 UNL     1       8.950   4.776   8.144  1.00  0.00     0.009 C 
ENDBRANCH  40  41
ENDBRANCH  17  40
BRANCH  16  44
HETATM   44  O3  UNL     1       5.877   3.050  12.798  1.00  0.00    -0.348 OA
ATOM     45  H3  UNL     1       5.786   3.983  12.950  1.00  0.00     0.219 HD
ENDBRANCH  16  44
BRANCH   8  46
HETATM   46  O2  UNL     1       5.221  -1.898  12.510  1.00  0.00    -0.348 OA
ATOM     47  H2  UNL     1       5.022  -2.628  13.086  1.00  0.00     0.219 HD
ENDBRANCH   8  46
BRANCH   9  48
HETATM   48  C19 UNL     1       5.474   0.357  15.336  1.00  0.00     0.035 C 
BRANCH  48  49
HETATM   49  C20 UNL     1       5.279  -0.395  16.647  1.00  0.00     0.022 C 
BRANCH  49  50
HETATM   50  C21 UNL     1       5.505  -1.880  16.532  1.00  0.00     0.122 C 
BRANCH  50  51
HETATM   51  N5  UNL     1       4.296  -2.572  16.851  1.00  0.00    -0.367 N 
HETATM   52  C22 UNL     1       3.691  -3.443  16.131  1.00  0.00     0.196 C 
HETATM   53  N6  UNL     1       4.227  -3.803  14.875  1.00  0.00    -0.067 NA
HETATM   54  N7  UNL     1       2.488  -4.078  16.539  1.00  0.00    -0.067 NA
ATOM     55  H5  UNL     1       3.867  -2.348  17.749  1.00  0.00     0.161 HD
ENDBRANCH  50  51
ENDBRANCH  49  50
ENDBRANCH  48  49
ENDBRANCH   9  48
TORSDOF 14
ENDMDL
MODEL 5
REMARK VINA RESULT: -6.904345265      9.262     13.394
REMARK  14 active torsions:
REMARK  status: ('A' for Active; 'I' for Inactive)
REMARK    1  A    between atoms: C2_2  and  C3_3 
REMARK    2  A    between atoms: C4_8  and  C5_9 
REMARK    3  A    between atoms: C8_12  and  C9_13 
REMARK    4  A    between atoms: C9_13  and  C10_14 
REMARK    5  A    between atoms: C11_17  and  O1_18 
REMARK    6  A    between atoms: C12_20  and  C13_21 
REMARK    7  A    between atoms: C17_26  and  O2_27 
REMARK    8  A    between atoms: C18_29  and  C19_30 
REMARK    9  A    between atoms: C19_30  and  C20_31 
REMARK   10  A    between atoms: C20_31  and  C21_32 
REMARK   11  A    between atoms: C21_32  and  N5_33 
REMARK   12  A    between atoms: C24_44  and  O3_45 
REMARK   13  A    between atoms: C25_47  and  C26_48 
REMARK   14  A    between atoms: C26_48  and  C27_49 
ROOT
HETATM    1  C10 UNL     1       2.462   3.204   9.457  1.00  0.00     0.180 C 
HETATM    2  N3  UNL     1       1.463   2.552  10.240  1.00  0.00    -0.359 N 
ATOM      3  H3  UNL     1       0.653   2.295   9.676  1.00  0.00     0.162 HD
HETATM    4  C11 UNL     1       1.303   2.177  11.553  1.00  0.00     0.136 C 
HETATM    5  C12 UNL     1       1.907   1.198  12.483  1.00  0.00     0.163 C 
HETATM    6  N4  UNL     1       2.864   0.281  11.990  1.00  0.00    -0.355 N 
HETATM    7  C16 UNL     1       2.506  -0.237  10.636  1.00  0.00     0.152 C 
HETATM    8  C17 UNL     1       4.043  -0.228  12.529  1.00  0.00     0.137 C 
HETATM    9  C18 UNL     1       5.040   0.124  13.512  1.00  0.00     0.158 C 
HETATM   10  N8  UNL     1       6.353   0.456  12.921  1.00  0.00    -0.355 N 
ATOM     11  H8  UNL     1       7.191   0.274  13.473  1.00  0.00     0.162 HD
HETATM   12  C23 UNL     1       6.510   1.018  11.619  1.00  0.00     0.174 C 
HETATM   13  S1  UNL     1       7.866   0.463  10.814  1.00  0.00    -0.041 SA
HETATM   14  N9  UNL     1       5.699   1.932  10.913  1.00  0.00    -0.316 N 
ATOM     15  H9  UNL     1       5.264   1.468  10.116  1.00  0.00     0.170 HD
HETATM   16  C24 UNL     1       5.312   3.240  10.958  1.00  0.00     0.141 C 
HETATM   17  C25 UNL     1       5.548   4.506  10.221  1.00  0.00     0.159 C 
HETATM   18  N10 UNL     1       4.230   5.089   9.854  1.00  0.00    -0.347 N 
ATOM     19  H10 UNL     1       4.253   6.025   9.449  1.00  0.00     0.163 HD
HETATM   20  C30 UNL     1       2.977   4.518   9.996  1.00  0.00     0.241 C 
HETATM   21  O4  UNL     1       2.080   5.137  10.662  1.00  0.00    -0.271 OA
ENDROOT
BRANCH   1  22
HETATM   22  C9  UNL     1       1.985   3.625   8.068  1.00  0.00     0.077 C 
BRANCH  22  23
HETATM   23  C8  UNL     1       2.787   4.570   7.324  1.00  0.00    -0.007 A 
HETATM   24  C3  UNL     1       4.000   4.307   6.718  1.00  0.00     0.034 A 
HETATM   25  N1  UNL     1       4.391   5.485   6.152  1.00  0.00    -0.304 N 
HETATM   26  N2  UNL     1       3.509   6.413   6.379  1.00  0.00    -0.304 N 
ATOM     27  H1  UNL     1       5.254   5.620   5.624  1.00  0.00     0.186 HD
HETATM   28  C4  UNL     1       2.498   5.912   7.097  1.00  0.00     0.037 A 
ATOM     29  H2  UNL     1       3.577   7.378   6.057  1.00  0.00     0.186 HD
BRANCH  24  30
HETATM   30  C2  UNL     1       4.814   3.061   6.658  1.00  0.00     0.055 C 
HETATM   31  C1  UNL     1       5.590   3.050   5.349  1.00  0.00     0.011 C 
ENDBRANCH  24  30
BRANCH  28  32
HETATM   32  C5  UNL     1       1.332   6.714   7.570  1.00  0.00     0.029 C 
HETATM   33  C6  UNL     1       0.198   6.635   6.548  1.00  0.00     0.016 C 
HETATM   34  C7  UNL     1       1.784   8.129   7.767  1.00  0.00     0.016 C 
ENDBRANCH  28  32
ENDBRANCH  22  23
ENDBRANCH   1  22
BRANCH   4  35
HETATM   35  O1  UNL     1       0.373   2.835  12.196  1.00  0.00    -0.348 OA
ATOM     36  H1  UNL     1       0.688   3.344  12.932  1.00  0.00     0.219 HD
ENDBRANCH   4  35
BRANCH   5  37
HETATM   37  C13 UNL     1       0.754   0.477  13.214  1.00  0.00     0.008 C 
HETATM   38  C14 UNL     1       1.183  -0.389  14.327  1.00  0.00     0.012 C 
HETATM   39  C15 UNL     1      -0.166  -0.251  12.309  1.00  0.00     0.012 C 
ENDBRANCH   5  37
BRANCH  17  40
HETATM   40  C26 UNL     1       6.509   4.491   9.109  1.00  0.00     0.037 C 
BRANCH  40  41
HETATM   41  C27 UNL     1       7.849   3.988   9.520  1.00  0.00    -0.020 C 
HETATM   42  C28 UNL     1       8.165   4.573  10.895  1.00  0.00     0.009 C 
HETATM   43  C29 UNL     1       8.924   4.525   8.590  1.00  0.00     0.009 C 
ENDBRANCH  40  41
ENDBRANCH  17  40
BRANCH  16  44
HETATM   44  O3  UNL     1       4.477   3.603  11.894  1.00  0.00    -0.348 OA
ATOM     45  H3  UNL     1       4.778   4.222  12.549  1.00  0.00     0.219 HD
ENDBRANCH  16  44
BRANCH   8  46
HETATM   46  O2  UNL     1       4.357  -1.394  11.980  1.00  0.00    -0.348 OA
ATOM     47  H2  UNL     1       4.909  -1.909  12.558  1.00  0.00     0.219 HD
ENDBRANCH   8  46
BRANCH   9  48
HETATM   48  C19 UNL     1       4.697   1.072  14.615  1.00  0.00     0.035 C 
BRANCH  48  49
HETATM   49  C20 UNL     1       5.256   0.613  15.955  1.00  0.00     0.022 C 
BRANCH  49  50
HETATM   50  C21 UNL     1       5.539  -0.866  16.018  1.00  0.00     0.122 C 
BRANCH  50  51
HETATM   51  N5  UNL     1       4.491  -1.520  16.736  1.00  0.00    -0.367 N 
HETATM   52  C22 UNL     1       3.707  -2.435  16.297  1.00  0.00     0.196 C 
HETATM   53  N6  UNL     1       3.843  -2.890  14.967  1.00  0.00    -0.067 NA
HETATM   54  N7  UNL     1       2.691  -3.027  17.094  1.00  0.00    -0.067 NA
ATOM     55  H5  UNL     1       4.351  -1.228  17.703  1.00  0.00     0.161 HD
ENDBRANCH  50  51
ENDBRANCH  49  50
ENDBRANCH  48  49
ENDBRANCH   9  48
TORSDOF 14
ENDMDL
