MODEL 1
REMARK VINA RESULT: -6.963848350      0.000      0.000
REMARK  13 active torsions:
REMARK  status: ('A' for Active; 'I' for Inactive)
REMARK    1  A    between atoms: C2_2  and  C3_3 
REMARK    2  A    between atoms: C3_3  and  C5_5 
REMARK    3  A    between atoms: C6_8  and  O1_9 
REMARK    4  A    between atoms: C7_11  and  C8_12 
REMARK    5  A    between atoms: C8_12  and  C9_13 
REMARK    6  A    between atoms: C13_20  and  C14_21 
REMARK    7  A    between atoms: C14_21  and  C15_22 
REMARK    8  A    between atoms: C15_22  and  C16_23 
REMARK    9  A    between atoms: C16_23  and  N3_24 
REMARK   10  A    between atoms: C18_31  and  O3_32 
REMARK   11  A    between atoms: C19_34  and  C20_35 
REMARK   12  A    between atoms: C20_35  and  C21_36 
REMARK   13  A    between atoms: C25_41  and  C26_42 
ROOT
HETATM    1  C5  UNL     1       7.431   1.737  11.156  1.00  0.00     0.179 C 
HETATM    2  N1  UNL     1       6.036   1.456  11.066  1.00  0.00    -0.359 N 
ATOM      3  H1  UNL     1       5.788   0.826  10.304  1.00  0.00     0.162 HD
HETATM    4  C6  UNL     1       4.958   1.879  11.820  1.00  0.00     0.135 C 
HETATM    5  C7  UNL     1       4.487   3.192  12.249  1.00  0.00     0.159 C 
HETATM    6  N2  UNL     1       3.029   3.242  12.158  1.00  0.00    -0.347 N 
ATOM      7  H2  UNL     1       2.525   2.937  12.992  1.00  0.00     0.163 HD
HETATM    8  C12 UNL     1       2.245   3.644  11.104  1.00  0.00     0.241 C 
HETATM    9  O2  UNL     1       1.200   4.334  11.379  1.00  0.00    -0.271 OA
HETATM   10  C13 UNL     1       2.408   3.404   9.639  1.00  0.00     0.175 C 
HETATM   11  N6  UNL     1       1.626   4.369   8.883  1.00  0.00    -0.356 N 
ATOM     12  H6  UNL     1       0.624   4.173   8.873  1.00  0.00     0.162 HD
HETATM   13  C18 UNL     1       1.984   5.497   8.178  1.00  0.00     0.158 C 
HETATM   14  C19 UNL     1       2.662   5.725   6.888  1.00  0.00     0.058 C 
HETATM   15  N7  UNL     1       3.250   4.622   6.239  1.00  0.00    -0.273 NA
HETATM   16  C24 UNL     1       2.497   4.001   5.191  1.00  0.00     0.118 C 
HETATM   17  C25 UNL     1       4.603   4.721   5.798  1.00  0.00     0.133 C 
HETATM   18  C28 UNL     1       5.636   4.416   6.798  1.00  0.00     0.155 C 
HETATM   19  O4  UNL     1       5.827   5.250   7.677  1.00  0.00    -0.295 OA
HETATM   20  C29 UNL     1       6.485   3.201   6.870  1.00  0.00     0.038 C 
HETATM   21  C30 UNL     1       6.145   2.116   5.919  1.00  0.00     0.019 C 
HETATM   22  C31 UNL     1       7.160   2.164   4.797  1.00  0.00     0.001 C 
HETATM   23  C32 UNL     1       8.361   2.833   5.381  1.00  0.00     0.001 C 
HETATM   24  C33 UNL     1       7.936   3.528   6.654  1.00  0.00     0.019 C 
HETATM   25  C34 UNL     1       6.390   2.646   8.305  1.00  0.00     0.140 C 
HETATM   26  N8  UNL     1       7.456   1.754   8.595  1.00  0.00    -0.358 N 
ATOM     27  H8  UNL     1       7.782   1.172   7.823  1.00  0.00     0.162 HD
HETATM   28  C35 UNL     1       8.111   1.583   9.823  1.00  0.00     0.240 C 
HETATM   29  O5  UNL     1       9.349   1.283   9.783  1.00  0.00    -0.271 OA
ENDROOT
BRANCH  10  30
HETATM   30  C14 UNL     1       1.775   2.015   9.455  1.00  0.00     0.036 C 
BRANCH  30  31
HETATM   31  C15 UNL     1       0.569   1.763  10.259  1.00  0.00     0.022 C 
BRANCH  31  32
HETATM   32  C16 UNL     1       0.681   0.309  10.752  1.00  0.00     0.122 C 
BRANCH  32  33
HETATM   33  N3  UNL     1       1.529   0.295  11.943  1.00  0.00    -0.367 N 
HETATM   34  C17 UNL     1       1.100  -0.052  13.092  1.00  0.00     0.196 C 
HETATM   35  N4  UNL     1      -0.242  -0.453  13.295  1.00  0.00    -0.067 NA
HETATM   36  N5  UNL     1       2.009  -0.030  14.185  1.00  0.00    -0.067 NA
ATOM     37  H3  UNL     1       2.505   0.576  11.851  1.00  0.00     0.161 HD
ENDBRANCH  32  33
ENDBRANCH  31  32
ENDBRANCH  30  31
ENDBRANCH  10  30
BRANCH  13  38
HETATM   38  O3  UNL     1       1.673   6.630   8.738  1.00  0.00    -0.345 OA
ATOM     39  H3  UNL     1       2.323   6.985   9.334  1.00  0.00     0.219 HD
ENDBRANCH  13  38
BRANCH   5  40
HETATM   40  C8  UNL     1       5.161   4.378  11.663  1.00  0.00     0.037 C 
BRANCH  40  41
HETATM   41  C9  UNL     1       6.442   4.699  12.449  1.00  0.00    -0.020 C 
HETATM   42  C10 UNL     1       7.641   4.780  11.548  1.00  0.00     0.009 C 
HETATM   43  C11 UNL     1       6.212   6.135  12.961  1.00  0.00     0.009 C 
ENDBRANCH  40  41
ENDBRANCH   5  40
BRANCH  14  44
HETATM   44  C20 UNL     1       1.902   6.690   6.074  1.00  0.00     0.005 C 
BRANCH  44  45
HETATM   45  C21 UNL     1       0.521   6.483   5.658  1.00  0.00     0.002 C 
HETATM   46  C22 UNL     1      -0.555   7.384   6.197  1.00  0.00     0.013 C 
HETATM   47  C23 UNL     1       0.429   6.726   4.124  1.00  0.00     0.013 C 
ENDBRANCH  44  45
ENDBRANCH  14  44
BRANCH   4  48
HETATM   48  O1  UNL     1       4.191   0.916  12.243  1.00  0.00    -0.348 OA
ATOM     49  H1  UNL     1       3.369   0.836  11.773  1.00  0.00     0.219 HD
ENDBRANCH   4  48
BRANCH  17  50
HETATM   50  C26 UNL     1       4.907   6.030   5.058  1.00  0.00     0.023 C 
HETATM   51  C27 UNL     1       6.103   5.868   4.142  1.00  0.00     0.007 C 
ENDBRANCH  17  50
BRANCH   1  52
HETATM   52  C3  UNL     1       8.173   0.807  12.087  1.00  0.00     0.013 C 
HETATM   53  C4  UNL     1       8.253   1.347  13.499  1.00  0.00     0.012 C 
BRANCH  52  54
HETATM   54  C2  UNL     1       7.551  -0.558  12.168  1.00  0.00     0.002 C 
HETATM   55  C1  UNL     1       7.885  -1.167  13.513  1.00  0.00     0.005 C 
ENDBRANCH  52  54
ENDBRANCH   1  52
TORSDOF 13
ENDMDL
MODEL 2
REMARK VINA RESULT: -6.243994303     13.742     18.734
REMARK  13 active torsions:
REMARK  status: ('A' for Active; 'I' for Inactive)
REMARK    1  A    between atoms: C2_2  and  C3_3 
REMARK    2  A    between atoms: C3_3  and  C5_5 
REMARK    3  A    between atoms: C6_8  and  O1_9 
REMARK    4  A    between atoms: C7_11  and  C8_12 
REMARK    5  A    between atoms: C8_12  and  C9_13 
REMARK    6  A    between atoms: C13_20  and  C14_21 
REMARK    7  A    between atoms: C14_21  and  C15_22 
REMARK    8  A    between atoms: C15_22  and  C16_23 
REMARK    9  A    between atoms: C16_23  and  N3_24 
REMARK   10  A    between atoms: C18_31  and  O3_32 
REMARK   11  A    between atoms: C19_34  and  C20_35 
REMARK   12  A    between atoms: C20_35  and  C21_36 
REMARK   13  A    between atoms: C25_41  and  C26_42 
ROOT
HETATM    1  C5  UNL     1       8.792 -13.151  21.902  1.00  0.00     0.179 C 
HETATM    2  N1  UNL     1       8.594 -11.818  21.437  1.00  0.00    -0.359 N 
ATOM      3  H1  UNL     1       7.829 -11.326  21.899  1.00  0.00     0.162 HD
HETATM    4  C6  UNL     1       9.245 -11.068  20.476  1.00  0.00     0.135 C 
HETATM    5  C7  UNL     1       9.602 -11.315  19.082  1.00  0.00     0.159 C 
HETATM    6  N2  UNL     1       9.390 -10.098  18.300  1.00  0.00    -0.347 N 
ATOM      7  H2  UNL     1      10.186  -9.462  18.251  1.00  0.00     0.163 HD
HETATM    8  C12 UNL     1       8.265  -9.696  17.622  1.00  0.00     0.241 C 
HETATM    9  O2  UNL     1       8.435  -9.140  16.479  1.00  0.00    -0.271 OA
HETATM   10  C13 UNL     1       6.824  -9.797  18.004  1.00  0.00     0.175 C 
HETATM   11  N6  UNL     1       5.984  -9.668  16.825  1.00  0.00    -0.356 N 
ATOM     12  H6  UNL     1       5.895  -8.711  16.482  1.00  0.00     0.162 HD
HETATM   13  C18 UNL     1       5.283 -10.595  16.085  1.00  0.00     0.158 C 
HETATM   14  C19 UNL     1       4.049 -11.369  16.318  1.00  0.00     0.058 C 
HETATM   15  N7  UNL     1       3.477 -11.342  17.605  1.00  0.00    -0.273 NA
HETATM   16  C24 UNL     1       2.386 -10.440  17.819  1.00  0.00     0.118 C 
HETATM   17  C25 UNL     1       3.147 -12.577  18.240  1.00  0.00     0.133 C 
HETATM   18  C28 UNL     1       4.236 -13.246  18.965  1.00  0.00     0.155 C 
HETATM   19  O4  UNL     1       5.107 -13.787  18.292  1.00  0.00    -0.295 OA
HETATM   20  C29 UNL     1       4.408 -13.344  20.436  1.00  0.00     0.038 C 
HETATM   21  C30 UNL     1       3.459 -12.551  21.252  1.00  0.00     0.019 C 
HETATM   22  C31 UNL     1       2.423 -13.509  21.801  1.00  0.00     0.001 C 
HETATM   23  C32 UNL     1       3.088 -14.847  21.804  1.00  0.00     0.001 C 
HETATM   24  C33 UNL     1       4.305 -14.767  20.910  1.00  0.00     0.019 C 
HETATM   25  C34 UNL     1       5.843 -12.894  20.772  1.00  0.00     0.140 C 
HETATM   26  N8  UNL     1       6.242 -13.330  22.063  1.00  0.00    -0.358 N 
ATOM     27  H8  UNL     1       5.514 -13.355  22.777  1.00  0.00     0.162 HD
HETATM   28  C35 UNL     1       7.524 -13.731  22.466  1.00  0.00     0.240 C 
HETATM   29  O5  UNL     1       7.594 -14.639  23.358  1.00  0.00    -0.271 OA
ENDROOT
BRANCH  10  30
HETATM   30  C14 UNL     1       6.622  -8.553  18.884  1.00  0.00     0.036 C 
BRANCH  30  31
HETATM   31  C15 UNL     1       6.041  -7.387  18.198  1.00  0.00     0.022 C 
BRANCH  31  32
HETATM   32  C16 UNL     1       7.055  -6.242  18.372  1.00  0.00     0.122 C 
BRANCH  32  33
HETATM   33  N3  UNL     1       7.885  -6.182  17.170  1.00  0.00    -0.367 N 
HETATM   34  C17 UNL     1       9.079  -5.733  17.176  1.00  0.00     0.196 C 
HETATM   35  N4  UNL     1       9.687  -5.257  18.362  1.00  0.00    -0.067 NA
HETATM   36  N5  UNL     1       9.799  -5.719  15.951  1.00  0.00    -0.067 NA
ATOM     37  H3  UNL     1       7.494  -6.514  16.288  1.00  0.00     0.161 HD
ENDBRANCH  32  33
ENDBRANCH  31  32
ENDBRANCH  30  31
ENDBRANCH  10  30
BRANCH  13  38
HETATM   38  O3  UNL     1       5.788 -10.880  14.920  1.00  0.00    -0.345 OA
ATOM     39  H3  UNL     1       5.167 -11.183  14.267  1.00  0.00     0.219 HD
ENDBRANCH  13  38
BRANCH   5  40
HETATM   40  C8  UNL     1       9.045 -12.536  18.446  1.00  0.00     0.037 C 
BRANCH  40  41
HETATM   41  C9  UNL     1      10.183 -13.422  17.918  1.00  0.00    -0.020 C 
HETATM   42  C10 UNL     1      10.659 -14.396  18.958  1.00  0.00     0.009 C 
HETATM   43  C11 UNL     1       9.510 -14.278  16.826  1.00  0.00     0.009 C 
ENDBRANCH  40  41
ENDBRANCH   5  40
BRANCH  14  44
HETATM   44  C20 UNL     1       3.151 -11.262  15.154  1.00  0.00     0.005 C 
BRANCH  44  45
HETATM   45  C21 UNL     1       3.153 -12.208  14.044  1.00  0.00     0.002 C 
HETATM   46  C22 UNL     1       1.982 -13.132  13.860  1.00  0.00     0.013 C 
HETATM   47  C23 UNL     1       3.163 -11.402  12.713  1.00  0.00     0.013 C 
ENDBRANCH  44  45
ENDBRANCH  14  44
BRANCH   4  48
HETATM   48  O1  UNL     1       9.627  -9.892  20.883  1.00  0.00    -0.348 OA
ATOM     49  H1  UNL     1       9.707  -9.246  20.191  1.00  0.00     0.219 HD
ENDBRANCH   4  48
BRANCH  17  50
HETATM   50  C26 UNL     1       2.403 -13.553  17.319  1.00  0.00     0.023 C 
HETATM   51  C27 UNL     1       1.567 -14.526  18.125  1.00  0.00     0.007 C 
ENDBRANCH  17  50
BRANCH   1  52
HETATM   52  C3  UNL     1       9.803 -13.253  23.020  1.00  0.00     0.013 C 
HETATM   53  C4  UNL     1      11.213 -13.457  22.505  1.00  0.00     0.012 C 
BRANCH  52  54
HETATM   54  C2  UNL     1       9.824 -12.038  23.903  1.00  0.00     0.002 C 
HETATM   55  C1  UNL     1      11.225 -11.465  23.909  1.00  0.00     0.005 C 
ENDBRANCH  52  54
ENDBRANCH   1  52
TORSDOF 13
ENDMDL
MODEL 3
REMARK VINA RESULT: -6.156333543     14.375     19.478
REMARK  13 active torsions:
REMARK  status: ('A' for Active; 'I' for Inactive)
REMARK    1  A    between atoms: C2_2  and  C3_3 
REMARK    2  A    between atoms: C3_3  and  C5_5 
REMARK    3  A    between atoms: C6_8  and  O1_9 
REMARK    4  A    between atoms: C7_11  and  C8_12 
REMARK    5  A    between atoms: C8_12  and  C9_13 
REMARK    6  A    between atoms: C13_20  and  C14_21 
REMARK    7  A    between atoms: C14_21  and  C15_22 
REMARK    8  A    between atoms: C15_22  and  C16_23 
REMARK    9  A    between atoms: C16_23  and  N3_24 
REMARK   10  A    between atoms: C18_31  and  O3_32 
REMARK   11  A    between atoms: C19_34  and  C20_35 
REMARK   12  A    between atoms: C20_35  and  C21_36 
REMARK   13  A    between atoms: C25_41  and  C26_42 
ROOT
HETATM    1  C5  UNL     1       2.919 -13.503  15.496  1.00  0.00     0.179 C 
HETATM    2  N1  UNL     1       3.756 -12.350  15.550  1.00  0.00    -0.359 N 
ATOM      3  H1  UNL     1       4.622 -12.442  15.019  1.00  0.00     0.162 HD
HETATM    4  C6  UNL     1       3.613 -11.133  16.189  1.00  0.00     0.135 C 
HETATM    5  C7  UNL     1       3.296 -10.752  17.562  1.00  0.00     0.159 C 
HETATM    6  N2  UNL     1       4.117  -9.607  17.953  1.00  0.00    -0.347 N 
ATOM      7  H2  UNL     1       3.720  -8.690  17.748  1.00  0.00     0.163 HD
HETATM    8  C12 UNL     1       5.350  -9.600  18.560  1.00  0.00     0.241 C 
HETATM    9  O2  UNL     1       5.553  -8.715  19.466  1.00  0.00    -0.271 OA
HETATM   10  C13 UNL     1       6.538 -10.477  18.335  1.00  0.00     0.175 C 
HETATM   11  N6  UNL     1       7.432 -10.412  19.478  1.00  0.00    -0.356 N 
ATOM     12  H6  UNL     1       7.987  -9.556  19.522  1.00  0.00     0.162 HD
HETATM   13  C18 UNL     1       7.672 -11.289  20.514  1.00  0.00     0.158 C 
HETATM   14  C19 UNL     1       8.375 -12.581  20.617  1.00  0.00     0.058 C 
HETATM   15  N7  UNL     1       8.786 -13.215  19.429  1.00  0.00    -0.273 NA
HETATM   16  C24 UNL     1      10.152 -13.045  19.034  1.00  0.00     0.118 C 
HETATM   17  C25 UNL     1       8.444 -14.585  19.223  1.00  0.00     0.133 C 
HETATM   18  C28 UNL     1       7.115 -14.845  18.655  1.00  0.00     0.155 C 
HETATM   19  O4  UNL     1       6.149 -14.681  19.393  1.00  0.00    -0.295 OA
HETATM   20  C29 UNL     1       6.800 -15.287  17.273  1.00  0.00     0.038 C 
HETATM   21  C30 UNL     1       7.941 -15.322  16.329  1.00  0.00     0.019 C 
HETATM   22  C31 UNL     1       8.356 -16.769  16.173  1.00  0.00     0.001 C 
HETATM   23  C32 UNL     1       7.143 -17.566  16.525  1.00  0.00     0.001 C 
HETATM   24  C33 UNL     1       6.183 -16.658  17.260  1.00  0.00     0.019 C 
HETATM   25  C34 UNL     1       5.722 -14.339  16.711  1.00  0.00     0.140 C 
HETATM   26  N8  UNL     1       5.062 -14.901  15.586  1.00  0.00    -0.358 N 
ATOM     27  H8  UNL     1       5.633 -15.479  14.969  1.00  0.00     0.162 HD
HETATM   28  C35 UNL     1       3.715 -14.750  15.229  1.00  0.00     0.240 C 
HETATM   29  O5  UNL     1       3.155 -15.738  14.650  1.00  0.00    -0.271 OA
ENDROOT
BRANCH  10  30
HETATM   30  C14 UNL     1       7.229  -9.804  17.138  1.00  0.00     0.036 C 
BRANCH  30  31
HETATM   31  C15 UNL     1       8.694  -9.699  17.237  1.00  0.00     0.022 C 
BRANCH  31  32
HETATM   32  C16 UNL     1       9.026  -8.206  17.063  1.00  0.00     0.122 C 
BRANCH  32  33
HETATM   33  N3  UNL     1       7.897  -7.425  17.567  1.00  0.00    -0.367 N 
HETATM   34  C17 UNL     1       8.044  -6.339  18.219  1.00  0.00     0.196 C 
HETATM   35  N4  UNL     1       9.326  -5.809  18.501  1.00  0.00    -0.067 NA
HETATM   36  N5  UNL     1       6.878  -5.658  18.664  1.00  0.00    -0.067 NA
ATOM     37  H3  UNL     1       6.951  -7.764  17.391  1.00  0.00     0.161 HD
ENDBRANCH  32  33
ENDBRANCH  31  32
ENDBRANCH  30  31
ENDBRANCH  10  30
BRANCH  13  38
HETATM   38  O3  UNL     1       7.189 -10.937  21.670  1.00  0.00    -0.345 OA
ATOM     39  H3  UNL     1       7.295 -11.572  22.369  1.00  0.00     0.219 HD
ENDBRANCH  13  38
BRANCH   5  40
HETATM   40  C8  UNL     1       3.263 -11.836  18.576  1.00  0.00     0.037 C 
BRANCH  40  41
HETATM   41  C9  UNL     1       1.835 -12.010  19.116  1.00  0.00    -0.020 C 
HETATM   42  C10 UNL     1       0.825 -11.307  18.256  1.00  0.00     0.009 C 
HETATM   43  C11 UNL     1       1.554 -13.516  18.940  1.00  0.00     0.009 C 
ENDBRANCH  40  41
ENDBRANCH   5  40
BRANCH  14  44
HETATM   44  C20 UNL     1       9.308 -12.566  21.759  1.00  0.00     0.005 C 
BRANCH  44  45
HETATM   45  C21 UNL     1      10.387 -11.597  21.906  1.00  0.00     0.002 C 
HETATM   46  C22 UNL     1      10.326 -10.587  23.017  1.00  0.00     0.013 C 
HETATM   47  C23 UNL     1      11.700 -12.370  22.220  1.00  0.00     0.013 C 
ENDBRANCH  44  45
ENDBRANCH  14  44
BRANCH   4  48
HETATM   48  O1  UNL     1       3.798 -10.100  15.418  1.00  0.00    -0.348 OA
ATOM     49  H1  UNL     1       3.146  -9.416  15.519  1.00  0.00     0.219 HD
ENDBRANCH   4  48
BRANCH  17  50
HETATM   50  C26 UNL     1       8.715 -15.469  20.448  1.00  0.00     0.023 C 
HETATM   51  C27 UNL     1       8.893 -16.917  20.041  1.00  0.00     0.007 C 
ENDBRANCH  17  50
BRANCH   1  52
HETATM   52  C3  UNL     1       1.891 -13.447  14.389  1.00  0.00     0.013 C 
HETATM   53  C4  UNL     1       0.563 -12.896  14.863  1.00  0.00     0.012 C 
BRANCH  52  54
HETATM   54  C2  UNL     1       2.331 -12.607  13.224  1.00  0.00     0.002 C 
HETATM   55  C1  UNL     1       1.968 -13.325  11.942  1.00  0.00     0.005 C 
ENDBRANCH  52  54
ENDBRANCH   1  52
TORSDOF 13
ENDMDL
MODEL 4
REMARK VINA RESULT: -6.143752231      9.730     16.139
REMARK  13 active torsions:
REMARK  status: ('A' for Active; 'I' for Inactive)
REMARK    1  A    between atoms: C2_2  and  C3_3 
REMARK    2  A    between atoms: C3_3  and  C5_5 
REMARK    3  A    between atoms: C6_8  and  O1_9 
REMARK    4  A    between atoms: C7_11  and  C8_12 
REMARK    5  A    between atoms: C8_12  and  C9_13 
REMARK    6  A    between atoms: C13_20  and  C14_21 
REMARK    7  A    between atoms: C14_21  and  C15_22 
REMARK    8  A    between atoms: C15_22  and  C16_23 
REMARK    9  A    between atoms: C16_23  and  N3_24 
REMARK   10  A    between atoms: C18_31  and  O3_32 
REMARK   11  A    between atoms: C19_34  and  C20_35 
REMARK   12  A    between atoms: C20_35  and  C21_36 
REMARK   13  A    between atoms: C25_41  and  C26_42 
ROOT
HETATM    1  C5  UNL     1       3.182  -5.709  16.770  1.00  0.00     0.179 C 
HETATM    2  N1  UNL     1       4.566  -5.618  16.440  1.00  0.00    -0.359 N 
ATOM      3  H1  UNL     1       4.812  -6.066  15.557  1.00  0.00     0.162 HD
HETATM    4  C6  UNL     1       5.636  -5.036  17.093  1.00  0.00     0.135 C 
HETATM    5  C7  UNL     1       6.147  -5.125  18.457  1.00  0.00     0.159 C 
HETATM    6  N2  UNL     1       7.608  -5.159  18.430  1.00  0.00    -0.347 N 
ATOM      7  H2  UNL     1       8.071  -4.250  18.458  1.00  0.00     0.163 HD
HETATM    8  C12 UNL     1       8.443  -6.249  18.372  1.00  0.00     0.241 C 
HETATM    9  O2  UNL     1       9.507  -6.213  19.087  1.00  0.00    -0.271 OA
HETATM   10  C13 UNL     1       8.319  -7.514  17.588  1.00  0.00     0.175 C 
HETATM   11  N6  UNL     1       9.165  -8.545  18.165  1.00  0.00    -0.356 N 
ATOM     12  H6  UNL     1      10.158  -8.432  17.954  1.00  0.00     0.162 HD
HETATM   13  C18 UNL     1       8.879  -9.647  18.941  1.00  0.00     0.158 C 
HETATM   14  C19 UNL     1       8.254 -10.955  18.670  1.00  0.00     0.058 C 
HETATM   15  N7  UNL     1       7.642 -11.156  17.417  1.00  0.00    -0.273 NA
HETATM   16  C24 UNL     1       8.402 -11.847  16.420  1.00  0.00     0.118 C 
HETATM   17  C25 UNL     1       6.309 -11.664  17.373  1.00  0.00     0.133 C 
HETATM   18  C28 UNL     1       5.232 -10.674  17.506  1.00  0.00     0.155 C 
HETATM   19  O4  UNL     1       5.047 -10.194  18.620  1.00  0.00    -0.295 OA
HETATM   20  C29 UNL     1       4.331 -10.179  16.436  1.00  0.00     0.038 C 
HETATM   21  C30 UNL     1       4.655 -10.621  15.060  1.00  0.00     0.019 C 
HETATM   22  C31 UNL     1       3.682 -11.721  14.696  1.00  0.00     0.001 C 
HETATM   23  C32 UNL     1       2.491 -11.497  15.570  1.00  0.00     0.001 C 
HETATM   24  C33 UNL     1       2.902 -10.572  16.693  1.00  0.00     0.019 C 
HETATM   25  C34 UNL     1       4.354  -8.638  16.478  1.00  0.00     0.140 C 
HETATM   26  N8  UNL     1       3.242  -8.077  15.795  1.00  0.00    -0.358 N 
ATOM     27  H8  UNL     1       2.918  -8.579  14.969  1.00  0.00     0.162 HD
HETATM   28  C35 UNL     1       2.541  -6.910  16.130  1.00  0.00     0.240 C 
HETATM   29  O5  UNL     1       1.293  -6.889  15.871  1.00  0.00    -0.271 OA
ENDROOT
BRANCH  10  30
HETATM   30  C14 UNL     1       8.898  -7.119  16.220  1.00  0.00     0.036 C 
BRANCH  30  31
HETATM   31  C15 UNL     1      10.044  -6.197  16.266  1.00  0.00     0.022 C 
BRANCH  31  32
HETATM   32  C16 UNL     1       9.922  -5.302  15.020  1.00  0.00     0.122 C 
BRANCH  32  33
HETATM   33  N3  UNL     1       8.927  -4.267  15.297  1.00  0.00    -0.367 N 
HETATM   34  C17 UNL     1       9.242  -3.063  15.575  1.00  0.00     0.196 C 
HETATM   35  N4  UNL     1      10.592  -2.642  15.633  1.00  0.00    -0.067 NA
HETATM   36  N5  UNL     1       8.195  -2.135  15.828  1.00  0.00    -0.067 NA
ATOM     37  H3  UNL     1       7.939  -4.518  15.267  1.00  0.00     0.161 HD
ENDBRANCH  32  33
ENDBRANCH  31  32
ENDBRANCH  30  31
ENDBRANCH  10  30
BRANCH  13  38
HETATM   38  O3  UNL     1       9.218  -9.553  20.194  1.00  0.00    -0.345 OA
ATOM     39  H3  UNL     1       8.529  -9.742  20.821  1.00  0.00     0.219 HD
ENDBRANCH  13  38
BRANCH   5  40
HETATM   40  C8  UNL     1       5.544  -6.153  19.341  1.00  0.00     0.037 C 
BRANCH  40  41
HETATM   41  C9  UNL     1       4.114  -5.744  19.728  1.00  0.00    -0.020 C 
HETATM   42  C10 UNL     1       3.218  -6.938  19.888  1.00  0.00     0.009 C 
HETATM   43  C11 UNL     1       4.269  -5.151  21.143  1.00  0.00     0.009 C 
ENDBRANCH  40  41
ENDBRANCH   5  40
BRANCH  14  44
HETATM   44  C20 UNL     1       9.080 -12.042  19.225  1.00  0.00     0.005 C 
BRANCH  44  45
HETATM   45  C21 UNL     1       8.885 -12.606  20.555  1.00  0.00     0.002 C 
HETATM   46  C22 UNL     1       7.623 -12.295  21.310  1.00  0.00     0.013 C 
HETATM   47  C23 UNL     1       8.832 -14.155  20.428  1.00  0.00     0.013 C 
ENDBRANCH  44  45
ENDBRANCH  14  44
BRANCH   4  48
HETATM   48  O1  UNL     1       6.347  -4.239  16.349  1.00  0.00    -0.348 OA
ATOM     49  H1  UNL     1       6.840  -3.587  16.834  1.00  0.00     0.219 HD
ENDBRANCH   4  48
BRANCH  17  50
HETATM   50  C26 UNL     1       6.086 -12.865  18.302  1.00  0.00     0.023 C 
HETATM   51  C27 UNL     1       4.928 -13.714  17.819  1.00  0.00     0.007 C 
ENDBRANCH  17  50
BRANCH   1  52
HETATM   52  C3  UNL     1       2.370  -4.528  16.292  1.00  0.00     0.013 C 
HETATM   53  C4  UNL     1       2.487  -3.335  17.218  1.00  0.00     0.012 C 
BRANCH  52  54
HETATM   54  C2  UNL     1       2.766  -4.064  14.919  1.00  0.00     0.002 C 
HETATM   55  C1  UNL     1       2.789  -2.551  14.904  1.00  0.00     0.005 C 
ENDBRANCH  52  54
ENDBRANCH   1  52
TORSDOF 13
ENDMDL
MODEL 5
REMARK VINA RESULT: -5.938034101     14.182     18.555
REMARK  13 active torsions:
REMARK  status: ('A' for Active; 'I' for Inactive)
REMARK    1  A    between atoms: C2_2  and  C3_3 
REMARK    2  A    between atoms: C3_3  and  C5_5 
REMARK    3  A    between atoms: C6_8  and  O1_9 
REMARK    4  A    between atoms: C7_11  and  C8_12 
REMARK    5  A    between atoms: C8_12  and  C9_13 
REMARK    6  A    between atoms: C13_20  and  C14_21 
REMARK    7  A    between atoms: C14_21  and  C15_22 
REMARK    8  A    between atoms: C15_22  and  C16_23 
REMARK    9  A    between atoms: C16_23  and  N3_24 
REMARK   10  A    between atoms: C18_31  and  O3_32 
REMARK   11  A    between atoms: C19_34  and  C20_35 
REMARK   12  A    between atoms: C20_35  and  C21_36 
REMARK   13  A    between atoms: C25_41  and  C26_42 
ROOT
HETATM    1  C5  UNL     1       8.689 -13.016  21.971  1.00  0.00     0.179 C 
HETATM    2  N1  UNL     1       8.529 -11.688  21.478  1.00  0.00    -0.359 N 
ATOM      3  H1  UNL     1       7.768 -11.170  21.918  1.00  0.00     0.162 HD
HETATM    4  C6  UNL     1       9.212 -10.972  20.513  1.00  0.00     0.135 C 
HETATM    5  C7  UNL     1       9.585 -11.254  19.130  1.00  0.00     0.159 C 
HETATM    6  N2  UNL     1       9.413 -10.048  18.322  1.00  0.00    -0.347 N 
ATOM      7  H2  UNL     1      10.224  -9.430  18.274  1.00  0.00     0.163 HD
HETATM    8  C12 UNL     1       8.308  -9.633  17.618  1.00  0.00     0.241 C 
HETATM    9  O2  UNL     1       8.509  -9.103  16.468  1.00  0.00    -0.271 OA
HETATM   10  C13 UNL     1       6.860  -9.695  17.979  1.00  0.00     0.175 C 
HETATM   11  N6  UNL     1       6.041  -9.570  16.784  1.00  0.00    -0.356 N 
ATOM     12  H6  UNL     1       5.980  -8.618  16.421  1.00  0.00     0.162 HD
HETATM   13  C18 UNL     1       5.332 -10.495  16.051  1.00  0.00     0.158 C 
HETATM   14  C19 UNL     1       4.076 -11.236  16.278  1.00  0.00     0.058 C 
HETATM   15  N7  UNL     1       3.486 -11.172  17.555  1.00  0.00    -0.273 NA
HETATM   16  C24 UNL     1       2.412 -10.242  17.734  1.00  0.00     0.118 C 
HETATM   17  C25 UNL     1       3.118 -12.387  18.207  1.00  0.00     0.133 C 
HETATM   18  C28 UNL     1       4.179 -13.065  18.963  1.00  0.00     0.155 C 
HETATM   19  O4  UNL     1       5.049 -13.639  18.314  1.00  0.00    -0.295 OA
HETATM   20  C29 UNL     1       4.325 -13.138  20.438  1.00  0.00     0.038 C 
HETATM   21  C30 UNL     1       3.382 -12.309  21.224  1.00  0.00     0.019 C 
HETATM   22  C31 UNL     1       2.316 -13.233  21.774  1.00  0.00     0.001 C 
HETATM   23  C32 UNL     1       2.950 -14.586  21.813  1.00  0.00     0.001 C 
HETATM   24  C33 UNL     1       4.183 -14.550  20.937  1.00  0.00     0.019 C 
HETATM   25  C34 UNL     1       5.765 -12.715  20.789  1.00  0.00     0.140 C 
HETATM   26  N8  UNL     1       6.133 -13.135  22.095  1.00  0.00    -0.358 N 
ATOM     27  H8  UNL     1       5.394 -13.130  22.797  1.00  0.00     0.162 HD
HETATM   28  C35 UNL     1       7.400 -13.556  22.525  1.00  0.00     0.240 C 
HETATM   29  O5  UNL     1       7.435 -14.448  23.436  1.00  0.00    -0.271 OA
ENDROOT
BRANCH  10  30
HETATM   30  C14 UNL     1       6.672  -8.429  18.831  1.00  0.00     0.036 C 
BRANCH  30  31
HETATM   31  C15 UNL     1       6.123  -7.267  18.116  1.00  0.00     0.022 C 
BRANCH  31  32
HETATM   32  C16 UNL     1       5.634  -6.291  19.201  1.00  0.00     0.122 C 
BRANCH  32  33
HETATM   33  N3  UNL     1       4.393  -5.675  18.734  1.00  0.00    -0.367 N 
HETATM   34  C17 UNL     1       3.243  -6.038  19.147  1.00  0.00     0.196 C 
HETATM   35  N4  UNL     1       3.088  -7.076  20.098  1.00  0.00    -0.067 NA
HETATM   36  N5  UNL     1       2.099  -5.372  18.628  1.00  0.00    -0.067 NA
ATOM     37  H3  UNL     1       4.449  -4.921  18.048  1.00  0.00     0.161 HD
ENDBRANCH  32  33
ENDBRANCH  31  32
ENDBRANCH  30  31
ENDBRANCH  10  30
BRANCH  13  38
HETATM   38  O3  UNL     1       5.848 -10.813  14.899  1.00  0.00    -0.345 OA
ATOM     39  H3  UNL     1       6.525 -11.480  14.923  1.00  0.00     0.219 HD
ENDBRANCH  13  38
BRANCH   5  40
HETATM   40  C8  UNL     1       9.011 -12.473  18.509  1.00  0.00     0.037 C 
BRANCH  40  41
HETATM   41  C9  UNL     1      10.135 -13.370  17.968  1.00  0.00    -0.020 C 
HETATM   42  C10 UNL     1      10.665 -14.296  19.024  1.00  0.00     0.009 C 
HETATM   43  C11 UNL     1       9.425 -14.275  16.941  1.00  0.00     0.009 C 
ENDBRANCH  40  41
ENDBRANCH   5  40
BRANCH  14  44
HETATM   44  C20 UNL     1       3.200 -11.132  15.098  1.00  0.00     0.005 C 
BRANCH  44  45
HETATM   45  C21 UNL     1       3.198 -12.099  14.006  1.00  0.00     0.002 C 
HETATM   46  C22 UNL     1       2.014 -13.008  13.828  1.00  0.00     0.013 C 
HETATM   47  C23 UNL     1       3.234 -11.319  12.661  1.00  0.00     0.013 C 
ENDBRANCH  44  45
ENDBRANCH  14  44
BRANCH   4  48
HETATM   48  O1  UNL     1       9.614  -9.797  20.904  1.00  0.00    -0.348 OA
ATOM     49  H1  UNL     1       9.553  -9.655  21.842  1.00  0.00     0.219 HD
ENDBRANCH   4  48
BRANCH  17  50
HETATM   50  C26 UNL     1       2.365 -13.363  17.293  1.00  0.00     0.023 C 
HETATM   51  C27 UNL     1       1.515 -14.318  18.106  1.00  0.00     0.007 C 
ENDBRANCH  17  50
BRANCH   1  52
HETATM   52  C3  UNL     1       9.680 -13.119  23.107  1.00  0.00     0.013 C 
HETATM   53  C4  UNL     1      11.093 -13.362  22.619  1.00  0.00     0.012 C 
BRANCH  52  54
HETATM   54  C2  UNL     1       9.712 -11.889  23.969  1.00  0.00     0.002 C 
HETATM   55  C1  UNL     1      11.130 -11.360  24.010  1.00  0.00     0.005 C 
ENDBRANCH  52  54
ENDBRANCH   1  52
TORSDOF 13
ENDMDL
