MODEL 1
REMARK VINA RESULT: -6.116644127      0.000      0.000
REMARK  13 active torsions:
REMARK  status: ('A' for Active; 'I' for Inactive)
REMARK    1  A    between atoms: C2_2  and  C4_4 
REMARK    2  A    between atoms: C4_4  and  C5_5 
REMARK    3  A    between atoms: C7_10  and  C8_11 
REMARK    4  A    between atoms: C8_11  and  C9_12 
REMARK    5  A    between atoms: C11_19  and  C12_20 
REMARK    6  A    between atoms: C12_20  and  C13_21 
REMARK    7  A    between atoms: C17_28  and  C18_29 
REMARK    8  A    between atoms: C18_29  and  C19_30 
REMARK    9  A    between atoms: C23_37  and  C24_38 
REMARK   10  A    between atoms: C24_38  and  C25_39 
REMARK   11  A    between atoms: C29_46  and  C30_47 
REMARK   12  A    between atoms: C30_47  and  C31_48 
REMARK   13  A    between atoms: C34_53  and  O7_54 
ROOT
HETATM    1  C5  UNL     1       6.897 -13.789  18.614  1.00  0.00     0.159 C 
HETATM    2  N1  UNL     1       6.025 -14.778  19.207  1.00  0.00    -0.347 N 
ATOM      3  H1  UNL     1       6.483 -15.547  19.697  1.00  0.00     0.163 HD
HETATM    4  C6  UNL     1       4.626 -14.802  19.185  1.00  0.00     0.241 C 
HETATM    5  O1  UNL     1       4.048 -15.917  19.054  1.00  0.00    -0.271 OA
HETATM    6  C7  UNL     1       3.717 -13.634  19.303  1.00  0.00     0.185 C 
HETATM    7  N3  UNL     1       2.756 -13.778  18.208  1.00  0.00    -0.346 N 
ATOM      8  H3  UNL     1       2.369 -14.707  18.044  1.00  0.00     0.163 HD
HETATM    9  C10 UNL     1       2.325 -12.744  17.369  1.00  0.00     0.241 C 
HETATM   10  O3  UNL     1       1.099 -12.645  17.018  1.00  0.00    -0.271 OA
HETATM   11  C11 UNL     1       3.233 -11.701  16.830  1.00  0.00     0.177 C 
HETATM   12  N4  UNL     1       2.645 -10.366  16.885  1.00  0.00    -0.346 N 
ATOM     13  H4  UNL     1       1.628 -10.289  16.896  1.00  0.00     0.163 HD
HETATM   14  C16 UNL     1       3.402  -9.174  16.924  1.00  0.00     0.244 C 
HETATM   15  O4  UNL     1       3.003  -8.239  16.156  1.00  0.00    -0.271 OA
HETATM   16  C17 UNL     1       4.616  -8.955  17.795  1.00  0.00     0.200 C 
HETATM   17  N5  UNL     1       5.790  -8.780  16.982  1.00  0.00    -0.343 N 
ATOM     18  H5  UNL     1       5.592  -8.430  16.045  1.00  0.00     0.163 HD
HETATM   19  C22 UNL     1       7.144  -8.995  17.227  1.00  0.00     0.241 C 
HETATM   20  O5  UNL     1       7.796  -9.765  16.417  1.00  0.00    -0.271 OA
HETATM   21  C23 UNL     1       8.001  -8.459  18.312  1.00  0.00     0.177 C 
HETATM   22  N6  UNL     1       8.088  -9.255  19.495  1.00  0.00    -0.346 N 
ATOM     23  H6  UNL     1       7.922  -8.728  20.352  1.00  0.00     0.163 HD
HETATM   24  C28 UNL     1       8.350 -10.592  19.716  1.00  0.00     0.241 C 
HETATM   25  O6  UNL     1       7.501 -11.234  20.452  1.00  0.00    -0.271 OA
HETATM   26  C29 UNL     1       9.466 -11.438  19.246  1.00  0.00     0.175 C 
HETATM   27  N7  UNL     1       9.212 -12.855  19.361  1.00  0.00    -0.359 N 
ATOM     28  H7  UNL     1      10.061 -13.419  19.315  1.00  0.00     0.162 HD
HETATM   29  C34 UNL     1       8.076 -13.604  19.518  1.00  0.00     0.135 C 
ENDROOT
BRANCH   1  30
HETATM   30  C4  UNL     1       7.306 -14.232  17.244  1.00  0.00     0.037 C 
BRANCH  30  31
HETATM   31  C2  UNL     1       8.070 -15.485  17.104  1.00  0.00    -0.020 C 
HETATM   32  C1  UNL     1       9.391 -15.191  16.343  1.00  0.00     0.009 C 
HETATM   33  C3  UNL     1       7.433 -16.598  16.319  1.00  0.00     0.009 C 
ENDBRANCH  30  31
ENDBRANCH   1  30
BRANCH  29  34
HETATM   34  O7  UNL     1       8.019 -14.263  20.639  1.00  0.00    -0.348 OA
ATOM     35  H7  UNL     1       8.861 -14.472  21.025  1.00  0.00     0.219 HD
ENDBRANCH  29  34
BRANCH   6  36
HETATM   36  C8  UNL     1       2.859 -13.811  20.564  1.00  0.00     0.134 C 
BRANCH  36  37
HETATM   37  C9  UNL     1       2.941 -12.697  21.496  1.00  0.00     0.233 C 
HETATM   38  N2  UNL     1       2.083 -11.579  21.353  1.00  0.00    -0.062 NA
HETATM   39  O2  UNL     1       3.754 -12.678  22.444  1.00  0.00    -0.277 OA
ENDBRANCH  36  37
ENDBRANCH   6  36
BRANCH  26  40
HETATM   40  C30 UNL     1      10.810 -11.062  19.784  1.00  0.00     0.038 C 
BRANCH  40  41
HETATM   41  C31 UNL     1      11.166 -11.325  21.168  1.00  0.00    -0.020 C 
HETATM   42  C32 UNL     1      12.589 -11.458  21.558  1.00  0.00     0.009 C 
HETATM   43  C33 UNL     1      10.509 -10.369  22.176  1.00  0.00     0.009 C 
ENDBRANCH  40  41
ENDBRANCH  26  40
BRANCH  11  44
HETATM   44  C12 UNL     1       3.765 -12.048  15.478  1.00  0.00     0.038 C 
BRANCH  44  45
HETATM   45  C13 UNL     1       3.017 -11.513  14.313  1.00  0.00    -0.020 C 
HETATM   46  C14 UNL     1       2.508 -12.742  13.539  1.00  0.00     0.009 C 
HETATM   47  C15 UNL     1       3.858 -10.753  13.310  1.00  0.00     0.009 C 
ENDBRANCH  44  45
ENDBRANCH  11  44
BRANCH  21  48
HETATM   48  C24 UNL     1       9.399  -8.122  17.754  1.00  0.00     0.038 C 
BRANCH  48  49
HETATM   49  C25 UNL     1       9.375  -6.782  17.067  1.00  0.00    -0.020 C 
HETATM   50  C26 UNL     1       8.825  -5.672  17.915  1.00  0.00     0.009 C 
HETATM   51  C27 UNL     1      10.850  -6.443  16.796  1.00  0.00     0.009 C 
ENDBRANCH  48  49
ENDBRANCH  21  48
BRANCH  16  52
HETATM   52  C18 UNL     1       4.413  -8.045  18.922  1.00  0.00     0.010 C 
BRANCH  52  53
HETATM   53  C19 UNL     1       4.447  -6.588  18.824  1.00  0.00    -0.089 C 
HETATM   54  C20 UNL     1       3.149  -5.848  18.968  1.00  0.00     0.042 C 
HETATM   55  C21 UNL     1       5.611  -5.894  19.499  1.00  0.00     0.042 C 
ENDBRANCH  52  53
ENDBRANCH  16  52
TORSDOF 13
ENDMDL
MODEL 2
REMARK VINA RESULT: -5.780559522      2.193      7.194
REMARK  13 active torsions:
REMARK  status: ('A' for Active; 'I' for Inactive)
REMARK    1  A    between atoms: C2_2  and  C4_4 
REMARK    2  A    between atoms: C4_4  and  C5_5 
REMARK    3  A    between atoms: C7_10  and  C8_11 
REMARK    4  A    between atoms: C8_11  and  C9_12 
REMARK    5  A    between atoms: C11_19  and  C12_20 
REMARK    6  A    between atoms: C12_20  and  C13_21 
REMARK    7  A    between atoms: C17_28  and  C18_29 
REMARK    8  A    between atoms: C18_29  and  C19_30 
REMARK    9  A    between atoms: C23_37  and  C24_38 
REMARK   10  A    between atoms: C24_38  and  C25_39 
REMARK   11  A    between atoms: C29_46  and  C30_47 
REMARK   12  A    between atoms: C30_47  and  C31_48 
REMARK   13  A    between atoms: C34_53  and  O7_54 
ROOT
HETATM    1  C5  UNL     1       8.193 -10.020  18.726  1.00  0.00     0.159 C 
HETATM    2  N1  UNL     1       9.077  -9.670  19.814  1.00  0.00    -0.347 N 
ATOM      3  H1  UNL     1       9.508  -8.747  19.767  1.00  0.00     0.163 HD
HETATM    4  C6  UNL     1       9.411 -10.453  20.925  1.00  0.00     0.241 C 
HETATM    5  O1  UNL     1      10.598 -10.414  21.352  1.00  0.00    -0.271 OA
HETATM    6  C7  UNL     1       8.502 -11.351  21.683  1.00  0.00     0.185 C 
HETATM    7  N3  UNL     1       9.224 -12.618  21.808  1.00  0.00    -0.346 N 
ATOM      8  H3  UNL     1      10.212 -12.572  22.055  1.00  0.00     0.163 HD
HETATM    9  C10 UNL     1       8.666 -13.888  21.617  1.00  0.00     0.241 C 
HETATM   10  O3  UNL     1       8.964 -14.864  22.388  1.00  0.00    -0.271 OA
HETATM   11  C11 UNL     1       7.706 -14.200  20.529  1.00  0.00     0.177 C 
HETATM   12  N4  UNL     1       6.597 -15.033  20.986  1.00  0.00    -0.346 N 
ATOM     13  H4  UNL     1       6.744 -15.621  21.805  1.00  0.00     0.163 HD
HETATM   14  C16 UNL     1       5.332 -15.071  20.358  1.00  0.00     0.244 C 
HETATM   15  O4  UNL     1       4.833 -16.231  20.187  1.00  0.00    -0.271 OA
HETATM   16  C17 UNL     1       4.565 -13.857  19.894  1.00  0.00     0.200 C 
HETATM   17  N5  UNL     1       4.434 -13.864  18.462  1.00  0.00    -0.343 N 
ATOM     18  H5  UNL     1       4.484 -14.796  18.049  1.00  0.00     0.163 HD
HETATM   19  C22 UNL     1       4.250 -12.847  17.528  1.00  0.00     0.241 C 
HETATM   20  O5  UNL     1       5.093 -12.756  16.550  1.00  0.00    -0.271 OA
HETATM   21  C23 UNL     1       3.197 -11.805  17.467  1.00  0.00     0.177 C 
HETATM   22  N6  UNL     1       3.493 -10.574  18.131  1.00  0.00    -0.346 N 
ATOM     23  H6  UNL     1       2.749 -10.261  18.754  1.00  0.00     0.163 HD
HETATM   24  C28 UNL     1       4.577  -9.722  18.100  1.00  0.00     0.241 C 
HETATM   25  O6  UNL     1       5.092  -9.398  19.242  1.00  0.00    -0.271 OA
HETATM   26  C29 UNL     1       5.270  -9.096  16.956  1.00  0.00     0.175 C 
HETATM   27  N7  UNL     1       6.578  -8.575  17.279  1.00  0.00    -0.359 N 
ATOM     28  H7  UNL     1       6.924  -7.905  16.591  1.00  0.00     0.162 HD
HETATM   29  C34 UNL     1       7.453  -8.786  18.311  1.00  0.00     0.135 C 
ENDROOT
BRANCH   1  30
HETATM   30  C4  UNL     1       8.985 -10.604  17.598  1.00  0.00     0.037 C 
BRANCH  30  31
HETATM   31  C2  UNL     1       9.275 -12.049  17.611  1.00  0.00    -0.020 C 
HETATM   32  C1  UNL     1      10.780 -12.262  17.925  1.00  0.00     0.009 C 
HETATM   33  C3  UNL     1       9.055 -12.808  16.332  1.00  0.00     0.009 C 
ENDBRANCH  30  31
ENDBRANCH   1  30
BRANCH  29  34
HETATM   34  O7  UNL     1       7.676  -7.737  19.049  1.00  0.00    -0.348 OA
ATOM     35  H7  UNL     1       7.157  -6.972  18.826  1.00  0.00     0.219 HD
ENDBRANCH  29  34
BRANCH   6  36
HETATM   36  C8  UNL     1       8.411 -10.842  23.129  1.00  0.00     0.134 C 
BRANCH  36  37
HETATM   37  C9  UNL     1       7.160 -11.172  23.794  1.00  0.00     0.233 C 
HETATM   38  N2  UNL     1       6.711 -10.405  24.898  1.00  0.00    -0.062 NA
HETATM   39  O2  UNL     1       6.440 -12.125  23.428  1.00  0.00    -0.277 OA
ENDBRANCH  36  37
ENDBRANCH   6  36
BRANCH  26  40
HETATM   40  C30 UNL     1       4.449  -8.114  16.183  1.00  0.00     0.038 C 
BRANCH  40  41
HETATM   41  C31 UNL     1       3.620  -7.130  16.859  1.00  0.00    -0.020 C 
HETATM   42  C32 UNL     1       4.248  -6.053  17.660  1.00  0.00     0.009 C 
HETATM   43  C33 UNL     1       2.570  -6.467  15.955  1.00  0.00     0.009 C 
ENDBRANCH  40  41
ENDBRANCH  26  40
BRANCH  11  44
HETATM   44  C12 UNL     1       8.377 -14.742  19.310  1.00  0.00     0.038 C 
BRANCH  44  45
HETATM   45  C13 UNL     1       8.653 -16.200  19.296  1.00  0.00    -0.020 C 
HETATM   46  C14 UNL     1      10.157 -16.341  18.999  1.00  0.00     0.009 C 
HETATM   47  C15 UNL     1       7.972 -16.968  18.184  1.00  0.00     0.009 C 
ENDBRANCH  44  45
ENDBRANCH  11  44
BRANCH  21  48
HETATM   48  C24 UNL     1       2.781 -11.569  16.001  1.00  0.00     0.038 C 
BRANCH  48  49
HETATM   49  C25 UNL     1       1.869 -12.674  15.537  1.00  0.00    -0.020 C 
HETATM   50  C26 UNL     1       0.469 -12.574  16.072  1.00  0.00     0.009 C 
HETATM   51  C27 UNL     1       1.773 -12.503  14.012  1.00  0.00     0.009 C 
ENDBRANCH  48  49
ENDBRANCH  21  48
BRANCH  16  52
HETATM   52  C18 UNL     1       3.387 -13.525  20.695  1.00  0.00     0.010 C 
BRANCH  52  53
HETATM   53  C19 UNL     1       2.020 -13.905  20.349  1.00  0.00    -0.089 C 
HETATM   54  C20 UNL     1       1.467 -15.157  20.964  1.00  0.00     0.042 C 
HETATM   55  C21 UNL     1       1.009 -12.781  20.265  1.00  0.00     0.042 C 
ENDBRANCH  52  53
ENDBRANCH  16  52
TORSDOF 13
ENDMDL
MODEL 3
REMARK VINA RESULT: -5.769874537      2.337      7.741
REMARK  13 active torsions:
REMARK  status: ('A' for Active; 'I' for Inactive)
REMARK    1  A    between atoms: C2_2  and  C4_4 
REMARK    2  A    between atoms: C4_4  and  C5_5 
REMARK    3  A    between atoms: C7_10  and  C8_11 
REMARK    4  A    between atoms: C8_11  and  C9_12 
REMARK    5  A    between atoms: C11_19  and  C12_20 
REMARK    6  A    between atoms: C12_20  and  C13_21 
REMARK    7  A    between atoms: C17_28  and  C18_29 
REMARK    8  A    between atoms: C18_29  and  C19_30 
REMARK    9  A    between atoms: C23_37  and  C24_38 
REMARK   10  A    between atoms: C24_38  and  C25_39 
REMARK   11  A    between atoms: C29_46  and  C30_47 
REMARK   12  A    between atoms: C30_47  and  C31_48 
REMARK   13  A    between atoms: C34_53  and  O7_54 
ROOT
HETATM    1  C5  UNL     1       4.005 -10.634  17.534  1.00  0.00     0.159 C 
HETATM    2  N1  UNL     1       3.651  -9.253  17.301  1.00  0.00    -0.347 N 
ATOM      3  H1  UNL     1       2.712  -9.082  16.942  1.00  0.00     0.163 HD
HETATM    4  C6  UNL     1       4.449  -8.122  17.512  1.00  0.00     0.241 C 
HETATM    5  O1  UNL     1       4.377  -7.175  16.681  1.00  0.00    -0.271 OA
HETATM    6  C7  UNL     1       5.396  -7.902  18.635  1.00  0.00     0.185 C 
HETATM    7  N3  UNL     1       6.640  -7.449  18.009  1.00  0.00    -0.346 N 
ATOM      8  H3  UNL     1       6.565  -6.755  17.266  1.00  0.00     0.163 HD
HETATM    9  C10 UNL     1       7.924  -7.891  18.350  1.00  0.00     0.241 C 
HETATM   10  O3  UNL     1       8.906  -7.076  18.420  1.00  0.00    -0.271 OA
HETATM   11  C11 UNL     1       8.243  -9.309  18.651  1.00  0.00     0.177 C 
HETATM   12  N4  UNL     1       9.125  -9.449  19.806  1.00  0.00    -0.346 N 
ATOM     13  H4  UNL     1       9.728  -8.663  20.048  1.00  0.00     0.163 HD
HETATM   14  C16 UNL     1       9.194 -10.610  20.607  1.00  0.00     0.244 C 
HETATM   15  O4  UNL     1      10.366 -11.006  20.911  1.00  0.00    -0.271 OA
HETATM   16  C17 UNL     1       7.996 -11.382  21.106  1.00  0.00     0.200 C 
HETATM   17  N5  UNL     1       7.973 -12.699  20.529  1.00  0.00    -0.343 N 
ATOM     18  H5  UNL     1       8.892 -13.040  20.246  1.00  0.00     0.163 HD
HETATM   19  C22 UNL     1       6.941 -13.601  20.283  1.00  0.00     0.241 C 
HETATM   20  O5  UNL     1       6.796 -14.049  19.077  1.00  0.00    -0.271 OA
HETATM   21  C23 UNL     1       5.936 -14.159  21.219  1.00  0.00     0.177 C 
HETATM   22  N6  UNL     1       4.712 -13.430  21.334  1.00  0.00    -0.346 N 
ATOM     23  H6  UNL     1       4.441 -13.242  22.299  1.00  0.00     0.163 HD
HETATM   24  C28 UNL     1       3.821 -12.929  20.407  1.00  0.00     0.241 C 
HETATM   25  O6  UNL     1       3.507 -11.679  20.523  1.00  0.00    -0.271 OA
HETATM   26  C29 UNL     1       3.143 -13.593  19.275  1.00  0.00     0.175 C 
HETATM   27  N7  UNL     1       2.584 -12.676  18.310  1.00  0.00    -0.359 N 
ATOM     28  H7  UNL     1       1.886 -13.108  17.704  1.00  0.00     0.162 HD
HETATM   29  C34 UNL     1       2.789 -11.350  18.034  1.00  0.00     0.135 C 
ENDROOT
BRANCH   1  30
HETATM   30  C4  UNL     1       4.533 -11.241  16.272  1.00  0.00     0.037 C 
BRANCH  30  31
HETATM   31  C2  UNL     1       3.662 -11.267  15.082  1.00  0.00    -0.020 C 
HETATM   32  C1  UNL     1       3.342 -12.743  14.721  1.00  0.00     0.009 C 
HETATM   33  C3  UNL     1       4.215 -10.689  13.809  1.00  0.00     0.009 C 
ENDBRANCH  30  31
ENDBRANCH   1  30
BRANCH  29  34
HETATM   34  O7  UNL     1       1.750 -10.593  18.241  1.00  0.00    -0.348 OA
ATOM     35  H7  UNL     1       1.405 -10.618  19.125  1.00  0.00     0.219 HD
ENDBRANCH  29  34
BRANCH   6  36
HETATM   36  C8  UNL     1       4.926  -6.678  19.434  1.00  0.00     0.134 C 
BRANCH  36  37
HETATM   37  C9  UNL     1       3.617  -6.841  20.048  1.00  0.00     0.233 C 
HETATM   38  N2  UNL     1       2.981  -8.108  20.054  1.00  0.00    -0.062 NA
HETATM   39  O2  UNL     1       3.010  -5.893  20.587  1.00  0.00    -0.277 OA
ENDBRANCH  36  37
ENDBRANCH   6  36
BRANCH  26  40
HETATM   40  C30 UNL     1       2.172 -14.663  19.663  1.00  0.00     0.038 C 
BRANCH  40  41
HETATM   41  C31 UNL     1       1.340 -14.529  20.846  1.00  0.00    -0.020 C 
HETATM   42  C32 UNL     1       0.142 -13.657  20.818  1.00  0.00     0.009 C 
HETATM   43  C33 UNL     1       0.908 -15.868  21.464  1.00  0.00     0.009 C 
ENDBRANCH  40  41
ENDBRANCH  26  40
BRANCH  11  44
HETATM   44  C12 UNL     1       8.731 -10.054  17.452  1.00  0.00     0.038 C 
BRANCH  44  45
HETATM   45  C13 UNL     1       8.624 -11.533  17.500  1.00  0.00    -0.020 C 
HETATM   46  C14 UNL     1      10.069 -12.062  17.458  1.00  0.00     0.009 C 
HETATM   47  C15 UNL     1       7.953 -12.162  16.298  1.00  0.00     0.009 C 
ENDBRANCH  44  45
ENDBRANCH  11  44
BRANCH  21  48
HETATM   48  C24 UNL     1       5.679 -15.643  20.885  1.00  0.00     0.038 C 
BRANCH  48  49
HETATM   49  C25 UNL     1       4.749 -16.249  21.902  1.00  0.00    -0.020 C 
HETATM   50  C26 UNL     1       4.225 -17.603  21.518  1.00  0.00     0.009 C 
HETATM   51  C27 UNL     1       5.607 -16.448  23.163  1.00  0.00     0.009 C 
ENDBRANCH  48  49
ENDBRANCH  21  48
BRANCH  16  52
HETATM   52  C18 UNL     1       7.726 -11.249  22.538  1.00  0.00     0.010 C 
BRANCH  52  53
HETATM   53  C19 UNL     1       8.174 -12.198  23.554  1.00  0.00    -0.089 C 
HETATM   54  C20 UNL     1       9.433 -11.873  24.305  1.00  0.00     0.042 C 
HETATM   55  C21 UNL     1       7.098 -12.812  24.424  1.00  0.00     0.042 C 
ENDBRANCH  52  53
ENDBRANCH  16  52
TORSDOF 13
ENDMDL
MODEL 4
REMARK VINA RESULT: -5.602719630      2.077      4.575
REMARK  13 active torsions:
REMARK  status: ('A' for Active; 'I' for Inactive)
REMARK    1  A    between atoms: C2_2  and  C4_4 
REMARK    2  A    between atoms: C4_4  and  C5_5 
REMARK    3  A    between atoms: C7_10  and  C8_11 
REMARK    4  A    between atoms: C8_11  and  C9_12 
REMARK    5  A    between atoms: C11_19  and  C12_20 
REMARK    6  A    between atoms: C12_20  and  C13_21 
REMARK    7  A    between atoms: C17_28  and  C18_29 
REMARK    8  A    between atoms: C18_29  and  C19_30 
REMARK    9  A    between atoms: C23_37  and  C24_38 
REMARK   10  A    between atoms: C24_38  and  C25_39 
REMARK   11  A    between atoms: C29_46  and  C30_47 
REMARK   12  A    between atoms: C30_47  and  C31_48 
REMARK   13  A    between atoms: C34_53  and  O7_54 
ROOT
HETATM    1  C5  UNL     1       7.097 -12.079  19.092  1.00  0.00     0.159 C 
HETATM    2  N1  UNL     1       7.272 -13.056  20.142  1.00  0.00    -0.347 N 
ATOM      3  H1  UNL     1       8.028 -12.878  20.803  1.00  0.00     0.163 HD
HETATM    4  C6  UNL     1       6.522 -14.218  20.357  1.00  0.00     0.241 C 
HETATM    5  O1  UNL     1       7.125 -15.257  20.745  1.00  0.00    -0.271 OA
HETATM    6  C7  UNL     1       5.056 -14.374  20.177  1.00  0.00     0.185 C 
HETATM    7  N3  UNL     1       4.890 -15.594  19.385  1.00  0.00    -0.346 N 
ATOM      8  H3  UNL     1       5.457 -16.401  19.643  1.00  0.00     0.163 HD
HETATM    9  C10 UNL     1       4.014 -15.742  18.303  1.00  0.00     0.241 C 
HETATM   10  O3  UNL     1       3.337 -16.814  18.143  1.00  0.00    -0.271 OA
HETATM   11  C11 UNL     1       3.804 -14.691  17.277  1.00  0.00     0.177 C 
HETATM   12  N4  UNL     1       2.396 -14.527  16.926  1.00  0.00    -0.346 N 
ATOM     13  H4  UNL     1       1.770 -15.318  17.071  1.00  0.00     0.163 HD
HETATM   14  C16 UNL     1       1.851 -13.336  16.396  1.00  0.00     0.244 C 
HETATM   15  O4  UNL     1       1.056 -13.480  15.411  1.00  0.00    -0.271 OA
HETATM   16  C17 UNL     1       2.148 -11.950  16.915  1.00  0.00     0.200 C 
HETATM   17  N5  UNL     1       2.843 -11.180  15.918  1.00  0.00    -0.343 N 
ATOM     18  H5  UNL     1       2.667 -11.492  14.962  1.00  0.00     0.163 HD
HETATM   19  C22 UNL     1       3.708 -10.092  16.002  1.00  0.00     0.241 C 
HETATM   20  O5  UNL     1       4.871 -10.192  15.443  1.00  0.00    -0.271 OA
HETATM   21  C23 UNL     1       3.505  -8.778  16.657  1.00  0.00     0.177 C 
HETATM   22  N6  UNL     1       3.922  -8.684  18.021  1.00  0.00    -0.346 N 
ATOM     23  H6  UNL     1       3.212  -8.285  18.635  1.00  0.00     0.163 HD
HETATM   24  C28 UNL     1       5.087  -9.022  18.677  1.00  0.00     0.241 C 
HETATM   25  O6  UNL     1       4.965  -9.771  19.726  1.00  0.00    -0.271 OA
HETATM   26  C29 UNL     1       6.489  -8.664  18.382  1.00  0.00     0.175 C 
HETATM   27  N7  UNL     1       7.459  -9.498  19.055  1.00  0.00    -0.359 N 
ATOM     28  H7  UNL     1       8.390  -9.084  19.086  1.00  0.00     0.162 HD
HETATM   29  C34 UNL     1       7.395 -10.726  19.660  1.00  0.00     0.135 C 
ENDROOT
BRANCH   1  30
HETATM   30  C4  UNL     1       7.990 -12.411  17.938  1.00  0.00     0.037 C 
BRANCH  30  31
HETATM   31  C2  UNL     1       9.336 -12.945  18.216  1.00  0.00    -0.020 C 
HETATM   32  C1  UNL     1      10.394 -11.875  17.834  1.00  0.00     0.009 C 
HETATM   33  C3  UNL     1       9.763 -14.171  17.458  1.00  0.00     0.009 C 
ENDBRANCH  30  31
ENDBRANCH   1  30
BRANCH  29  34
HETATM   34  O7  UNL     1       7.635 -10.706  20.939  1.00  0.00    -0.348 OA
ATOM     35  H7  UNL     1       7.420  -9.890  21.375  1.00  0.00     0.219 HD
ENDBRANCH  29  34
BRANCH   6  36
HETATM   36  C8  UNL     1       4.436 -14.736  21.535  1.00  0.00     0.134 C 
BRANCH  36  37
HETATM   37  C9  UNL     1       4.449 -13.647  22.499  1.00  0.00     0.233 C 
HETATM   38  N2  UNL     1       5.162 -13.776  23.717  1.00  0.00    -0.062 NA
HETATM   39  O2  UNL     1       3.846 -12.572  22.300  1.00  0.00    -0.277 OA
ENDBRANCH  36  37
ENDBRANCH   6  36
BRANCH  26  40
HETATM   40  C30 UNL     1       6.810  -7.209  18.518  1.00  0.00     0.038 C 
BRANCH  40  41
HETATM   41  C31 UNL     1       8.108  -6.687  18.129  1.00  0.00    -0.020 C 
HETATM   42  C32 UNL     1       8.967  -7.449  17.193  1.00  0.00     0.009 C 
HETATM   43  C33 UNL     1       8.075  -5.234  17.629  1.00  0.00     0.009 C 
ENDBRANCH  40  41
ENDBRANCH  26  40
BRANCH  11  44
HETATM   44  C12 UNL     1       4.684 -14.871  16.083  1.00  0.00     0.038 C 
BRANCH  44  45
HETATM   45  C13 UNL     1       5.337 -16.195  15.933  1.00  0.00    -0.020 C 
HETATM   46  C14 UNL     1       6.851 -15.916  15.893  1.00  0.00     0.009 C 
HETATM   47  C15 UNL     1       5.047 -16.906  14.629  1.00  0.00     0.009 C 
ENDBRANCH  44  45
ENDBRANCH  11  44
BRANCH  21  48
HETATM   48  C24 UNL     1       4.136  -7.664  15.797  1.00  0.00     0.038 C 
BRANCH  48  49
HETATM   49  C25 UNL     1       3.675  -6.313  16.278  1.00  0.00    -0.020 C 
HETATM   50  C26 UNL     1       4.704  -5.230  16.133  1.00  0.00     0.009 C 
HETATM   51  C27 UNL     1       2.503  -5.936  15.357  1.00  0.00     0.009 C 
ENDBRANCH  48  49
ENDBRANCH  21  48
BRANCH  16  52
HETATM   52  C18 UNL     1       1.050 -11.311  17.640  1.00  0.00     0.010 C 
BRANCH  52  53
HETATM   53  C19 UNL     1       0.780 -11.501  19.063  1.00  0.00    -0.089 C 
HETATM   54  C20 UNL     1       1.585 -10.695  20.040  1.00  0.00     0.042 C 
HETATM   55  C21 UNL     1      -0.674 -11.644  19.460  1.00  0.00     0.042 C 
ENDBRANCH  52  53
ENDBRANCH  16  52
TORSDOF 13
ENDMDL
MODEL 5
REMARK VINA RESULT: -5.512517482      2.226      6.867
REMARK  13 active torsions:
REMARK  status: ('A' for Active; 'I' for Inactive)
REMARK    1  A    between atoms: C2_2  and  C4_4 
REMARK    2  A    between atoms: C4_4  and  C5_5 
REMARK    3  A    between atoms: C7_10  and  C8_11 
REMARK    4  A    between atoms: C8_11  and  C9_12 
REMARK    5  A    between atoms: C11_19  and  C12_20 
REMARK    6  A    between atoms: C12_20  and  C13_21 
REMARK    7  A    between atoms: C17_28  and  C18_29 
REMARK    8  A    between atoms: C18_29  and  C19_30 
REMARK    9  A    between atoms: C23_37  and  C24_38 
REMARK   10  A    between atoms: C24_38  and  C25_39 
REMARK   11  A    between atoms: C29_46  and  C30_47 
REMARK   12  A    between atoms: C30_47  and  C31_48 
REMARK   13  A    between atoms: C34_53  and  O7_54 
ROOT
HETATM    1  C5  UNL     1       3.693 -12.858  17.249  1.00  0.00     0.159 C 
HETATM    2  N1  UNL     1       3.627 -14.229  16.798  1.00  0.00    -0.347 N 
ATOM      3  H1  UNL     1       2.929 -14.437  16.083  1.00  0.00     0.163 HD
HETATM    4  C6  UNL     1       4.412 -15.306  17.228  1.00  0.00     0.241 C 
HETATM    5  O1  UNL     1       3.862 -16.435  17.354  1.00  0.00    -0.271 OA
HETATM    6  C7  UNL     1       5.859 -15.272  17.562  1.00  0.00     0.185 C 
HETATM    7  N3  UNL     1       5.974 -15.945  18.856  1.00  0.00    -0.346 N 
ATOM      8  H3  UNL     1       5.444 -16.807  18.985  1.00  0.00     0.163 HD
HETATM    9  C10 UNL     1       6.753 -15.502  19.932  1.00  0.00     0.241 C 
HETATM   10  O3  UNL     1       7.430 -16.323  20.640  1.00  0.00    -0.271 OA
HETATM   11  C11 UNL     1       6.854 -14.076  20.329  1.00  0.00     0.177 C 
HETATM   12  N4  UNL     1       8.222 -13.683  20.653  1.00  0.00    -0.346 N 
ATOM     13  H4  UNL     1       8.872 -14.408  20.955  1.00  0.00     0.163 HD
HETATM   14  C16 UNL     1       8.700 -12.355  20.573  1.00  0.00     0.244 C 
HETATM   15  O4  UNL     1       9.407 -11.960  21.556  1.00  0.00    -0.271 OA
HETATM   16  C17 UNL     1       8.427 -11.412  19.426  1.00  0.00     0.200 C 
HETATM   17  N5  UNL     1       7.635 -10.297  19.872  1.00  0.00    -0.343 N 
ATOM     18  H5  UNL     1       7.731 -10.097  20.868  1.00  0.00     0.163 HD
HETATM   19  C22 UNL     1       6.763  -9.437  19.209  1.00  0.00     0.241 C 
HETATM   20  O5  UNL     1       5.558  -9.320  19.664  1.00  0.00    -0.271 OA
HETATM   21  C23 UNL     1       7.003  -8.593  18.014  1.00  0.00     0.177 C 
HETATM   22  N6  UNL     1       6.707  -9.194  16.751  1.00  0.00    -0.346 N 
ATOM     23  H6  UNL     1       7.461  -9.102  16.072  1.00  0.00     0.163 HD
HETATM   24  C28 UNL     1       5.609  -9.873  16.263  1.00  0.00     0.241 C 
HETATM   25  O6  UNL     1       5.835 -11.027  15.723  1.00  0.00    -0.271 OA
HETATM   26  C29 UNL     1       4.181  -9.498  16.249  1.00  0.00     0.175 C 
HETATM   27  N7  UNL     1       3.288 -10.606  16.001  1.00  0.00    -0.359 N 
ATOM     28  H7  UNL     1       2.356 -10.313  15.708  1.00  0.00     0.162 HD
HETATM   29  C34 UNL     1       3.425 -11.967  16.076  1.00  0.00     0.135 C 
ENDROOT
BRANCH   1  30
HETATM   30  C4  UNL     1       2.707 -12.641  18.353  1.00  0.00     0.037 C 
BRANCH  30  31
HETATM   31  C2  UNL     1       3.034 -11.671  19.415  1.00  0.00    -0.020 C 
HETATM   32  C1  UNL     1       2.693 -12.296  20.795  1.00  0.00     0.009 C 
HETATM   33  C3  UNL     1       2.292 -10.364  19.409  1.00  0.00     0.009 C 
ENDBRANCH  30  31
ENDBRANCH   1  30
BRANCH  29  34
HETATM   34  O7  UNL     1       3.298 -12.582  14.935  1.00  0.00    -0.348 OA
ATOM     35  H7  UNL     1       2.751 -12.138  14.299  1.00  0.00     0.219 HD
ENDBRANCH  29  34
BRANCH   6  36
HETATM   36  C8  UNL     1       6.601 -16.209  16.599  1.00  0.00     0.134 C 
BRANCH  36  37
HETATM   37  C9  UNL     1       8.033 -15.963  16.523  1.00  0.00     0.233 C 
HETATM   38  N2  UNL     1       8.685 -15.908  15.266  1.00  0.00    -0.062 NA
HETATM   39  O2  UNL     1       8.736 -15.793  17.540  1.00  0.00    -0.277 OA
ENDBRANCH  36  37
ENDBRANCH   6  36
BRANCH  26  40
HETATM   40  C30 UNL     1       3.850  -8.310  15.401  1.00  0.00     0.038 C 
BRANCH  40  41
HETATM   41  C31 UNL     1       3.442  -7.051  15.999  1.00  0.00    -0.020 C 
HETATM   42  C32 UNL     1       2.565  -6.121  15.249  1.00  0.00     0.009 C 
HETATM   43  C33 UNL     1       2.849  -7.190  17.410  1.00  0.00     0.009 C 
ENDBRANCH  40  41
ENDBRANCH  26  40
BRANCH  11  44
HETATM   44  C12 UNL     1       5.876 -13.707  21.395  1.00  0.00     0.038 C 
BRANCH  44  45
HETATM   45  C13 UNL     1       6.324 -13.883  22.799  1.00  0.00    -0.020 C 
HETATM   46  C14 UNL     1       5.261 -14.771  23.472  1.00  0.00     0.009 C 
HETATM   47  C15 UNL     1       6.341 -12.616  23.627  1.00  0.00     0.009 C 
ENDBRANCH  44  45
ENDBRANCH  11  44
BRANCH  21  48
HETATM   48  C24 UNL     1       6.281  -7.240  18.177  1.00  0.00     0.038 C 
BRANCH  48  49
HETATM   49  C25 UNL     1       7.286  -6.122  18.255  1.00  0.00    -0.020 C 
HETATM   50  C26 UNL     1       8.694  -6.546  17.954  1.00  0.00     0.009 C 
HETATM   51  C27 UNL     1       6.875  -5.135  17.149  1.00  0.00     0.009 C 
ENDBRANCH  48  49
ENDBRANCH  21  48
BRANCH  16  52
HETATM   52  C18 UNL     1       9.575 -11.142  18.560  1.00  0.00     0.010 C 
BRANCH  52  53
HETATM   53  C19 UNL     1      10.035 -12.033  17.498  1.00  0.00    -0.089 C 
HETATM   54  C20 UNL     1      10.966 -13.147  17.876  1.00  0.00     0.042 C 
HETATM   55  C21 UNL     1       9.006 -12.436  16.464  1.00  0.00     0.042 C 
ENDBRANCH  52  53
ENDBRANCH  16  52
TORSDOF 13
ENDMDL
