MODEL 1
REMARK VINA RESULT: -6.772866157      0.000      0.000
REMARK  17 active torsions:
REMARK  status: ('A' for Active; 'I' for Inactive)
REMARK    1  A    between atoms: O1_2  and  C2_3 
REMARK    2  A    between atoms: C6_7  and  C7_8 
REMARK    3  A    between atoms: C7_8  and  C8_9 
REMARK    4  A    between atoms: C10_14  and  C11_15 
REMARK    5  A    between atoms: C11_15  and  C12_16 
REMARK    6  A    between atoms: C15_21  and  O3_22 
REMARK    7  A    between atoms: C16_24  and  C17_25 
REMARK    8  A    between atoms: C17_25  and  C18_26 
REMARK    9  A    between atoms: C22_31  and  O4_32 
REMARK   10  A    between atoms: C23_34  and  C24_35 
REMARK   11  A    between atoms: C24_35  and  C25_36 
REMARK   12  A    between atoms: C25_36  and  C26_37 
REMARK   13  A    between atoms: C26_37  and  N4_38 
REMARK   14  A    between atoms: C27_44  and  O5_45 
REMARK   15  A    between atoms: C28_47  and  C29_48 
REMARK   16  A    between atoms: C29_48  and  C30_49 
REMARK   17  A    between atoms: C30_49  and  C31_50 
ROOT
HETATM    1  C8  UNL     1       6.786   3.721  11.435  1.00  0.00     0.181 C 
HETATM    2  N1  UNL     1       7.072   3.440  12.815  1.00  0.00    -0.346 N 
ATOM      3  H1  UNL     1       6.924   4.196  13.484  1.00  0.00     0.163 HD
HETATM    4  C9  UNL     1       7.535   2.218  13.321  1.00  0.00     0.241 C 
HETATM    5  O2  UNL     1       8.382   2.135  14.241  1.00  0.00    -0.271 OA
HETATM    6  C10 UNL     1       7.029   0.906  12.773  1.00  0.00     0.175 C 
HETATM    7  N2  UNL     1       6.096   0.467  13.819  1.00  0.00    -0.359 N 
ATOM      8  H2  UNL     1       6.512   0.020  14.636  1.00  0.00     0.162 HD
HETATM    9  C15 UNL     1       4.705   0.593  13.824  1.00  0.00     0.135 C 
HETATM   10  C16 UNL     1       3.812   0.009  12.822  1.00  0.00     0.160 C 
HETATM   11  N3  UNL     1       2.398   0.392  12.977  1.00  0.00    -0.356 N 
HETATM   12  C21 UNL     1       1.856   0.438  14.315  1.00  0.00     0.152 C 
HETATM   13  C22 UNL     1       1.531   0.674  11.889  1.00  0.00     0.137 C 
HETATM   14  C23 UNL     1       1.734   1.667  10.809  1.00  0.00     0.158 C 
HETATM   15  N5  UNL     1       2.367   2.888  11.208  1.00  0.00    -0.357 N 
ATOM     16  H5  UNL     1       2.502   2.942  12.218  1.00  0.00     0.162 HD
HETATM   17  C27 UNL     1       2.837   4.006  10.557  1.00  0.00     0.159 C 
HETATM   18  C28 UNL     1       3.951   4.286   9.646  1.00  0.00     0.062 C 
HETATM   19  N6  UNL     1       4.989   5.140  10.241  1.00  0.00    -0.325 N 
ATOM     20  H6  UNL     1       5.118   6.054   9.808  1.00  0.00     0.169 HD
HETATM   21  C34 UNL     1       5.813   4.855  11.317  1.00  0.00     0.245 C 
HETATM   22  O6  UNL     1       5.770   5.623  12.348  1.00  0.00    -0.271 OA
ENDROOT
BRANCH   1  23
HETATM   23  C7  UNL     1       8.124   4.133  10.792  1.00  0.00     0.073 C 
BRANCH  23  24
HETATM   24  C6  UNL     1       8.188   3.827   9.364  1.00  0.00    -0.053 A 
HETATM   25  C5  UNL     1       8.754   4.712   8.496  1.00  0.00     0.007 A 
HETATM   26  C4  UNL     1       8.803   4.417   7.155  1.00  0.00     0.003 A 
HETATM   27  C3  UNL     1       8.297   3.253   6.651  1.00  0.00     0.037 A 
HETATM   28  C2  UNL     1       7.726   2.370   7.556  1.00  0.00     0.068 A 
HETATM   29  C35 UNL     1       7.665   2.643   8.906  1.00  0.00     0.044 A 
BRANCH  28  30
HETATM   30  O1  UNL     1       7.186   1.161   7.133  1.00  0.00    -0.356 OA
HETATM   31  C1  UNL     1       6.947   0.981   5.730  1.00  0.00     0.210 C 
ENDBRANCH  28  30
ENDBRANCH  23  24
ENDBRANCH   1  23
BRANCH   6  32
HETATM   32  C11 UNL     1       8.277   0.024  12.747  1.00  0.00     0.038 C 
BRANCH  32  33
HETATM   33  C12 UNL     1       9.294   0.423  11.739  1.00  0.00    -0.020 C 
HETATM   34  C13 UNL     1      10.671  -0.145  12.081  1.00  0.00     0.009 C 
HETATM   35  C14 UNL     1       8.887  -0.138  10.399  1.00  0.00     0.009 C 
ENDBRANCH  32  33
ENDBRANCH   6  32
BRANCH  18  36
HETATM   36  C29 UNL     1       4.447   3.274   8.704  1.00  0.00     0.062 C 
BRANCH  36  37
HETATM   37  C30 UNL     1       4.137   3.514   7.250  1.00  0.00     0.010 C 
BRANCH  37  38
HETATM   38  C31 UNL     1       4.939   4.668   6.684  1.00  0.00    -0.023 C 
HETATM   39  C32 UNL     1       4.192   5.959   6.767  1.00  0.00     0.009 C 
HETATM   40  C33 UNL     1       5.317   4.335   5.276  1.00  0.00     0.009 C 
ENDBRANCH  37  38
ENDBRANCH  36  37
ENDBRANCH  18  36
BRANCH  17  41
HETATM   41  O5  UNL     1       2.145   5.101  10.797  1.00  0.00    -0.345 OA
ATOM     42  H5  UNL     1       2.510   5.652  11.479  1.00  0.00     0.219 HD
ENDBRANCH  17  41
BRANCH   9  43
HETATM   43  O3  UNL     1       4.189   1.284  14.799  1.00  0.00    -0.348 OA
ATOM     44  H3  UNL     1       3.240   1.327  14.831  1.00  0.00     0.219 HD
ENDBRANCH   9  43
BRANCH  10  45
HETATM   45  C17 UNL     1       3.915  -1.470  12.606  1.00  0.00     0.037 C 
BRANCH  45  46
HETATM   46  C18 UNL     1       4.506  -2.304  13.673  1.00  0.00    -0.020 C 
HETATM   47  C19 UNL     1       3.405  -3.324  14.117  1.00  0.00     0.009 C 
HETATM   48  C20 UNL     1       5.655  -3.194  13.257  1.00  0.00     0.009 C 
ENDBRANCH  45  46
ENDBRANCH  10  45
BRANCH  14  49
HETATM   49  C24 UNL     1       0.392   1.899  10.143  1.00  0.00     0.035 C 
BRANCH  49  50
HETATM   50  C25 UNL     1       0.169   3.259   9.601  1.00  0.00     0.030 C 
BRANCH  50  51
HETATM   51  C26 UNL     1       0.691   3.403   8.176  1.00  0.00     0.230 C 
BRANCH  51  52
HETATM   52  N4  UNL     1       0.805   4.799   7.795  1.00  0.00    -0.079 N 
ATOM     53  H43 UNL     1       1.703   5.192   8.077  1.00  0.00     0.274 HD
ATOM     54  H42 UNL     1       0.897   4.905   6.785  1.00  0.00     0.274 HD
ATOM     55  H41 UNL     1       0.025   5.347   8.160  1.00  0.00     0.274 HD
ENDBRANCH  51  52
ENDBRANCH  50  51
ENDBRANCH  49  50
ENDBRANCH  14  49
BRANCH  13  56
HETATM   56  O4  UNL     1       0.446  -0.050  11.882  1.00  0.00    -0.348 OA
ATOM     57  H4  UNL     1      -0.059   0.026  11.081  1.00  0.00     0.219 HD
ENDBRANCH  13  56
TORSDOF 17
ENDMDL
MODEL 2
REMARK VINA RESULT: -6.472703017      9.558     15.020
REMARK  17 active torsions:
REMARK  status: ('A' for Active; 'I' for Inactive)
REMARK    1  A    between atoms: O1_2  and  C2_3 
REMARK    2  A    between atoms: C6_7  and  C7_8 
REMARK    3  A    between atoms: C7_8  and  C8_9 
REMARK    4  A    between atoms: C10_14  and  C11_15 
REMARK    5  A    between atoms: C11_15  and  C12_16 
REMARK    6  A    between atoms: C15_21  and  O3_22 
REMARK    7  A    between atoms: C16_24  and  C17_25 
REMARK    8  A    between atoms: C17_25  and  C18_26 
REMARK    9  A    between atoms: C22_31  and  O4_32 
REMARK   10  A    between atoms: C23_34  and  C24_35 
REMARK   11  A    between atoms: C24_35  and  C25_36 
REMARK   12  A    between atoms: C25_36  and  C26_37 
REMARK   13  A    between atoms: C26_37  and  N4_38 
REMARK   14  A    between atoms: C27_44  and  O5_45 
REMARK   15  A    between atoms: C28_47  and  C29_48 
REMARK   16  A    between atoms: C29_48  and  C30_49 
REMARK   17  A    between atoms: C30_49  and  C31_50 
ROOT
HETATM    1  C8  UNL     1       7.346  -7.675  17.803  1.00  0.00     0.181 C 
HETATM    2  N1  UNL     1       6.550  -7.124  16.741  1.00  0.00    -0.346 N 
ATOM      3  H1  UNL     1       7.019  -6.946  15.852  1.00  0.00     0.163 HD
HETATM    4  C9  UNL     1       5.187  -6.811  16.820  1.00  0.00     0.241 C 
HETATM    5  O2  UNL     1       4.684  -5.799  16.276  1.00  0.00    -0.271 OA
HETATM    6  C10 UNL     1       4.228  -7.692  17.583  1.00  0.00     0.175 C 
HETATM    7  N2  UNL     1       3.535  -8.409  16.505  1.00  0.00    -0.359 N 
ATOM      8  H2  UNL     1       2.778  -7.906  16.041  1.00  0.00     0.162 HD
HETATM    9  C15 UNL     1       3.795  -9.701  16.041  1.00  0.00     0.135 C 
HETATM   10  C16 UNL     1       3.715 -10.912  16.861  1.00  0.00     0.160 C 
HETATM   11  N3  UNL     1       4.160 -12.136  16.172  1.00  0.00    -0.356 N 
HETATM   12  C21 UNL     1       3.767 -12.314  14.793  1.00  0.00     0.152 C 
HETATM   13  C22 UNL     1       4.910 -13.167  16.797  1.00  0.00     0.137 C 
HETATM   14  C23 UNL     1       6.203 -13.036  17.507  1.00  0.00     0.158 C 
HETATM   15  N5  UNL     1       7.119 -12.089  16.945  1.00  0.00    -0.357 N 
ATOM     16  H5  UNL     1       6.785 -11.703  16.063  1.00  0.00     0.162 HD
HETATM   17  C27 UNL     1       8.343 -11.575  17.310  1.00  0.00     0.159 C 
HETATM   18  C28 UNL     1       8.820 -10.685  18.373  1.00  0.00     0.062 C 
HETATM   19  N6  UNL     1       9.283  -9.382  17.876  1.00  0.00    -0.325 N 
ATOM     20  H6  UNL     1      10.274  -9.178  18.008  1.00  0.00     0.169 HD
HETATM   21  C34 UNL     1       8.539  -8.395  17.249  1.00  0.00     0.245 C 
HETATM   22  O6  UNL     1       8.875  -8.028  16.064  1.00  0.00    -0.271 OA
ENDROOT
BRANCH   1  23
HETATM   23  C7  UNL     1       7.824  -6.480  18.649  1.00  0.00     0.073 C 
BRANCH  23  24
HETATM   24  C6  UNL     1       8.522  -5.467  17.861  1.00  0.00    -0.053 A 
HETATM   25  C5  UNL     1       9.884  -5.401  17.875  1.00  0.00     0.007 A 
HETATM   26  C4  UNL     1      10.529  -4.440  17.136  1.00  0.00     0.003 A 
HETATM   27  C3  UNL     1       9.848  -3.533  16.376  1.00  0.00     0.037 A 
HETATM   28  C2  UNL     1       8.463  -3.621  16.378  1.00  0.00     0.068 A 
HETATM   29  C35 UNL     1       7.793  -4.577  17.112  1.00  0.00     0.044 A 
BRANCH  28  30
HETATM   30  O1  UNL     1       7.688  -2.740  15.634  1.00  0.00    -0.356 OA
HETATM   31  C1  UNL     1       6.637  -2.031  16.304  1.00  0.00     0.210 C 
ENDBRANCH  28  30
ENDBRANCH  23  24
ENDBRANCH   1  23
BRANCH   6  32
HETATM   32  C11 UNL     1       3.292  -6.694  18.266  1.00  0.00     0.038 C 
BRANCH  32  33
HETATM   33  C12 UNL     1       3.374  -6.688  19.750  1.00  0.00    -0.020 C 
HETATM   34  C13 UNL     1       4.498  -5.777  20.243  1.00  0.00     0.009 C 
HETATM   35  C14 UNL     1       2.075  -6.151  20.299  1.00  0.00     0.009 C 
ENDBRANCH  32  33
ENDBRANCH   6  32
BRANCH  18  36
HETATM   36  C29 UNL     1       8.180 -10.652  19.694  1.00  0.00     0.062 C 
BRANCH  36  37
HETATM   37  C30 UNL     1       8.908 -11.363  20.803  1.00  0.00     0.010 C 
BRANCH  37  38
HETATM   38  C31 UNL     1      10.157 -10.617  21.228  1.00  0.00    -0.023 C 
HETATM   39  C32 UNL     1      11.398 -11.402  20.946  1.00  0.00     0.009 C 
HETATM   40  C33 UNL     1      10.034 -10.277  22.679  1.00  0.00     0.009 C 
ENDBRANCH  37  38
ENDBRANCH  36  37
ENDBRANCH  18  36
BRANCH  17  41
HETATM   41  O5  UNL     1       9.340 -11.950  16.534  1.00  0.00    -0.345 OA
ATOM     42  H5  UNL     1       9.352 -12.879  16.338  1.00  0.00     0.219 HD
ENDBRANCH  17  41
BRANCH   9  43
HETATM   43  O3  UNL     1       4.129  -9.811  14.788  1.00  0.00    -0.348 OA
ATOM     44  H3  UNL     1       4.187 -10.694  14.442  1.00  0.00     0.219 HD
ENDBRANCH   9  43
BRANCH  10  45
HETATM   45  C17 UNL     1       2.417 -11.168  17.563  1.00  0.00     0.037 C 
BRANCH  45  46
HETATM   46  C18 UNL     1       2.438 -11.460  19.012  1.00  0.00    -0.020 C 
HETATM   47  C19 UNL     1       2.312 -10.089  19.756  1.00  0.00     0.009 C 
HETATM   48  C20 UNL     1       1.264 -12.251  19.543  1.00  0.00     0.009 C 
ENDBRANCH  45  46
ENDBRANCH  10  45
BRANCH  14  49
HETATM   49  C24 UNL     1       6.802 -14.424  17.625  1.00  0.00     0.035 C 
BRANCH  49  50
HETATM   50  C25 UNL     1       7.462 -14.946  16.407  1.00  0.00     0.030 C 
BRANCH  50  51
HETATM   51  C26 UNL     1       8.874 -15.448  16.688  1.00  0.00     0.230 C 
BRANCH  51  52
HETATM   52  N4  UNL     1       9.849 -14.781  15.844  1.00  0.00    -0.079 N 
ATOM     53  H43 UNL     1       9.703 -15.001  14.858  1.00  0.00     0.274 HD
ATOM     54  H42 UNL     1       9.684 -13.775  15.806  1.00  0.00     0.274 HD
ATOM     55  H41 UNL     1      10.802 -14.993  16.139  1.00  0.00     0.274 HD
ENDBRANCH  51  52
ENDBRANCH  50  51
ENDBRANCH  49  50
ENDBRANCH  14  49
BRANCH  13  56
HETATM   56  O4  UNL     1       4.356 -14.345  16.710  1.00  0.00    -0.348 OA
ATOM     57  H4  UNL     1       4.979 -15.053  16.600  1.00  0.00     0.219 HD
ENDBRANCH  13  56
TORSDOF 17
ENDMDL
MODEL 3
REMARK VINA RESULT: -6.415663413      9.622     15.143
REMARK  17 active torsions:
REMARK  status: ('A' for Active; 'I' for Inactive)
REMARK    1  A    between atoms: O1_2  and  C2_3 
REMARK    2  A    between atoms: C6_7  and  C7_8 
REMARK    3  A    between atoms: C7_8  and  C8_9 
REMARK    4  A    between atoms: C10_14  and  C11_15 
REMARK    5  A    between atoms: C11_15  and  C12_16 
REMARK    6  A    between atoms: C15_21  and  O3_22 
REMARK    7  A    between atoms: C16_24  and  C17_25 
REMARK    8  A    between atoms: C17_25  and  C18_26 
REMARK    9  A    between atoms: C22_31  and  O4_32 
REMARK   10  A    between atoms: C23_34  and  C24_35 
REMARK   11  A    between atoms: C24_35  and  C25_36 
REMARK   12  A    between atoms: C25_36  and  C26_37 
REMARK   13  A    between atoms: C26_37  and  N4_38 
REMARK   14  A    between atoms: C27_44  and  O5_45 
REMARK   15  A    between atoms: C28_47  and  C29_48 
REMARK   16  A    between atoms: C29_48  and  C30_49 
REMARK   17  A    between atoms: C30_49  and  C31_50 
ROOT
HETATM    1  C8  UNL     1       7.369  -7.751  17.814  1.00  0.00     0.181 C 
HETATM    2  N1  UNL     1       6.573  -7.200  16.753  1.00  0.00    -0.346 N 
ATOM      3  H1  UNL     1       7.041  -7.015  15.866  1.00  0.00     0.163 HD
HETATM    4  C9  UNL     1       5.207  -6.894  16.831  1.00  0.00     0.241 C 
HETATM    5  O2  UNL     1       4.700  -5.884  16.291  1.00  0.00    -0.271 OA
HETATM    6  C10 UNL     1       4.252  -7.785  17.589  1.00  0.00     0.175 C 
HETATM    7  N2  UNL     1       3.565  -8.501  16.506  1.00  0.00    -0.359 N 
ATOM      8  H2  UNL     1       2.806  -8.000  16.043  1.00  0.00     0.162 HD
HETATM    9  C15 UNL     1       3.833  -9.790  16.037  1.00  0.00     0.135 C 
HETATM   10  C16 UNL     1       3.759 -11.005  16.851  1.00  0.00     0.160 C 
HETATM   11  N3  UNL     1       4.212 -12.223  16.157  1.00  0.00    -0.356 N 
HETATM   12  C21 UNL     1       3.823 -12.397  14.777  1.00  0.00     0.152 C 
HETATM   13  C22 UNL     1       4.967 -13.252  16.778  1.00  0.00     0.137 C 
HETATM   14  C23 UNL     1       6.259 -13.117  17.492  1.00  0.00     0.158 C 
HETATM   15  N5  UNL     1       7.170 -12.162  16.936  1.00  0.00    -0.357 N 
ATOM     16  H5  UNL     1       6.834 -11.774  16.054  1.00  0.00     0.162 HD
HETATM   17  C27 UNL     1       8.390 -11.642  17.305  1.00  0.00     0.159 C 
HETATM   18  C28 UNL     1       8.860 -10.755  18.373  1.00  0.00     0.062 C 
HETATM   19  N6  UNL     1       9.316  -9.446  17.882  1.00  0.00    -0.325 N 
ATOM     20  H6  UNL     1      10.306  -9.238  18.018  1.00  0.00     0.169 HD
HETATM   21  C34 UNL     1       8.568  -8.461  17.259  1.00  0.00     0.245 C 
HETATM   22  O6  UNL     1       8.903  -8.087  16.076  1.00  0.00    -0.271 OA
ENDROOT
BRANCH   1  23
HETATM   23  C7  UNL     1       7.839  -6.557  18.667  1.00  0.00     0.073 C 
BRANCH  23  24
HETATM   24  C6  UNL     1       8.543  -5.542  17.886  1.00  0.00    -0.053 A 
HETATM   25  C5  UNL     1       9.904  -5.462  17.930  1.00  0.00     0.007 A 
HETATM   26  C4  UNL     1      10.555  -4.499  17.197  1.00  0.00     0.003 A 
HETATM   27  C3  UNL     1       9.882  -3.604  16.416  1.00  0.00     0.037 A 
HETATM   28  C2  UNL     1       8.497  -3.708  16.390  1.00  0.00     0.068 A 
HETATM   29  C35 UNL     1       7.821  -4.665  17.115  1.00  0.00     0.044 A 
BRANCH  28  30
HETATM   30  O1  UNL     1       7.730  -2.839  15.622  1.00  0.00    -0.356 OA
HETATM   31  C1  UNL     1       6.687  -2.101  16.274  1.00  0.00     0.210 C 
ENDBRANCH  28  30
ENDBRANCH  23  24
ENDBRANCH   1  23
BRANCH   6  32
HETATM   32  C11 UNL     1       3.309  -6.796  18.274  1.00  0.00     0.038 C 
BRANCH  32  33
HETATM   33  C12 UNL     1       3.374  -6.810  19.759  1.00  0.00    -0.020 C 
HETATM   34  C13 UNL     1       4.507  -5.924  20.276  1.00  0.00     0.009 C 
HETATM   35  C14 UNL     1       2.078  -6.258  20.301  1.00  0.00     0.009 C 
ENDBRANCH  32  33
ENDBRANCH   6  32
BRANCH  18  36
HETATM   36  C29 UNL     1       8.217 -10.731  19.693  1.00  0.00     0.062 C 
BRANCH  36  37
HETATM   37  C30 UNL     1       8.332 -11.990  20.509  1.00  0.00     0.010 C 
BRANCH  37  38
HETATM   38  C31 UNL     1       7.176 -12.145  21.477  1.00  0.00    -0.023 C 
HETATM   39  C32 UNL     1       7.622 -12.041  22.899  1.00  0.00     0.009 C 
HETATM   40  C33 UNL     1       6.500 -13.450  21.201  1.00  0.00     0.009 C 
ENDBRANCH  37  38
ENDBRANCH  36  37
ENDBRANCH  18  36
BRANCH  17  41
HETATM   41  O5  UNL     1       9.390 -12.008  16.529  1.00  0.00    -0.345 OA
ATOM     42  H5  UNL     1       9.751 -12.862  16.736  1.00  0.00     0.219 HD
ENDBRANCH  17  41
BRANCH   9  43
HETATM   43  O3  UNL     1       4.170  -9.891  14.784  1.00  0.00    -0.348 OA
ATOM     44  H3  UNL     1       4.199 -10.770  14.424  1.00  0.00     0.219 HD
ENDBRANCH   9  43
BRANCH  10  45
HETATM   45  C17 UNL     1       2.462 -11.271  17.549  1.00  0.00     0.037 C 
BRANCH  45  46
HETATM   46  C18 UNL     1       2.454 -11.366  19.024  1.00  0.00    -0.020 C 
HETATM   47  C19 UNL     1       3.925 -11.135  19.504  1.00  0.00     0.009 C 
HETATM   48  C20 UNL     1       1.680 -10.290  19.751  1.00  0.00     0.009 C 
ENDBRANCH  45  46
ENDBRANCH  10  45
BRANCH  14  49
HETATM   49  C24 UNL     1       6.865 -14.502  17.605  1.00  0.00     0.035 C 
BRANCH  49  50
HETATM   50  C25 UNL     1       7.532 -15.014  16.386  1.00  0.00     0.030 C 
BRANCH  50  51
HETATM   51  C26 UNL     1       8.942 -15.521  16.671  1.00  0.00     0.230 C 
BRANCH  51  52
HETATM   52  N4  UNL     1       9.914 -14.894  15.795  1.00  0.00    -0.079 N 
ATOM     53  H43 UNL     1      10.146 -15.494  15.003  1.00  0.00     0.274 HD
ATOM     54  H42 UNL     1       9.508 -14.110  15.284  1.00  0.00     0.274 HD
ATOM     55  H41 UNL     1      10.750 -14.614  16.309  1.00  0.00     0.274 HD
ENDBRANCH  51  52
ENDBRANCH  50  51
ENDBRANCH  49  50
ENDBRANCH  14  49
BRANCH  13  56
HETATM   56  O4  UNL     1       4.421 -14.432  16.686  1.00  0.00    -0.348 OA
ATOM     57  H4  UNL     1       4.774 -14.964  15.982  1.00  0.00     0.219 HD
ENDBRANCH  13  56
TORSDOF 17
ENDMDL
MODEL 4
REMARK VINA RESULT: -6.333110085      9.624     15.081
REMARK  17 active torsions:
REMARK  status: ('A' for Active; 'I' for Inactive)
REMARK    1  A    between atoms: O1_2  and  C2_3 
REMARK    2  A    between atoms: C6_7  and  C7_8 
REMARK    3  A    between atoms: C7_8  and  C8_9 
REMARK    4  A    between atoms: C10_14  and  C11_15 
REMARK    5  A    between atoms: C11_15  and  C12_16 
REMARK    6  A    between atoms: C15_21  and  O3_22 
REMARK    7  A    between atoms: C16_24  and  C17_25 
REMARK    8  A    between atoms: C17_25  and  C18_26 
REMARK    9  A    between atoms: C22_31  and  O4_32 
REMARK   10  A    between atoms: C23_34  and  C24_35 
REMARK   11  A    between atoms: C24_35  and  C25_36 
REMARK   12  A    between atoms: C25_36  and  C26_37 
REMARK   13  A    between atoms: C26_37  and  N4_38 
REMARK   14  A    between atoms: C27_44  and  O5_45 
REMARK   15  A    between atoms: C28_47  and  C29_48 
REMARK   16  A    between atoms: C29_48  and  C30_49 
REMARK   17  A    between atoms: C30_49  and  C31_50 
ROOT
HETATM    1  C8  UNL     1       7.354  -7.718  17.788  1.00  0.00     0.181 C 
HETATM    2  N1  UNL     1       6.549  -7.151  16.742  1.00  0.00    -0.346 N 
ATOM      3  H1  UNL     1       7.011  -6.949  15.855  1.00  0.00     0.163 HD
HETATM    4  C9  UNL     1       5.183  -6.850  16.835  1.00  0.00     0.241 C 
HETATM    5  O2  UNL     1       4.670  -5.831  16.315  1.00  0.00    -0.271 OA
HETATM    6  C10 UNL     1       4.235  -7.756  17.583  1.00  0.00     0.175 C 
HETATM    7  N2  UNL     1       3.543  -8.455  16.492  1.00  0.00    -0.359 N 
ATOM      8  H2  UNL     1       2.780  -7.948  16.043  1.00  0.00     0.162 HD
HETATM    9  C15 UNL     1       3.810  -9.734  15.999  1.00  0.00     0.135 C 
HETATM   10  C16 UNL     1       3.745 -10.964  16.792  1.00  0.00     0.160 C 
HETATM   11  N3  UNL     1       4.195 -12.168  16.075  1.00  0.00    -0.356 N 
HETATM   12  C21 UNL     1       3.798 -12.319  14.694  1.00  0.00     0.152 C 
HETATM   13  C22 UNL     1       4.957 -13.207  16.673  1.00  0.00     0.137 C 
HETATM   14  C23 UNL     1       6.253 -13.081  17.380  1.00  0.00     0.158 C 
HETATM   15  N5  UNL     1       7.158 -12.114  16.835  1.00  0.00    -0.357 N 
ATOM     16  H5  UNL     1       6.816 -11.712  15.963  1.00  0.00     0.162 HD
HETATM   17  C27 UNL     1       8.379 -11.598  17.205  1.00  0.00     0.159 C 
HETATM   18  C28 UNL     1       8.855 -10.728  18.285  1.00  0.00     0.062 C 
HETATM   19  N6  UNL     1       9.305  -9.411  17.814  1.00  0.00    -0.325 N 
ATOM     20  H6  UNL     1      10.295  -9.202  17.947  1.00  0.00     0.169 HD
HETATM   21  C34 UNL     1       8.550  -8.417  17.213  1.00  0.00     0.245 C 
HETATM   22  O6  UNL     1       8.877  -8.020  16.035  1.00  0.00    -0.271 OA
ENDROOT
BRANCH   1  23
HETATM   23  C7  UNL     1       7.826  -6.539  18.658  1.00  0.00     0.073 C 
BRANCH  23  24
HETATM   24  C6  UNL     1       8.535  -5.514  17.894  1.00  0.00    -0.053 A 
HETATM   25  C5  UNL     1       9.895  -5.433  17.948  1.00  0.00     0.007 A 
HETATM   26  C4  UNL     1      10.550  -4.462  17.230  1.00  0.00     0.003 A 
HETATM   27  C3  UNL     1       9.881  -3.561  16.453  1.00  0.00     0.037 A 
HETATM   28  C2  UNL     1       8.497  -3.666  16.415  1.00  0.00     0.068 A 
HETATM   29  C35 UNL     1       7.817  -4.632  17.126  1.00  0.00     0.044 A 
BRANCH  28  30
HETATM   30  O1  UNL     1       7.734  -2.791  15.650  1.00  0.00    -0.356 OA
HETATM   31  C1  UNL     1       6.692  -2.053  16.303  1.00  0.00     0.210 C 
ENDBRANCH  28  30
ENDBRANCH  23  24
ENDBRANCH   1  23
BRANCH   6  32
HETATM   32  C11 UNL     1       3.295  -6.781  18.292  1.00  0.00     0.038 C 
BRANCH  32  33
HETATM   33  C12 UNL     1       3.397  -6.793  19.775  1.00  0.00    -0.020 C 
HETATM   34  C13 UNL     1       4.545  -5.910  20.262  1.00  0.00     0.009 C 
HETATM   35  C14 UNL     1       2.117  -6.238  20.348  1.00  0.00     0.009 C 
ENDBRANCH  32  33
ENDBRANCH   6  32
BRANCH  18  36
HETATM   36  C29 UNL     1       8.221 -10.729  19.610  1.00  0.00     0.062 C 
BRANCH  36  37
HETATM   37  C30 UNL     1       8.968 -11.445  20.702  1.00  0.00     0.010 C 
BRANCH  37  38
HETATM   38  C31 UNL     1      10.156 -10.643  21.194  1.00  0.00    -0.023 C 
HETATM   39  C32 UNL     1      11.443 -11.377  20.998  1.00  0.00     0.009 C 
HETATM   40  C33 UNL     1       9.929 -10.294  22.630  1.00  0.00     0.009 C 
ENDBRANCH  37  38
ENDBRANCH  36  37
ENDBRANCH  18  36
BRANCH  17  41
HETATM   41  O5  UNL     1       9.375 -11.948  16.416  1.00  0.00    -0.345 OA
ATOM     42  H5  UNL     1       9.317 -12.837  16.087  1.00  0.00     0.219 HD
ENDBRANCH  17  41
BRANCH   9  43
HETATM   43  O3  UNL     1       4.139  -9.814  14.743  1.00  0.00    -0.348 OA
ATOM     44  H3  UNL     1       4.199 -10.688  14.376  1.00  0.00     0.219 HD
ENDBRANCH   9  43
BRANCH  10  45
HETATM   45  C17 UNL     1       2.452 -11.245  17.495  1.00  0.00     0.037 C 
BRANCH  45  46
HETATM   46  C18 UNL     1       2.443 -11.300  18.972  1.00  0.00    -0.020 C 
HETATM   47  C19 UNL     1       3.934 -11.234  19.441  1.00  0.00     0.009 C 
HETATM   48  C20 UNL     1       1.807 -10.121  19.672  1.00  0.00     0.009 C 
ENDBRANCH  45  46
ENDBRANCH  10  45
BRANCH  14  49
HETATM   49  C24 UNL     1       6.863 -14.466  17.465  1.00  0.00     0.035 C 
BRANCH  49  50
HETATM   50  C25 UNL     1       7.233 -14.924  18.823  1.00  0.00     0.030 C 
BRANCH  50  51
HETATM   51  C26 UNL     1       6.025 -15.022  19.748  1.00  0.00     0.230 C 
BRANCH  51  52
HETATM   52  N4  UNL     1       5.029 -15.935  19.218  1.00  0.00    -0.079 N 
ATOM     53  H43 UNL     1       4.450 -15.486  18.508  1.00  0.00     0.274 HD
ATOM     54  H42 UNL     1       5.454 -16.659  18.639  1.00  0.00     0.274 HD
ATOM     55  H41 UNL     1       4.461 -16.337  19.965  1.00  0.00     0.274 HD
ENDBRANCH  51  52
ENDBRANCH  50  51
ENDBRANCH  49  50
ENDBRANCH  14  49
BRANCH  13  56
HETATM   56  O4  UNL     1       4.412 -14.386  16.563  1.00  0.00    -0.348 OA
ATOM     57  H4  UNL     1       5.039 -15.100  16.576  1.00  0.00     0.219 HD
ENDBRANCH  13  56
TORSDOF 17
ENDMDL
MODEL 5
REMARK VINA RESULT: -6.209655017      1.998      5.394
REMARK  17 active torsions:
REMARK  status: ('A' for Active; 'I' for Inactive)
REMARK    1  A    between atoms: O1_2  and  C2_3 
REMARK    2  A    between atoms: C6_7  and  C7_8 
REMARK    3  A    between atoms: C7_8  and  C8_9 
REMARK    4  A    between atoms: C10_14  and  C11_15 
REMARK    5  A    between atoms: C11_15  and  C12_16 
REMARK    6  A    between atoms: C15_21  and  O3_22 
REMARK    7  A    between atoms: C16_24  and  C17_25 
REMARK    8  A    between atoms: C17_25  and  C18_26 
REMARK    9  A    between atoms: C22_31  and  O4_32 
REMARK   10  A    between atoms: C23_34  and  C24_35 
REMARK   11  A    between atoms: C24_35  and  C25_36 
REMARK   12  A    between atoms: C25_36  and  C26_37 
REMARK   13  A    between atoms: C26_37  and  N4_38 
REMARK   14  A    between atoms: C27_44  and  O5_45 
REMARK   15  A    between atoms: C28_47  and  C29_48 
REMARK   16  A    between atoms: C29_48  and  C30_49 
REMARK   17  A    between atoms: C30_49  and  C31_50 
ROOT
HETATM    1  C8  UNL     1       7.608   2.400  11.382  1.00  0.00     0.181 C 
HETATM    2  N1  UNL     1       6.939   2.886  12.556  1.00  0.00    -0.346 N 
ATOM      3  H1  UNL     1       7.212   3.806  12.902  1.00  0.00     0.163 HD
HETATM    4  C9  UNL     1       5.943   2.205  13.269  1.00  0.00     0.241 C 
HETATM    5  O2  UNL     1       5.860   2.226  14.519  1.00  0.00    -0.271 OA
HETATM    6  C10 UNL     1       4.892   1.390  12.554  1.00  0.00     0.175 C 
HETATM    7  N2  UNL     1       3.713   2.263  12.629  1.00  0.00    -0.359 N 
ATOM      8  H2  UNL     1       3.195   2.247  13.507  1.00  0.00     0.162 HD
HETATM    9  C15 UNL     1       3.221   3.112  11.635  1.00  0.00     0.135 C 
HETATM   10  C16 UNL     1       2.778   2.674  10.309  1.00  0.00     0.160 C 
HETATM   11  N3  UNL     1       2.423   3.775   9.398  1.00  0.00    -0.356 N 
HETATM   12  C21 UNL     1       1.681   4.888   9.944  1.00  0.00     0.152 C 
HETATM   13  C22 UNL     1       2.726   3.785   8.011  1.00  0.00     0.137 C 
HETATM   14  C23 UNL     1       4.056   3.624   7.379  1.00  0.00     0.158 C 
HETATM   15  N5  UNL     1       5.147   4.227   8.083  1.00  0.00    -0.357 N 
ATOM     16  H5  UNL     1       4.836   4.776   8.883  1.00  0.00     0.162 HD
HETATM   17  C27 UNL     1       6.516   4.244   7.939  1.00  0.00     0.159 C 
HETATM   18  C28 UNL     1       7.589   3.257   8.091  1.00  0.00     0.062 C 
HETATM   19  N6  UNL     1       8.476   3.534   9.230  1.00  0.00    -0.325 N 
ATOM     20  H6  UNL     1       9.447   3.748   8.999  1.00  0.00     0.169 HD
HETATM   21  C34 UNL     1       8.157   3.541  10.577  1.00  0.00     0.245 C 
HETATM   22  O6  UNL     1       8.337   4.622  11.249  1.00  0.00    -0.271 OA
ENDROOT
BRANCH   1  23
HETATM   23  C7  UNL     1       8.773   1.524  11.879  1.00  0.00     0.073 C 
BRANCH  23  24
HETATM   24  C6  UNL     1       8.324   0.298  12.535  1.00  0.00    -0.053 A 
HETATM   25  C5  UNL     1       7.435  -0.529  11.913  1.00  0.00     0.007 A 
HETATM   26  C4  UNL     1       7.015  -1.676  12.541  1.00  0.00     0.003 A 
HETATM   27  C3  UNL     1       7.458  -2.025  13.784  1.00  0.00     0.037 A 
HETATM   28  C2  UNL     1       8.362  -1.166  14.395  1.00  0.00     0.068 A 
HETATM   29  C35 UNL     1       8.799  -0.010  13.784  1.00  0.00     0.044 A 
BRANCH  28  30
HETATM   30  O1  UNL     1       8.868  -1.442  15.660  1.00  0.00    -0.356 OA
HETATM   31  C1  UNL     1       9.860  -2.470  15.783  1.00  0.00     0.210 C 
ENDBRANCH  28  30
ENDBRANCH  23  24
ENDBRANCH   1  23
BRANCH   6  32
HETATM   32  C11 UNL     1       4.723   0.162  13.449  1.00  0.00     0.038 C 
BRANCH  32  33
HETATM   33  C12 UNL     1       3.462  -0.594  13.227  1.00  0.00    -0.020 C 
HETATM   34  C13 UNL     1       3.710  -2.102  13.223  1.00  0.00     0.009 C 
HETATM   35  C14 UNL     1       2.515  -0.288  14.360  1.00  0.00     0.009 C 
ENDBRANCH  32  33
ENDBRANCH   6  32
BRANCH  18  36
HETATM   36  C29 UNL     1       7.369   1.832   7.810  1.00  0.00     0.062 C 
BRANCH  36  37
HETATM   37  C30 UNL     1       6.930   1.492   6.411  1.00  0.00     0.010 C 
BRANCH  37  38
HETATM   38  C31 UNL     1       7.914   1.991   5.373  1.00  0.00    -0.023 C 
HETATM   39  C32 UNL     1       7.288   2.978   4.441  1.00  0.00     0.009 C 
HETATM   40  C33 UNL     1       8.467   0.811   4.640  1.00  0.00     0.009 C 
ENDBRANCH  37  38
ENDBRANCH  36  37
ENDBRANCH  18  36
BRANCH  17  41
HETATM   41  O5  UNL     1       7.008   5.415   7.585  1.00  0.00    -0.345 OA
ATOM     42  H5  UNL     1       7.475   5.866   8.279  1.00  0.00     0.219 HD
ENDBRANCH  17  41
BRANCH   9  43
HETATM   43  O3  UNL     1       3.160   4.377  11.931  1.00  0.00    -0.348 OA
ATOM     44  H3  UNL     1       3.862   4.718  12.474  1.00  0.00     0.219 HD
ENDBRANCH   9  43
BRANCH  10  45
HETATM   45  C17 UNL     1       1.718   1.618  10.266  1.00  0.00     0.037 C 
BRANCH  45  46
HETATM   46  C18 UNL     1       0.787   1.498  11.408  1.00  0.00    -0.020 C 
HETATM   47  C19 UNL     1      -0.470   2.363  11.066  1.00  0.00     0.009 C 
HETATM   48  C20 UNL     1       0.206   0.122  11.645  1.00  0.00     0.009 C 
ENDBRANCH  45  46
ENDBRANCH  10  45
BRANCH  14  49
HETATM   49  C24 UNL     1       3.944   4.115   5.949  1.00  0.00     0.035 C 
BRANCH  49  50
HETATM   50  C25 UNL     1       4.127   5.571   5.752  1.00  0.00     0.030 C 
BRANCH  50  51
HETATM   51  C26 UNL     1       3.022   6.181   4.898  1.00  0.00     0.230 C 
BRANCH  51  52
HETATM   52  N4  UNL     1       1.890   6.585   5.710  1.00  0.00    -0.079 N 
ATOM     53  H43 UNL     1       1.248   5.808   5.870  1.00  0.00     0.274 HD
ATOM     54  H42 UNL     1       2.166   6.762   6.676  1.00  0.00     0.274 HD
ATOM     55  H41 UNL     1       1.410   7.389   5.304  1.00  0.00     0.274 HD
ENDBRANCH  51  52
ENDBRANCH  50  51
ENDBRANCH  49  50
ENDBRANCH  14  49
BRANCH  13  56
HETATM   56  O4  UNL     1       1.683   3.955   7.247  1.00  0.00    -0.348 OA
ATOM     57  H4  UNL     1       1.038   4.553   7.607  1.00  0.00     0.219 HD
ENDBRANCH  13  56
TORSDOF 17
ENDMDL
