MODEL 1
REMARK VINA RESULT: -7.561421165      0.000      0.000
REMARK  14 active torsions:
REMARK  status: ('A' for Active; 'I' for Inactive)
REMARK    1  A    between atoms: C2_2  and  C3_3 
REMARK    2  A    between atoms: C3_3  and  C4_4 
REMARK    3  A    between atoms: C5_5  and  C6_6 
REMARK    4  A    between atoms: C6_6  and  C7_7 
REMARK    5  A    between atoms: N2_14  and  C12_15 
REMARK    6  A    between atoms: C17_24  and  C18_25 
REMARK    7  A    between atoms: C18_25  and  C19_26 
REMARK    8  A    between atoms: C22_29  and  O3_30 
REMARK    9  A    between atoms: C26_38  and  C27_39 
REMARK   10  A    between atoms: C31_46  and  C32_47 
REMARK   11  A    between atoms: C32_47  and  C33_48 
REMARK   12  A    between atoms: C33_48  and  C34_49 
REMARK   13  A    between atoms: C34_49  and  C35_50 
REMARK   14  A    between atoms: C35_50  and  N6_51 
ROOT
HETATM    1  C4  UNL     1       3.305  -8.084  16.672  1.00  0.00     0.142 C 
HETATM    2  C5  UNL     1       3.080  -9.082  17.796  1.00  0.00     0.038 C 
HETATM    3  N2  UNL     1       3.014  -8.462  19.056  1.00  0.00    -0.318 N 
HETATM    4  C14 UNL     1       4.090  -7.539  19.344  1.00  0.00     0.256 C 
HETATM    5  O1  UNL     1       4.313  -7.159  20.522  1.00  0.00    -0.270 OA
HETATM    6  C15 UNL     1       4.939  -7.046  18.186  1.00  0.00     0.273 C 
HETATM    7  C16 UNL     1       5.676  -5.901  18.689  1.00  0.00     0.250 C 
HETATM    8  O2  UNL     1       5.028  -5.113  19.481  1.00  0.00    -0.271 OA
HETATM    9  N3  UNL     1       7.011  -5.522  18.440  1.00  0.00    -0.345 N 
ATOM     10  H3  UNL     1       7.373  -4.763  19.016  1.00  0.00     0.163 HD
HETATM   11  C17 UNL     1       7.923  -6.069  17.480  1.00  0.00     0.180 C 
HETATM   12  C25 UNL     1       8.690  -5.089  16.693  1.00  0.00     0.241 C 
HETATM   13  O4  UNL     1       9.797  -5.550  16.213  1.00  0.00    -0.271 OA
HETATM   14  N4  UNL     1       8.378  -3.753  16.404  1.00  0.00    -0.346 N 
ATOM     15  H4  UNL     1       9.026  -3.067  16.791  1.00  0.00     0.163 HD
HETATM   16  C26 UNL     1       7.291  -3.198  15.649  1.00  0.00     0.180 C 
HETATM   17  C30 UNL     1       6.105  -2.816  16.438  1.00  0.00     0.241 C 
HETATM   18  O5  UNL     1       6.204  -1.793  17.175  1.00  0.00    -0.271 OA
HETATM   19  N5  UNL     1       4.864  -3.478  16.457  1.00  0.00    -0.346 N 
ATOM     20  H5  UNL     1       4.124  -3.075  17.033  1.00  0.00     0.163 HD
HETATM   21  C31 UNL     1       4.554  -4.701  15.711  1.00  0.00     0.176 C 
HETATM   22  C36 UNL     1       3.693  -5.641  16.442  1.00  0.00     0.244 C 
HETATM   23  O6  UNL     1       2.450  -5.291  16.472  1.00  0.00    -0.271 OA
HETATM   24  N7  UNL     1       4.014  -6.857  17.107  1.00  0.00    -0.318 N 
ENDROOT
BRANCH  11  25
HETATM   25  C18 UNL     1       8.709  -7.149  18.136  1.00  0.00     0.073 C 
BRANCH  25  26
HETATM   26  C19 UNL     1       8.219  -8.511  18.024  1.00  0.00    -0.056 A 
HETATM   27  C20 UNL     1       8.722  -9.336  17.004  1.00  0.00     0.010 A 
HETATM   28  C21 UNL     1       8.286 -10.634  16.884  1.00  0.00     0.037 A 
HETATM   29  C22 UNL     1       7.349 -11.164  17.753  1.00  0.00     0.065 A 
HETATM   30  C23 UNL     1       6.853 -10.376  18.747  1.00  0.00     0.037 A 
HETATM   31  C24 UNL     1       7.303  -9.068  18.857  1.00  0.00     0.010 A 
BRANCH  29  32
HETATM   32  O3  UNL     1       6.903 -12.476  17.641  1.00  0.00    -0.361 OA
ATOM     33  H3  UNL     1       6.139 -12.788  18.112  1.00  0.00     0.217 HD
ENDBRANCH  29  32
ENDBRANCH  25  26
ENDBRANCH  11  25
BRANCH  16  34
HETATM   34  C27 UNL     1       7.702  -1.909  14.909  1.00  0.00     0.009 C 
HETATM   35  C28 UNL     1       9.169  -1.731  14.789  1.00  0.00     0.012 C 
HETATM   36  C29 UNL     1       6.985  -1.865  13.577  1.00  0.00     0.012 C 
ENDBRANCH  16  34
BRANCH   3  37
HETATM   37  C12 UNL     1       2.075  -8.576  20.138  1.00  0.00     0.127 C 
HETATM   38  C13 UNL     1       1.759 -10.034  20.490  1.00  0.00     0.027 C 
ENDBRANCH   3  37
BRANCH   1  39
HETATM   39  C3  UNL     1       4.018  -8.745  15.538  1.00  0.00     0.058 C 
BRANCH  39  40
HETATM   40  C2  UNL     1       4.924  -9.847  15.806  1.00  0.00    -0.035 C 
HETATM   41  C1  UNL     1       5.041 -10.931  15.045  1.00  0.00     0.007 C 
ENDBRANCH  39  40
ENDBRANCH   1  39
BRANCH   2  42
HETATM   42  C6  UNL     1       2.175 -10.125  17.342  1.00  0.00     0.041 C 
BRANCH  42  43
HETATM   43  C7  UNL     1       2.394 -11.550  17.387  1.00  0.00    -0.011 A 
HETATM   44  C8  UNL     1       3.374 -12.183  18.155  1.00  0.00     0.030 A 
HETATM   45  C9  UNL     1       3.323 -13.518  17.874  1.00  0.00     0.089 A 
HETATM   46  N1  UNL     1       2.366 -13.739  16.978  1.00  0.00    -0.369 N 
HETATM   47  C10 UNL     1       1.787 -12.538  16.671  1.00  0.00     0.015 A 
ATOM     48  H1  UNL     1       2.108 -14.645  16.588  1.00  0.00     0.165 HD
HETATM   49  C11 UNL     1       0.594 -12.472  15.742  1.00  0.00     0.069 C 
ENDBRANCH  42  43
ENDBRANCH   2  42
BRANCH  21  50
HETATM   50  C32 UNL     1       3.819  -4.138  14.474  1.00  0.00     0.035 C 
BRANCH  50  51
HETATM   51  C33 UNL     1       3.624  -2.686  14.625  1.00  0.00     0.004 C 
BRANCH  51  52
HETATM   52  C34 UNL     1       2.179  -2.265  14.655  1.00  0.00     0.027 C 
BRANCH  52  53
HETATM   53  C35 UNL     1       1.973  -0.779  14.627  1.00  0.00     0.229 C 
BRANCH  53  54
HETATM   54  N6  UNL     1       3.256  -0.157  14.966  1.00  0.00    -0.079 N 
ATOM     55  H63 UNL     1       3.270   0.848  14.793  1.00  0.00     0.274 HD
ATOM     56  H62 UNL     1       3.428  -0.119  15.971  1.00  0.00     0.274 HD
ATOM     57  H61 UNL     1       3.981  -0.661  14.455  1.00  0.00     0.274 HD
ENDBRANCH  53  54
ENDBRANCH  52  53
ENDBRANCH  51  52
ENDBRANCH  50  51
ENDBRANCH  21  50
TORSDOF 14
ENDMDL
MODEL 2
REMARK VINA RESULT: -7.120862650      6.409     10.941
REMARK  14 active torsions:
REMARK  status: ('A' for Active; 'I' for Inactive)
REMARK    1  A    between atoms: C2_2  and  C3_3 
REMARK    2  A    between atoms: C3_3  and  C4_4 
REMARK    3  A    between atoms: C5_5  and  C6_6 
REMARK    4  A    between atoms: C6_6  and  C7_7 
REMARK    5  A    between atoms: N2_14  and  C12_15 
REMARK    6  A    between atoms: C17_24  and  C18_25 
REMARK    7  A    between atoms: C18_25  and  C19_26 
REMARK    8  A    between atoms: C22_29  and  O3_30 
REMARK    9  A    between atoms: C26_38  and  C27_39 
REMARK   10  A    between atoms: C31_46  and  C32_47 
REMARK   11  A    between atoms: C32_47  and  C33_48 
REMARK   12  A    between atoms: C33_48  and  C34_49 
REMARK   13  A    between atoms: C34_49  and  C35_50 
REMARK   14  A    between atoms: C35_50  and  N6_51 
ROOT
HETATM    1  C4  UNL     1       3.273   0.847  12.253  1.00  0.00     0.142 C 
HETATM    2  C5  UNL     1       3.853   0.110  13.449  1.00  0.00     0.038 C 
HETATM    3  N2  UNL     1       4.811   0.876  14.135  1.00  0.00    -0.318 N 
HETATM    4  C14 UNL     1       5.835   1.469  13.303  1.00  0.00     0.256 C 
HETATM    5  O1  UNL     1       6.898   1.912  13.808  1.00  0.00    -0.270 OA
HETATM    6  C15 UNL     1       5.589   1.539  11.807  1.00  0.00     0.273 C 
HETATM    7  C16 UNL     1       6.572   2.468  11.282  1.00  0.00     0.250 C 
HETATM    8  O2  UNL     1       6.817   3.507  12.011  1.00  0.00    -0.271 OA
HETATM    9  N3  UNL     1       7.310   2.401  10.082  1.00  0.00    -0.345 N 
ATOM     10  H3  UNL     1       8.059   3.086   9.981  1.00  0.00     0.163 HD
HETATM   11  C17 UNL     1       7.141   1.492   8.988  1.00  0.00     0.180 C 
HETATM   12  C25 UNL     1       7.169   2.095   7.644  1.00  0.00     0.241 C 
HETATM   13  O4  UNL     1       7.495   1.270   6.705  1.00  0.00    -0.271 OA
HETATM   14  N4  UNL     1       6.891   3.415   7.264  1.00  0.00    -0.346 N 
ATOM     15  H4  UNL     1       7.680   3.921   6.864  1.00  0.00     0.163 HD
HETATM   16  C26 UNL     1       5.671   4.166   7.350  1.00  0.00     0.180 C 
HETATM   17  C30 UNL     1       5.515   4.978   8.571  1.00  0.00     0.241 C 
HETATM   18  O5  UNL     1       6.237   6.011   8.677  1.00  0.00    -0.271 OA
HETATM   19  N5  UNL     1       4.637   4.721   9.640  1.00  0.00    -0.346 N 
ATOM     20  H5  UNL     1       4.619   5.393  10.407  1.00  0.00     0.163 HD
HETATM   21  C31 UNL     1       3.748   3.560   9.734  1.00  0.00     0.176 C 
HETATM   22  C36 UNL     1       3.621   3.017  11.093  1.00  0.00     0.244 C 
HETATM   23  O6  UNL     1       2.858   3.719  11.864  1.00  0.00    -0.271 OA
HETATM   24  N7  UNL     1       4.196   1.855  11.678  1.00  0.00    -0.318 N 
ENDROOT
BRANCH  11  25
HETATM   25  C18 UNL     1       8.033   0.320   9.205  1.00  0.00     0.073 C 
BRANCH  25  26
HETATM   26  C19 UNL     1       8.384  -0.024  10.571  1.00  0.00    -0.056 A 
HETATM   27  C20 UNL     1       9.640   0.358  11.070  1.00  0.00     0.010 A 
HETATM   28  C21 UNL     1       9.993   0.057  12.364  1.00  0.00     0.037 A 
HETATM   29  C22 UNL     1       9.132  -0.624  13.207  1.00  0.00     0.065 A 
HETATM   30  C23 UNL     1       7.910  -1.001  12.736  1.00  0.00     0.037 A 
HETATM   31  C24 UNL     1       7.568  -0.689  11.428  1.00  0.00     0.010 A 
BRANCH  29  32
HETATM   32  O3  UNL     1       9.478  -0.933  14.518  1.00  0.00    -0.361 OA
ATOM     33  H3  UNL     1       9.033  -0.540  15.259  1.00  0.00     0.217 HD
ENDBRANCH  29  32
ENDBRANCH  25  26
ENDBRANCH  11  25
BRANCH  16  34
HETATM   34  C27 UNL     1       5.532   5.171   6.189  1.00  0.00     0.009 C 
HETATM   35  C28 UNL     1       6.809   5.465   5.496  1.00  0.00     0.012 C 
HETATM   36  C29 UNL     1       4.445   4.685   5.255  1.00  0.00     0.012 C 
ENDBRANCH  16  34
BRANCH   3  37
HETATM   37  C12 UNL     1       4.982   1.184  15.529  1.00  0.00     0.127 C 
HETATM   38  C13 UNL     1       5.373  -0.047  16.357  1.00  0.00     0.027 C 
ENDBRANCH   3  37
BRANCH   1  39
HETATM   39  C3  UNL     1       2.832  -0.133  11.215  1.00  0.00     0.058 C 
BRANCH  39  40
HETATM   40  C2  UNL     1       1.578   0.079  10.516  1.00  0.00    -0.035 C 
HETATM   41  C1  UNL     1       0.609   0.890  10.930  1.00  0.00     0.007 C 
ENDBRANCH  39  40
ENDBRANCH   1  39
BRANCH   2  42
HETATM   42  C6  UNL     1       2.805  -0.667  14.091  1.00  0.00     0.041 C 
BRANCH  42  43
HETATM   43  C7  UNL     1       2.856  -2.061  14.460  1.00  0.00    -0.011 A 
HETATM   44  C8  UNL     1       1.898  -2.717  15.236  1.00  0.00     0.030 A 
HETATM   45  C9  UNL     1       2.329  -3.996  15.435  1.00  0.00     0.089 A 
HETATM   46  N1  UNL     1       3.499  -4.161  14.824  1.00  0.00    -0.369 N 
HETATM   47  C10 UNL     1       3.833  -2.981  14.221  1.00  0.00     0.015 A 
ATOM     48  H1  UNL     1       4.050  -5.019  14.808  1.00  0.00     0.165 HD
HETATM   49  C11 UNL     1       5.075  -2.877  13.362  1.00  0.00     0.069 C 
ENDBRANCH  42  43
ENDBRANCH   2  42
BRANCH  21  50
HETATM   50  C32 UNL     1       2.403   4.153   9.257  1.00  0.00     0.035 C 
BRANCH  50  51
HETATM   51  C33 UNL     1       1.881   3.364   8.128  1.00  0.00     0.004 C 
BRANCH  51  52
HETATM   52  C34 UNL     1       1.328   4.198   7.004  1.00  0.00     0.027 C 
BRANCH  52  53
HETATM   53  C35 UNL     1       1.474   5.677   7.211  1.00  0.00     0.229 C 
BRANCH  53  54
HETATM   54  N6  UNL     1       0.165   6.283   6.955  1.00  0.00    -0.079 N 
ATOM     55  H63 UNL     1      -0.493   5.640   6.516  1.00  0.00     0.274 HD
ATOM     56  H62 UNL     1      -0.369   6.454   7.807  1.00  0.00     0.274 HD
ATOM     57  H61 UNL     1       0.324   7.128   6.406  1.00  0.00     0.274 HD
ENDBRANCH  53  54
ENDBRANCH  52  53
ENDBRANCH  51  52
ENDBRANCH  50  51
ENDBRANCH  21  50
TORSDOF 14
ENDMDL
MODEL 3
REMARK VINA RESULT: -7.060577231      2.426      3.806
REMARK  14 active torsions:
REMARK  status: ('A' for Active; 'I' for Inactive)
REMARK    1  A    between atoms: C2_2  and  C3_3 
REMARK    2  A    between atoms: C3_3  and  C4_4 
REMARK    3  A    between atoms: C5_5  and  C6_6 
REMARK    4  A    between atoms: C6_6  and  C7_7 
REMARK    5  A    between atoms: N2_14  and  C12_15 
REMARK    6  A    between atoms: C17_24  and  C18_25 
REMARK    7  A    between atoms: C18_25  and  C19_26 
REMARK    8  A    between atoms: C22_29  and  O3_30 
REMARK    9  A    between atoms: C26_38  and  C27_39 
REMARK   10  A    between atoms: C31_46  and  C32_47 
REMARK   11  A    between atoms: C32_47  and  C33_48 
REMARK   12  A    between atoms: C33_48  and  C34_49 
REMARK   13  A    between atoms: C34_49  and  C35_50 
REMARK   14  A    between atoms: C35_50  and  N6_51 
ROOT
HETATM    1  C4  UNL     1       4.022 -11.353  16.183  1.00  0.00     0.142 C 
HETATM    2  C5  UNL     1       4.101 -12.760  16.753  1.00  0.00     0.038 C 
HETATM    3  N2  UNL     1       4.119 -12.767  18.158  1.00  0.00    -0.318 N 
HETATM    4  C14 UNL     1       5.078 -11.871  18.766  1.00  0.00     0.256 C 
HETATM    5  O1  UNL     1       5.403 -11.999  19.974  1.00  0.00    -0.270 OA
HETATM    6  C15 UNL     1       5.680 -10.776  17.904  1.00  0.00     0.273 C 
HETATM    7  C16 UNL     1       6.304  -9.841  18.822  1.00  0.00     0.250 C 
HETATM    8  O2  UNL     1       5.664  -9.610  19.920  1.00  0.00    -0.271 OA
HETATM    9  N3  UNL     1       7.524  -9.145  18.691  1.00  0.00    -0.345 N 
ATOM     10  H3  UNL     1       7.847  -8.653  19.524  1.00  0.00     0.163 HD
HETATM   11  C17 UNL     1       8.365  -9.041  17.537  1.00  0.00     0.180 C 
HETATM   12  C25 UNL     1       8.866  -7.690  17.229  1.00  0.00     0.241 C 
HETATM   13  O4  UNL     1       9.953  -7.680  16.530  1.00  0.00    -0.271 OA
HETATM   14  N4  UNL     1       8.327  -6.447  17.587  1.00  0.00    -0.346 N 
ATOM     15  H4  UNL     1       8.916  -5.885  18.201  1.00  0.00     0.163 HD
HETATM   16  C26 UNL     1       7.078  -5.841  17.225  1.00  0.00     0.180 C 
HETATM   17  C30 UNL     1       5.968  -6.070  18.169  1.00  0.00     0.241 C 
HETATM   18  O5  UNL     1       6.017  -5.465  19.279  1.00  0.00    -0.271 OA
HETATM   19  N5  UNL     1       4.851  -6.898  17.962  1.00  0.00    -0.346 N 
ATOM     20  H5  UNL     1       4.146  -6.932  18.699  1.00  0.00     0.163 HD
HETATM   21  C31 UNL     1       4.623  -7.716  16.768  1.00  0.00     0.176 C 
HETATM   22  C36 UNL     1       4.017  -9.024  17.049  1.00  0.00     0.244 C 
HETATM   23  O6  UNL     1       2.751  -8.966  17.304  1.00  0.00    -0.271 OA
HETATM   24  N7  UNL     1       4.598 -10.321  17.080  1.00  0.00    -0.318 N 
ENDROOT
BRANCH  11  25
HETATM   25  C18 UNL     1       9.382 -10.126  17.594  1.00  0.00     0.073 C 
BRANCH  25  26
HETATM   26  C19 UNL     1       8.911 -11.497  17.656  1.00  0.00    -0.056 A 
HETATM   27  C20 UNL     1       9.021 -12.203  18.865  1.00  0.00     0.010 A 
HETATM   28  C21 UNL     1       8.570 -13.499  18.955  1.00  0.00     0.037 A 
HETATM   29  C22 UNL     1       7.999 -14.142  17.871  1.00  0.00     0.065 A 
HETATM   30  C23 UNL     1       7.886 -13.469  16.692  1.00  0.00     0.037 A 
HETATM   31  C24 UNL     1       8.344 -12.162  16.616  1.00  0.00     0.010 A 
BRANCH  29  32
HETATM   32  O3  UNL     1       7.539 -15.451  17.952  1.00  0.00    -0.361 OA
ATOM     33  H3  UNL     1       7.499 -15.919  18.778  1.00  0.00     0.217 HD
ENDBRANCH  29  32
ENDBRANCH  25  26
ENDBRANCH  11  25
BRANCH  16  34
HETATM   34  C27 UNL     1       7.193  -4.306  17.118  1.00  0.00     0.009 C 
HETATM   35  C28 UNL     1       8.474  -3.842  16.536  1.00  0.00     0.012 C 
HETATM   36  C29 UNL     1       5.979  -3.780  16.383  1.00  0.00     0.012 C 
ENDBRANCH  16  34
BRANCH   3  37
HETATM   37  C12 UNL     1       3.363 -13.512  19.128  1.00  0.00     0.127 C 
HETATM   38  C13 UNL     1       3.877 -14.947  19.296  1.00  0.00     0.027 C 
ENDBRANCH   3  37
BRANCH   1  39
HETATM   39  C3  UNL     1       4.662 -11.312  14.834  1.00  0.00     0.058 C 
BRANCH  39  40
HETATM   40  C2  UNL     1       3.957 -10.697  13.724  1.00  0.00    -0.035 C 
HETATM   41  C1  UNL     1       3.179 -11.352  12.868  1.00  0.00     0.007 C 
ENDBRANCH  39  40
ENDBRANCH   1  39
BRANCH   2  42
HETATM   42  C6  UNL     1       3.304 -13.658  15.933  1.00  0.00     0.041 C 
BRANCH  42  43
HETATM   43  C7  UNL     1       3.751 -14.852  15.261  1.00  0.00    -0.011 A 
HETATM   44  C8  UNL     1       4.797 -15.670  15.696  1.00  0.00     0.030 A 
HETATM   45  C9  UNL     1       4.973 -16.650  14.763  1.00  0.00     0.089 A 
HETATM   46  N1  UNL     1       4.093 -16.481  13.781  1.00  0.00    -0.369 N 
HETATM   47  C10 UNL     1       3.336 -15.381  14.075  1.00  0.00     0.015 A 
ATOM     48  H1  UNL     1       3.998 -17.068  12.953  1.00  0.00     0.165 HD
HETATM   49  C11 UNL     1       2.177 -14.980  13.186  1.00  0.00     0.069 C 
ENDBRANCH  42  43
ENDBRANCH   2  42
BRANCH  21  50
HETATM   50  C32 UNL     1       3.652  -6.828  15.958  1.00  0.00     0.035 C 
BRANCH  50  51
HETATM   51  C33 UNL     1       2.943  -5.907  16.863  1.00  0.00     0.004 C 
BRANCH  51  52
HETATM   52  C34 UNL     1       2.417  -4.670  16.185  1.00  0.00     0.027 C 
BRANCH  52  53
HETATM   53  C35 UNL     1       1.388  -4.942  15.128  1.00  0.00     0.229 C 
BRANCH  53  54
HETATM   54  N6  UNL     1       0.123  -5.216  15.813  1.00  0.00    -0.079 N 
ATOM     55  H63 UNL     1       0.206  -5.933  16.534  1.00  0.00     0.274 HD
ATOM     56  H62 UNL     1      -0.175  -4.454  16.422  1.00  0.00     0.274 HD
ATOM     57  H61 UNL     1      -0.566  -5.448  15.097  1.00  0.00     0.274 HD
ENDBRANCH  53  54
ENDBRANCH  52  53
ENDBRANCH  51  52
ENDBRANCH  50  51
ENDBRANCH  21  50
TORSDOF 14
ENDMDL
MODEL 4
REMARK VINA RESULT: -7.050611138      2.327      3.570
REMARK  14 active torsions:
REMARK  status: ('A' for Active; 'I' for Inactive)
REMARK    1  A    between atoms: C2_2  and  C3_3 
REMARK    2  A    between atoms: C3_3  and  C4_4 
REMARK    3  A    between atoms: C5_5  and  C6_6 
REMARK    4  A    between atoms: C6_6  and  C7_7 
REMARK    5  A    between atoms: N2_14  and  C12_15 
REMARK    6  A    between atoms: C17_24  and  C18_25 
REMARK    7  A    between atoms: C18_25  and  C19_26 
REMARK    8  A    between atoms: C22_29  and  O3_30 
REMARK    9  A    between atoms: C26_38  and  C27_39 
REMARK   10  A    between atoms: C31_46  and  C32_47 
REMARK   11  A    between atoms: C32_47  and  C33_48 
REMARK   12  A    between atoms: C33_48  and  C34_49 
REMARK   13  A    between atoms: C34_49  and  C35_50 
REMARK   14  A    between atoms: C35_50  and  N6_51 
ROOT
HETATM    1  C4  UNL     1       3.951 -11.311  16.223  1.00  0.00     0.142 C 
HETATM    2  C5  UNL     1       4.028 -12.720  16.787  1.00  0.00     0.038 C 
HETATM    3  N2  UNL     1       4.067 -12.732  18.192  1.00  0.00    -0.318 N 
HETATM    4  C14 UNL     1       5.042 -11.846  18.788  1.00  0.00     0.256 C 
HETATM    5  O1  UNL     1       5.383 -11.981  19.991  1.00  0.00    -0.270 OA
HETATM    6  C15 UNL     1       5.639 -10.752  17.921  1.00  0.00     0.273 C 
HETATM    7  C16 UNL     1       6.284  -9.826  18.832  1.00  0.00     0.250 C 
HETATM    8  O2  UNL     1       5.662  -9.593  19.941  1.00  0.00    -0.271 OA
HETATM    9  N3  UNL     1       7.507  -9.138  18.686  1.00  0.00    -0.345 N 
ATOM     10  H3  UNL     1       7.846  -8.652  19.516  1.00  0.00     0.163 HD
HETATM   11  C17 UNL     1       8.331  -9.036  17.520  1.00  0.00     0.180 C 
HETATM   12  C25 UNL     1       8.838  -7.689  17.209  1.00  0.00     0.241 C 
HETATM   13  O4  UNL     1       9.914  -7.684  16.494  1.00  0.00    -0.271 OA
HETATM   14  N4  UNL     1       8.315  -6.442  17.580  1.00  0.00    -0.346 N 
ATOM     15  H4  UNL     1       8.916  -5.887  18.187  1.00  0.00     0.163 HD
HETATM   16  C26 UNL     1       7.065  -5.825  17.238  1.00  0.00     0.180 C 
HETATM   17  C30 UNL     1       5.967  -6.049  18.198  1.00  0.00     0.241 C 
HETATM   18  O5  UNL     1       6.037  -5.449  19.309  1.00  0.00    -0.271 OA
HETATM   19  N5  UNL     1       4.841  -6.868  18.005  1.00  0.00    -0.346 N 
ATOM     20  H5  UNL     1       4.147  -6.900  18.752  1.00  0.00     0.163 HD
HETATM   21  C31 UNL     1       4.589  -7.680  16.811  1.00  0.00     0.176 C 
HETATM   22  C36 UNL     1       3.977  -8.985  17.097  1.00  0.00     0.244 C 
HETATM   23  O6  UNL     1       2.715  -8.918  17.371  1.00  0.00    -0.271 OA
HETATM   24  N7  UNL     1       4.549 -10.287  17.115  1.00  0.00    -0.318 N 
ENDROOT
BRANCH  11  25
HETATM   25  C18 UNL     1       9.341 -10.129  17.558  1.00  0.00     0.073 C 
BRANCH  25  26
HETATM   26  C19 UNL     1       8.863 -11.492  17.705  1.00  0.00    -0.056 A 
HETATM   27  C20 UNL     1       8.292 -12.139  16.597  1.00  0.00     0.010 A 
HETATM   28  C21 UNL     1       7.843 -13.434  16.705  1.00  0.00     0.037 A 
HETATM   29  C22 UNL     1       7.940 -14.135  17.895  1.00  0.00     0.065 A 
HETATM   30  C23 UNL     1       8.492 -13.519  18.978  1.00  0.00     0.037 A 
HETATM   31  C24 UNL     1       8.941 -12.213  18.853  1.00  0.00     0.010 A 
BRANCH  29  32
HETATM   32  O3  UNL     1       7.492 -15.445  18.015  1.00  0.00    -0.361 OA
ATOM     33  H3  UNL     1       6.675 -15.657  18.451  1.00  0.00     0.217 HD
ENDBRANCH  29  32
ENDBRANCH  25  26
ENDBRANCH  11  25
BRANCH  16  34
HETATM   34  C27 UNL     1       7.189  -4.292  17.135  1.00  0.00     0.009 C 
HETATM   35  C28 UNL     1       8.479  -3.834  16.565  1.00  0.00     0.012 C 
HETATM   36  C29 UNL     1       5.985  -3.757  16.390  1.00  0.00     0.012 C 
ENDBRANCH  16  34
BRANCH   3  37
HETATM   37  C12 UNL     1       3.319 -13.475  19.170  1.00  0.00     0.127 C 
HETATM   38  C13 UNL     1       2.020 -12.769  19.574  1.00  0.00     0.027 C 
ENDBRANCH   3  37
BRANCH   1  39
HETATM   39  C3  UNL     1       4.572 -11.270  14.865  1.00  0.00     0.058 C 
BRANCH  39  40
HETATM   40  C2  UNL     1       3.970 -10.454  13.826  1.00  0.00    -0.035 C 
HETATM   41  C1  UNL     1       3.912 -10.789  12.541  1.00  0.00     0.007 C 
ENDBRANCH  39  40
ENDBRANCH   1  39
BRANCH   2  42
HETATM   42  C6  UNL     1       3.212 -13.609  15.976  1.00  0.00     0.041 C 
BRANCH  42  43
HETATM   43  C7  UNL     1       1.914 -13.330  15.414  1.00  0.00    -0.011 A 
HETATM   44  C8  UNL     1       0.820 -12.842  16.133  1.00  0.00     0.030 A 
HETATM   45  C9  UNL     1      -0.244 -12.781  15.281  1.00  0.00     0.089 A 
HETATM   46  N1  UNL     1       0.136 -13.203  14.079  1.00  0.00    -0.369 N 
HETATM   47  C10 UNL     1       1.459 -13.542  14.147  1.00  0.00     0.015 A 
ATOM     48  H1  UNL     1      -0.455 -13.263  13.250  1.00  0.00     0.165 HD
HETATM   49  C11 UNL     1       2.210 -13.975  12.906  1.00  0.00     0.069 C 
ENDBRANCH  42  43
ENDBRANCH   2  42
BRANCH  21  50
HETATM   50  C32 UNL     1       3.613  -6.782  16.019  1.00  0.00     0.035 C 
BRANCH  50  51
HETATM   51  C33 UNL     1       2.950  -5.835  16.933  1.00  0.00     0.004 C 
BRANCH  51  52
HETATM   52  C34 UNL     1       2.404  -4.610  16.251  1.00  0.00     0.027 C 
BRANCH  52  53
HETATM   53  C35 UNL     1       1.562  -4.905  15.044  1.00  0.00     0.229 C 
BRANCH  53  54
HETATM   54  N6  UNL     1       0.193  -5.131  15.514  1.00  0.00    -0.079 N 
ATOM     55  H63 UNL     1      -0.075  -6.115  15.504  1.00  0.00     0.274 HD
ATOM     56  H62 UNL     1       0.085  -4.977  16.517  1.00  0.00     0.274 HD
ATOM     57  H61 UNL     1      -0.421  -4.544  14.951  1.00  0.00     0.274 HD
ENDBRANCH  53  54
ENDBRANCH  52  53
ENDBRANCH  51  52
ENDBRANCH  50  51
ENDBRANCH  21  50
TORSDOF 14
ENDMDL
MODEL 5
REMARK VINA RESULT: -6.945386540      8.046     13.527
REMARK  14 active torsions:
REMARK  status: ('A' for Active; 'I' for Inactive)
REMARK    1  A    between atoms: C2_2  and  C3_3 
REMARK    2  A    between atoms: C3_3  and  C4_4 
REMARK    3  A    between atoms: C5_5  and  C6_6 
REMARK    4  A    between atoms: C6_6  and  C7_7 
REMARK    5  A    between atoms: N2_14  and  C12_15 
REMARK    6  A    between atoms: C17_24  and  C18_25 
REMARK    7  A    between atoms: C18_25  and  C19_26 
REMARK    8  A    between atoms: C22_29  and  O3_30 
REMARK    9  A    between atoms: C26_38  and  C27_39 
REMARK   10  A    between atoms: C31_46  and  C32_47 
REMARK   11  A    between atoms: C32_47  and  C33_48 
REMARK   12  A    between atoms: C33_48  and  C34_49 
REMARK   13  A    between atoms: C34_49  and  C35_50 
REMARK   14  A    between atoms: C35_50  and  N6_51 
ROOT
HETATM    1  C4  UNL     1       4.615   1.713  11.800  1.00  0.00     0.142 C 
HETATM    2  C5  UNL     1       5.943   1.320  12.425  1.00  0.00     0.038 C 
HETATM    3  N2  UNL     1       6.837   2.403  12.505  1.00  0.00    -0.318 N 
HETATM    4  C14 UNL     1       7.004   3.155  11.281  1.00  0.00     0.256 C 
HETATM    5  O1  UNL     1       7.977   3.937  11.135  1.00  0.00    -0.270 OA
HETATM    6  C15 UNL     1       5.973   2.971  10.182  1.00  0.00     0.273 C 
HETATM    7  C16 UNL     1       6.174   4.069   9.256  1.00  0.00     0.250 C 
HETATM    8  O2  UNL     1       6.452   5.215   9.785  1.00  0.00    -0.271 OA
HETATM    9  N3  UNL     1       6.116   4.069   7.847  1.00  0.00    -0.345 N 
ATOM     10  H3  UNL     1       6.440   4.919   7.387  1.00  0.00     0.163 HD
HETATM   11  C17 UNL     1       5.660   3.024   6.980  1.00  0.00     0.180 C 
HETATM   12  C25 UNL     1       4.765   3.443   5.887  1.00  0.00     0.241 C 
HETATM   13  O4  UNL     1       4.755   2.636   4.878  1.00  0.00    -0.271 OA
HETATM   14  N4  UNL     1       3.943   4.575   5.805  1.00  0.00    -0.346 N 
ATOM     15  H4  UNL     1       4.189   5.231   5.064  1.00  0.00     0.163 HD
HETATM   16  C26 UNL     1       2.811   4.956   6.600  1.00  0.00     0.180 C 
HETATM   17  C30 UNL     1       3.111   5.833   7.748  1.00  0.00     0.241 C 
HETATM   18  O5  UNL     1       3.423   7.032   7.495  1.00  0.00    -0.271 OA
HETATM   19  N5  UNL     1       3.087   5.470   9.106  1.00  0.00    -0.346 N 
ATOM     20  H5  UNL     1       3.289   6.197   9.792  1.00  0.00     0.163 HD
HETATM   21  C31 UNL     1       2.793   4.125   9.610  1.00  0.00     0.176 C 
HETATM   22  C36 UNL     1       3.600   3.737  10.774  1.00  0.00     0.244 C 
HETATM   23  O6  UNL     1       3.214   4.283  11.880  1.00  0.00    -0.271 OA
HETATM   24  N7  UNL     1       4.719   2.864  10.869  1.00  0.00    -0.318 N 
ENDROOT
BRANCH  11  25
HETATM   25  C18 UNL     1       6.827   2.186   6.594  1.00  0.00     0.073 C 
BRANCH  25  26
HETATM   26  C19 UNL     1       7.954   2.841   5.955  1.00  0.00    -0.056 A 
HETATM   27  C20 UNL     1       8.446   2.327   4.744  1.00  0.00     0.010 A 
HETATM   28  C21 UNL     1       9.504   2.936   4.111  1.00  0.00     0.037 A 
HETATM   29  C22 UNL     1      10.109   4.063   4.638  1.00  0.00     0.065 A 
HETATM   30  C23 UNL     1       9.641   4.573   5.812  1.00  0.00     0.037 A 
HETATM   31  C24 UNL     1       8.573   3.948   6.439  1.00  0.00     0.010 A 
BRANCH  29  32
HETATM   32  O3  UNL     1      11.177   4.688   4.006  1.00  0.00    -0.361 OA
ATOM     33  H3  UNL     1      11.173   4.865   3.072  1.00  0.00     0.217 HD
ENDBRANCH  29  32
ENDBRANCH  25  26
ENDBRANCH  11  25
BRANCH  16  34
HETATM   34  C27 UNL     1       1.765   5.734   5.775  1.00  0.00     0.009 C 
HETATM   35  C28 UNL     1       1.988   5.666   4.311  1.00  0.00     0.012 C 
HETATM   36  C29 UNL     1       0.383   5.276   6.190  1.00  0.00     0.012 C 
ENDBRANCH  16  34
BRANCH   3  37
HETATM   37  C12 UNL     1       7.639   2.911  13.584  1.00  0.00     0.127 C 
HETATM   38  C13 UNL     1       8.966   2.158  13.733  1.00  0.00     0.027 C 
ENDBRANCH   3  37
BRANCH   1  39
HETATM   39  C3  UNL     1       3.998   0.531  11.127  1.00  0.00     0.058 C 
BRANCH  39  40
HETATM   40  C2  UNL     1       2.694   0.060  11.558  1.00  0.00    -0.035 C 
HETATM   41  C1  UNL     1       2.361  -0.191  12.820  1.00  0.00     0.007 C 
ENDBRANCH  39  40
ENDBRANCH   1  39
BRANCH   2  42
HETATM   42  C6  UNL     1       5.709   0.362  13.493  1.00  0.00     0.041 C 
BRANCH  42  43
HETATM   43  C7  UNL     1       6.535  -0.765  13.849  1.00  0.00    -0.011 A 
HETATM   44  C8  UNL     1       7.848  -0.677  14.318  1.00  0.00     0.030 A 
HETATM   45  C9  UNL     1       8.321  -1.948  14.469  1.00  0.00     0.089 A 
HETATM   46  N1  UNL     1       7.371  -2.811  14.120  1.00  0.00    -0.369 N 
HETATM   47  C10 UNL     1       6.270  -2.097  13.738  1.00  0.00     0.015 A 
ATOM     48  H1  UNL     1       7.451  -3.827  14.135  1.00  0.00     0.165 HD
HETATM   49  C11 UNL     1       4.982  -2.803  13.371  1.00  0.00     0.069 C 
ENDBRANCH  42  43
ENDBRANCH   2  42
BRANCH  21  50
HETATM   50  C32 UNL     1       1.303   4.253   9.998  1.00  0.00     0.035 C 
BRANCH  50  51
HETATM   51  C33 UNL     1       0.577   3.032   9.605  1.00  0.00     0.004 C 
BRANCH  51  52
HETATM   52  C34 UNL     1      -0.242   2.427  10.713  1.00  0.00     0.027 C 
BRANCH  52  53
HETATM   53  C35 UNL     1       0.272   2.729  12.090  1.00  0.00     0.229 C 
BRANCH  53  54
HETATM   54  N6  UNL     1      -0.276   1.712  12.991  1.00  0.00    -0.079 N 
ATOM     55  H63 UNL     1       0.438   1.254  13.558  1.00  0.00     0.274 HD
ATOM     56  H62 UNL     1      -0.817   2.109  13.759  1.00  0.00     0.274 HD
ATOM     57  H61 UNL     1      -0.812   1.059  12.420  1.00  0.00     0.274 HD
ENDBRANCH  53  54
ENDBRANCH  52  53
ENDBRANCH  51  52
ENDBRANCH  50  51
ENDBRANCH  21  50
TORSDOF 14
ENDMDL
