MODEL 1
REMARK VINA RESULT: -8.027755758      0.000      0.000
REMARK  12 active torsions:
REMARK  status: ('A' for Active; 'I' for Inactive)
REMARK    1  A    between atoms: C2_2  and  C3_3 
REMARK    2  A    between atoms: C3_3  and  C5_5 
REMARK    3  A    between atoms: C6_8  and  O1_9 
REMARK    4  A    between atoms: C7_11  and  C8_12 
REMARK    5  A    between atoms: C8_12  and  C9_13 
REMARK    6  A    between atoms: C12_18  and  O2_19 
REMARK    7  A    between atoms: C13_21  and  C14_22 
REMARK    8  A    between atoms: C14_22  and  C15_23 
REMARK    9  A    between atoms: C19_30  and  C20_31 
REMARK   10  A    between atoms: C23_36  and  O4_37 
REMARK   11  A    between atoms: C24_39  and  C25_40 
REMARK   12  A    between atoms: C25_40  and  C26_41 
ROOT
HETATM    1  C5  UNL     1       3.084  -6.651  18.551  1.00  0.00     0.087 C 
HETATM    2  N1  UNL     1       4.380  -6.155  18.296  1.00  0.00    -0.325 N 
ATOM      3  H1  UNL     1       4.337  -5.405  17.607  1.00  0.00     0.169 HD
HETATM    4  C6  UNL     1       5.693  -6.366  18.687  1.00  0.00     0.168 C 
HETATM    5  C7  UNL     1       6.683  -7.440  18.354  1.00  0.00     0.082 C 
HETATM    6  N2  UNL     1       6.148  -8.756  18.284  1.00  0.00    -0.336 N 
ATOM      7  H2  UNL     1       5.164  -8.740  18.551  1.00  0.00     0.168 HD
HETATM    8  C12 UNL     1       6.518 -10.040  17.975  1.00  0.00     0.139 C 
HETATM    9  C13 UNL     1       7.142 -10.678  16.813  1.00  0.00     0.159 C 
HETATM   10  N3  UNL     1       6.177 -11.030  15.770  1.00  0.00    -0.347 N 
ATOM     11  H3  UNL     1       6.491 -10.896  14.809  1.00  0.00     0.163 HD
HETATM   12  C18 UNL     1       4.881 -11.526  15.924  1.00  0.00     0.241 C 
HETATM   13  O3  UNL     1       4.650 -12.707  15.460  1.00  0.00    -0.271 OA
HETATM   14  C19 UNL     1       3.688 -10.914  16.544  1.00  0.00     0.179 C 
HETATM   15  N4  UNL     1       3.039  -9.976  15.618  1.00  0.00    -0.356 N 
ATOM     16  H4  UNL     1       2.348 -10.392  14.994  1.00  0.00     0.162 HD
HETATM   17  C23 UNL     1       3.222  -8.623  15.466  1.00  0.00     0.160 C 
HETATM   18  C24 UNL     1       2.927  -7.471  16.342  1.00  0.00     0.066 C 
HETATM   19  N5  UNL     1       2.617  -7.742  17.695  1.00  0.00    -0.345 N 
ATOM     20  H5  UNL     1       2.137  -8.577  18.027  1.00  0.00     0.167 HD
ENDROOT
BRANCH  18  21
HETATM   21  C25 UNL     1       2.055  -6.472  15.641  1.00  0.00     0.100 C 
BRANCH  21  22
HETATM   22  C26 UNL     1       2.671  -5.296  15.064  1.00  0.00    -0.052 A 
HETATM   23  C27 UNL     1       3.999  -4.934  15.124  1.00  0.00     0.008 A 
HETATM   24  C28 UNL     1       4.501  -3.784  14.541  1.00  0.00     0.007 A 
HETATM   25  C29 UNL     1       3.677  -2.923  13.856  1.00  0.00    -0.062 A 
HETATM   26  C30 UNL     1       4.246  -1.696  13.239  1.00  0.00     0.048 C 
HETATM   27  C31 UNL     1       2.348  -3.248  13.775  1.00  0.00     0.007 A 
HETATM   28  C32 UNL     1       1.850  -4.403  14.361  1.00  0.00     0.008 A 
ENDBRANCH  21  22
ENDBRANCH  18  21
BRANCH  17  29
HETATM   29  O4  UNL     1       3.757  -8.254  14.335  1.00  0.00    -0.345 OA
ATOM     30  H4  UNL     1       4.453  -7.611  14.403  1.00  0.00     0.219 HD
ENDBRANCH  17  29
BRANCH   1  31
HETATM   31  C3  UNL     1       2.624  -6.808  19.953  1.00  0.00     0.049 C 
HETATM   32  C4  UNL     1       2.859  -5.582  20.805  1.00  0.00     0.018 C 
BRANCH  31  33
HETATM   33  C2  UNL     1       1.220  -7.286  20.157  1.00  0.00     0.007 C 
HETATM   34  C1  UNL     1       0.551  -6.525  21.280  1.00  0.00     0.006 C 
ENDBRANCH  31  33
ENDBRANCH   1  31
BRANCH  14  35
HETATM   35  C20 UNL     1       2.640 -11.990  16.885  1.00  0.00     0.009 C 
HETATM   36  C21 UNL     1       1.279 -11.570  16.378  1.00  0.00     0.012 C 
HETATM   37  C22 UNL     1       2.583 -12.306  18.340  1.00  0.00     0.012 C 
ENDBRANCH  14  35
BRANCH   4  38
HETATM   38  O1  UNL     1       6.221  -5.487  19.498  1.00  0.00    -0.344 OA
ATOM     39  H1  UNL     1       6.322  -4.601  19.170  1.00  0.00     0.219 HD
ENDBRANCH   4  38
BRANCH   5  40
HETATM   40  C8  UNL     1       7.801  -7.038  17.510  1.00  0.00     0.011 C 
BRANCH  40  41
HETATM   41  C9  UNL     1       8.343  -5.704  17.349  1.00  0.00     0.002 C 
HETATM   42  C10 UNL     1       7.947  -4.979  16.052  1.00  0.00     0.013 C 
HETATM   43  C11 UNL     1       9.806  -5.443  17.508  1.00  0.00     0.013 C 
ENDBRANCH  40  41
ENDBRANCH   5  40
BRANCH   9  44
HETATM   44  C14 UNL     1       8.100 -11.783  17.078  1.00  0.00     0.037 C 
BRANCH  44  45
HETATM   45  C15 UNL     1       9.545 -11.511  17.084  1.00  0.00    -0.020 C 
HETATM   46  C16 UNL     1       9.852 -10.063  17.434  1.00  0.00     0.009 C 
HETATM   47  C17 UNL     1      10.452 -12.427  17.822  1.00  0.00     0.009 C 
ENDBRANCH  44  45
ENDBRANCH   9  44
BRANCH   8  48
HETATM   48  O2  UNL     1       6.266 -10.938  18.910  1.00  0.00    -0.348 OA
ATOM     49  H2  UNL     1       6.762 -10.836  19.713  1.00  0.00     0.219 HD
ENDBRANCH   8  48
TORSDOF 12
ENDMDL
MODEL 2
REMARK VINA RESULT: -7.376869758      2.549      7.022
REMARK  12 active torsions:
REMARK  status: ('A' for Active; 'I' for Inactive)
REMARK    1  A    between atoms: C2_2  and  C3_3 
REMARK    2  A    between atoms: C3_3  and  C5_5 
REMARK    3  A    between atoms: C6_8  and  O1_9 
REMARK    4  A    between atoms: C7_11  and  C8_12 
REMARK    5  A    between atoms: C8_12  and  C9_13 
REMARK    6  A    between atoms: C12_18  and  O2_19 
REMARK    7  A    between atoms: C13_21  and  C14_22 
REMARK    8  A    between atoms: C14_22  and  C15_23 
REMARK    9  A    between atoms: C19_30  and  C20_31 
REMARK   10  A    between atoms: C23_36  and  O4_37 
REMARK   11  A    between atoms: C24_39  and  C25_40 
REMARK   12  A    between atoms: C25_40  and  C26_41 
ROOT
HETATM    1  C5  UNL     1       4.881  -8.748  16.656  1.00  0.00     0.087 C 
HETATM    2  N1  UNL     1       6.115  -8.351  17.212  1.00  0.00    -0.325 N 
ATOM      3  H1  UNL     1       6.158  -8.621  18.195  1.00  0.00     0.169 HD
HETATM    4  C6  UNL     1       7.288  -7.710  16.845  1.00  0.00     0.168 C 
HETATM    5  C7  UNL     1       7.613  -6.269  16.597  1.00  0.00     0.082 C 
HETATM    6  N2  UNL     1       6.609  -5.531  15.910  1.00  0.00    -0.336 N 
ATOM      7  H2  UNL     1       5.851  -6.156  15.639  1.00  0.00     0.168 HD
HETATM    8  C12 UNL     1       6.324  -4.256  15.492  1.00  0.00     0.139 C 
HETATM    9  C13 UNL     1       6.245  -2.952  16.154  1.00  0.00     0.159 C 
HETATM   10  N3  UNL     1       4.944  -2.710  16.782  1.00  0.00    -0.347 N 
ATOM     11  H3  UNL     1       4.966  -2.222  17.678  1.00  0.00     0.163 HD
HETATM   12  C18 UNL     1       3.678  -3.062  16.310  1.00  0.00     0.241 C 
HETATM   13  O3  UNL     1       2.866  -2.096  16.044  1.00  0.00    -0.271 OA
HETATM   14  C19 UNL     1       3.086  -4.391  16.055  1.00  0.00     0.179 C 
HETATM   15  N4  UNL     1       2.605  -4.998  17.304  1.00  0.00    -0.356 N 
ATOM     16  H4  UNL     1       1.648  -4.759  17.562  1.00  0.00     0.162 HD
HETATM   17  C23 UNL     1       3.250  -5.841  18.177  1.00  0.00     0.160 C 
HETATM   18  C24 UNL     1       3.727  -7.233  18.052  1.00  0.00     0.066 C 
HETATM   19  N5  UNL     1       3.778  -7.793  16.754  1.00  0.00    -0.345 N 
ATOM     20  H5  UNL     1       3.138  -7.563  15.995  1.00  0.00     0.167 HD
ENDROOT
BRANCH  18  21
HETATM   21  C25 UNL     1       3.148  -8.098  19.132  1.00  0.00     0.100 C 
BRANCH  21  22
HETATM   22  C26 UNL     1       2.463  -9.316  18.755  1.00  0.00    -0.052 A 
HETATM   23  C27 UNL     1       2.978 -10.594  18.742  1.00  0.00     0.008 A 
HETATM   24  C28 UNL     1       2.246 -11.705  18.363  1.00  0.00     0.007 A 
HETATM   25  C29 UNL     1       0.934 -11.586  17.970  1.00  0.00    -0.062 A 
HETATM   26  C30 UNL     1       0.173 -12.798  17.571  1.00  0.00     0.048 C 
HETATM   27  C31 UNL     1       0.385 -10.329  17.970  1.00  0.00     0.007 A 
HETATM   28  C32 UNL     1       1.124  -9.218  18.350  1.00  0.00     0.008 A 
ENDBRANCH  21  22
ENDBRANCH  18  21
BRANCH  17  29
HETATM   29  O4  UNL     1       3.501  -5.341  19.355  1.00  0.00    -0.345 OA
ATOM     30  H4  UNL     1       4.100  -4.603  19.367  1.00  0.00     0.219 HD
ENDBRANCH  17  29
BRANCH   1  31
HETATM   31  C3  UNL     1       4.863  -9.488  15.370  1.00  0.00     0.049 C 
HETATM   32  C4  UNL     1       5.586 -10.815  15.429  1.00  0.00     0.018 C 
BRANCH  31  33
HETATM   33  C2  UNL     1       3.530  -9.685  14.718  1.00  0.00     0.007 C 
HETATM   34  C1  UNL     1       3.082 -11.125  14.833  1.00  0.00     0.006 C 
ENDBRANCH  31  33
ENDBRANCH   1  31
BRANCH  14  35
HETATM   35  C20 UNL     1       1.864  -4.273  15.126  1.00  0.00     0.009 C 
HETATM   36  C21 UNL     1       1.092  -5.572  15.113  1.00  0.00     0.012 C 
HETATM   37  C22 UNL     1       2.225  -3.864  13.740  1.00  0.00     0.012 C 
ENDBRANCH  14  35
BRANCH   4  38
HETATM   38  O1  UNL     1       8.347  -8.458  16.673  1.00  0.00    -0.344 OA
ATOM     39  H1  UNL     1       9.183  -8.090  16.931  1.00  0.00     0.219 HD
ENDBRANCH   4  38
BRANCH   5  40
HETATM   40  C8  UNL     1       8.472  -5.629  17.585  1.00  0.00     0.011 C 
BRANCH  40  41
HETATM   41  C9  UNL     1       9.869  -5.275  17.436  1.00  0.00     0.002 C 
HETATM   42  C10 UNL     1      10.142  -3.902  16.802  1.00  0.00     0.013 C 
HETATM   43  C11 UNL     1      10.832  -6.207  16.774  1.00  0.00     0.013 C 
ENDBRANCH  40  41
ENDBRANCH   5  40
BRANCH   9  44
HETATM   44  C14 UNL     1       6.717  -1.771  15.387  1.00  0.00     0.037 C 
BRANCH  44  45
HETATM   45  C15 UNL     1       7.907  -1.885  14.530  1.00  0.00    -0.020 C 
HETATM   46  C16 UNL     1       7.646  -1.374  13.121  1.00  0.00     0.009 C 
HETATM   47  C17 UNL     1       9.213  -1.386  15.030  1.00  0.00     0.009 C 
ENDBRANCH  44  45
ENDBRANCH   9  44
BRANCH   8  48
HETATM   48  O2  UNL     1       6.046  -4.135  14.207  1.00  0.00    -0.348 OA
ATOM     49  H2  UNL     1       6.711  -4.468  13.616  1.00  0.00     0.219 HD
ENDBRANCH   8  48
TORSDOF 12
ENDMDL
MODEL 3
REMARK VINA RESULT: -7.337056187      2.133      5.362
REMARK  12 active torsions:
REMARK  status: ('A' for Active; 'I' for Inactive)
REMARK    1  A    between atoms: C2_2  and  C3_3 
REMARK    2  A    between atoms: C3_3  and  C5_5 
REMARK    3  A    between atoms: C6_8  and  O1_9 
REMARK    4  A    between atoms: C7_11  and  C8_12 
REMARK    5  A    between atoms: C8_12  and  C9_13 
REMARK    6  A    between atoms: C12_18  and  O2_19 
REMARK    7  A    between atoms: C13_21  and  C14_22 
REMARK    8  A    between atoms: C14_22  and  C15_23 
REMARK    9  A    between atoms: C19_30  and  C20_31 
REMARK   10  A    between atoms: C23_36  and  O4_37 
REMARK   11  A    between atoms: C24_39  and  C25_40 
REMARK   12  A    between atoms: C25_40  and  C26_41 
ROOT
HETATM    1  C5  UNL     1       2.934  -7.442  18.372  1.00  0.00     0.087 C 
HETATM    2  N1  UNL     1       3.203  -6.407  17.453  1.00  0.00    -0.325 N 
ATOM      3  H1  UNL     1       2.587  -6.491  16.643  1.00  0.00     0.169 HD
HETATM    4  C6  UNL     1       4.038  -5.312  17.301  1.00  0.00     0.168 C 
HETATM    5  C7  UNL     1       5.490  -5.193  16.951  1.00  0.00     0.082 C 
HETATM    6  N2  UNL     1       6.338  -6.171  17.540  1.00  0.00    -0.336 N 
ATOM      7  H2  UNL     1       5.794  -6.757  18.175  1.00  0.00     0.168 HD
HETATM    8  C12 UNL     1       7.644  -6.588  17.538  1.00  0.00     0.139 C 
HETATM    9  C13 UNL     1       8.590  -6.997  16.497  1.00  0.00     0.159 C 
HETATM   10  N3  UNL     1       8.458  -8.409  16.130  1.00  0.00    -0.347 N 
ATOM     11  H3  UNL     1       8.572  -8.624  15.140  1.00  0.00     0.163 HD
HETATM   12  C18 UNL     1       8.196  -9.497  16.965  1.00  0.00     0.241 C 
HETATM   13  O3  UNL     1       9.113 -10.400  17.050  1.00  0.00    -0.271 OA
HETATM   14  C19 UNL     1       7.014  -9.806  17.794  1.00  0.00     0.179 C 
HETATM   15  N4  UNL     1       5.939 -10.388  16.977  1.00  0.00    -0.356 N 
ATOM     16  H4  UNL     1       5.976 -11.402  16.872  1.00  0.00     0.162 HD
HETATM   17  C23 UNL     1       4.893  -9.774  16.335  1.00  0.00     0.160 C 
HETATM   18  C24 UNL     1       3.699  -9.057  16.829  1.00  0.00     0.066 C 
HETATM   19  N5  UNL     1       3.678  -8.689  18.195  1.00  0.00    -0.345 N 
ATOM     20  H5  UNL     1       4.117  -9.217  18.948  1.00  0.00     0.167 HD
ENDROOT
BRANCH  18  21
HETATM   21  C25 UNL     1       2.443  -9.662  16.278  1.00  0.00     0.100 C 
BRANCH  21  22
HETATM   22  C26 UNL     1       1.696 -10.587  17.103  1.00  0.00    -0.052 A 
HETATM   23  C27 UNL     1       1.943 -11.931  17.285  1.00  0.00     0.008 A 
HETATM   24  C28 UNL     1       1.171 -12.743  18.096  1.00  0.00     0.007 A 
HETATM   25  C29 UNL     1       0.091 -12.237  18.779  1.00  0.00    -0.062 A 
HETATM   26  C30 UNL     1      -0.718 -13.135  19.645  1.00  0.00     0.048 C 
HETATM   27  C31 UNL     1      -0.188 -10.903  18.624  1.00  0.00     0.007 A 
HETATM   28  C32 UNL     1       0.589 -10.093  17.809  1.00  0.00     0.008 A 
ENDBRANCH  21  22
ENDBRANCH  18  21
BRANCH  17  29
HETATM   29  O4  UNL     1       4.932  -9.817  15.031  1.00  0.00    -0.345 OA
ATOM     30  H4  UNL     1       5.319  -9.060  14.609  1.00  0.00     0.219 HD
ENDBRANCH  17  29
BRANCH   1  31
HETATM   31  C3  UNL     1       2.734  -7.114  19.806  1.00  0.00     0.049 C 
HETATM   32  C4  UNL     1       3.802  -6.205  20.370  1.00  0.00     0.018 C 
BRANCH  31  33
HETATM   33  C2  UNL     1       1.388  -6.593  20.202  1.00  0.00     0.007 C 
HETATM   34  C1  UNL     1       0.559  -7.680  20.847  1.00  0.00     0.006 C 
ENDBRANCH  31  33
ENDBRANCH   1  31
BRANCH  14  35
HETATM   35  C20 UNL     1       7.362 -10.851  18.870  1.00  0.00     0.009 C 
HETATM   36  C21 UNL     1       6.102 -11.517  19.376  1.00  0.00     0.012 C 
HETATM   37  C22 UNL     1       8.145 -10.281  20.002  1.00  0.00     0.012 C 
ENDBRANCH  14  35
BRANCH   4  38
HETATM   38  O1  UNL     1       3.509  -4.130  17.485  1.00  0.00    -0.344 OA
ATOM     39  H1  UNL     1       3.778  -3.439  16.891  1.00  0.00     0.219 HD
ENDBRANCH   4  38
BRANCH   5  40
HETATM   40  C8  UNL     1       5.785  -4.638  15.636  1.00  0.00     0.011 C 
BRANCH  40  41
HETATM   41  C9  UNL     1       6.738  -3.594  15.319  1.00  0.00     0.002 C 
HETATM   42  C10 UNL     1       6.642  -2.324  16.181  1.00  0.00     0.013 C 
HETATM   43  C11 UNL     1       6.901  -3.099  13.918  1.00  0.00     0.013 C 
ENDBRANCH  40  41
ENDBRANCH   5  40
BRANCH   9  44
HETATM   44  C14 UNL     1      10.011  -6.602  16.677  1.00  0.00     0.037 C 
BRANCH  44  45
HETATM   45  C15 UNL     1      10.497  -5.340  16.099  1.00  0.00    -0.020 C 
HETATM   46  C16 UNL     1       9.998  -5.134  14.677  1.00  0.00     0.009 C 
HETATM   47  C17 UNL     1      10.365  -4.085  16.883  1.00  0.00     0.009 C 
ENDBRANCH  44  45
ENDBRANCH   9  44
BRANCH   8  48
HETATM   48  O2  UNL     1       8.215  -6.655  18.727  1.00  0.00    -0.348 OA
ATOM     49  H2  UNL     1       8.901  -7.307  18.810  1.00  0.00     0.219 HD
ENDBRANCH   8  48
TORSDOF 12
ENDMDL
MODEL 4
REMARK VINA RESULT: -7.200713500      1.490      1.775
REMARK  12 active torsions:
REMARK  status: ('A' for Active; 'I' for Inactive)
REMARK    1  A    between atoms: C2_2  and  C3_3 
REMARK    2  A    between atoms: C3_3  and  C5_5 
REMARK    3  A    between atoms: C6_8  and  O1_9 
REMARK    4  A    between atoms: C7_11  and  C8_12 
REMARK    5  A    between atoms: C8_12  and  C9_13 
REMARK    6  A    between atoms: C12_18  and  O2_19 
REMARK    7  A    between atoms: C13_21  and  C14_22 
REMARK    8  A    between atoms: C14_22  and  C15_23 
REMARK    9  A    between atoms: C19_30  and  C20_31 
REMARK   10  A    between atoms: C23_36  and  O4_37 
REMARK   11  A    between atoms: C24_39  and  C25_40 
REMARK   12  A    between atoms: C25_40  and  C26_41 
ROOT
HETATM    1  C5  UNL     1       3.763  -5.451  16.742  1.00  0.00     0.087 C 
HETATM    2  N1  UNL     1       5.121  -5.283  16.398  1.00  0.00    -0.325 N 
ATOM      3  H1  UNL     1       5.197  -4.887  15.462  1.00  0.00     0.169 HD
HETATM    4  C6  UNL     1       6.383  -5.487  16.931  1.00  0.00     0.168 C 
HETATM    5  C7  UNL     1       7.203  -6.724  17.136  1.00  0.00     0.082 C 
HETATM    6  N2  UNL     1       6.477  -7.867  17.572  1.00  0.00    -0.336 N 
ATOM      7  H2  UNL     1       5.504  -7.610  17.740  1.00  0.00     0.168 HD
HETATM    8  C12 UNL     1       6.652  -9.200  17.840  1.00  0.00     0.139 C 
HETATM    9  C13 UNL     1       7.182 -10.339  17.087  1.00  0.00     0.159 C 
HETATM   10  N3  UNL     1       6.183 -10.959  16.213  1.00  0.00    -0.347 N 
ATOM     11  H3  UNL     1       6.521 -11.278  15.306  1.00  0.00     0.163 HD
HETATM   12  C18 UNL     1       4.825 -11.168  16.466  1.00  0.00     0.241 C 
HETATM   13  O3  UNL     1       4.423 -12.392  16.509  1.00  0.00    -0.271 OA
HETATM   14  C19 UNL     1       3.734 -10.201  16.697  1.00  0.00     0.179 C 
HETATM   15  N4  UNL     1       3.241  -9.652  15.426  1.00  0.00    -0.356 N 
ATOM     16  H4  UNL     1       2.501 -10.192  14.979  1.00  0.00     0.162 HD
HETATM   17  C23 UNL     1       3.627  -8.522  14.749  1.00  0.00     0.160 C 
HETATM   18  C24 UNL     1       3.502  -7.082  15.055  1.00  0.00     0.066 C 
HETATM   19  N5  UNL     1       3.144  -6.724  16.376  1.00  0.00    -0.345 N 
ATOM     20  H5  UNL     1       2.540  -7.275  16.986  1.00  0.00     0.167 HD
ENDROOT
BRANCH  18  21
HETATM   21  C25 UNL     1       2.797  -6.356  13.949  1.00  0.00     0.100 C 
BRANCH  21  22
HETATM   22  C26 UNL     1       2.591  -4.929  14.075  1.00  0.00    -0.052 A 
HETATM   23  C27 UNL     1       3.547  -3.939  14.020  1.00  0.00     0.008 A 
HETATM   24  C28 UNL     1       3.258  -2.593  14.153  1.00  0.00     0.007 A 
HETATM   25  C29 UNL     1       1.967  -2.165  14.352  1.00  0.00    -0.062 A 
HETATM   26  C30 UNL     1       1.686  -0.711  14.489  1.00  0.00     0.048 C 
HETATM   27  C31 UNL     1       0.985  -3.121  14.413  1.00  0.00     0.007 A 
HETATM   28  C32 UNL     1       1.282  -4.469  14.280  1.00  0.00     0.008 A 
ENDBRANCH  21  22
ENDBRANCH  18  21
BRANCH  17  29
HETATM   29  O4  UNL     1       4.221  -8.729  13.605  1.00  0.00    -0.345 OA
ATOM     30  H4  UNL     1       3.744  -8.434  12.838  1.00  0.00     0.219 HD
ENDBRANCH  17  29
BRANCH   1  31
HETATM   31  C3  UNL     1       3.273  -4.950  18.051  1.00  0.00     0.049 C 
HETATM   32  C4  UNL     1       2.201  -3.892  17.927  1.00  0.00     0.018 C 
BRANCH  31  33
HETATM   33  C2  UNL     1       2.836  -5.975  19.050  1.00  0.00     0.007 C 
HETATM   34  C1  UNL     1       4.021  -6.514  19.820  1.00  0.00     0.006 C 
ENDBRANCH  31  33
ENDBRANCH   1  31
BRANCH  14  35
HETATM   35  C20 UNL     1       2.533 -10.887  17.373  1.00  0.00     0.009 C 
HETATM   36  C21 UNL     1       1.313 -10.797  16.485  1.00  0.00     0.012 C 
HETATM   37  C22 UNL     1       2.237 -10.341  18.728  1.00  0.00     0.012 C 
ENDBRANCH  14  35
BRANCH   4  38
HETATM   38  O1  UNL     1       7.031  -4.430  17.349  1.00  0.00    -0.344 OA
ATOM     39  H1  UNL     1       6.706  -3.583  17.065  1.00  0.00     0.219 HD
ENDBRANCH   4  38
BRANCH   5  40
HETATM   40  C8  UNL     1       8.376  -6.861  16.282  1.00  0.00     0.011 C 
BRANCH  40  41
HETATM   41  C9  UNL     1       9.341  -5.834  15.946  1.00  0.00     0.002 C 
HETATM   42  C10 UNL     1       9.577  -5.611  14.443  1.00  0.00     0.013 C 
HETATM   43  C11 UNL     1      10.705  -5.829  16.557  1.00  0.00     0.013 C 
ENDBRANCH  40  41
ENDBRANCH   5  40
BRANCH   9  44
HETATM   44  C14 UNL     1       7.959 -11.352  17.845  1.00  0.00     0.037 C 
BRANCH  44  45
HETATM   45  C15 UNL     1       9.325 -11.041  18.293  1.00  0.00    -0.020 C 
HETATM   46  C16 UNL     1       9.427 -10.973  19.809  1.00  0.00     0.009 C 
HETATM   47  C17 UNL     1      10.466 -11.806  17.729  1.00  0.00     0.009 C 
ENDBRANCH  44  45
ENDBRANCH   9  44
BRANCH   8  48
HETATM   48  O2  UNL     1       6.260  -9.588  19.041  1.00  0.00    -0.348 OA
ATOM     49  H2  UNL     1       5.897 -10.465  19.084  1.00  0.00     0.219 HD
ENDBRANCH   8  48
TORSDOF 12
ENDMDL
MODEL 5
REMARK VINA RESULT: -6.633802743      2.239      3.648
REMARK  12 active torsions:
REMARK  status: ('A' for Active; 'I' for Inactive)
REMARK    1  A    between atoms: C2_2  and  C3_3 
REMARK    2  A    between atoms: C3_3  and  C5_5 
REMARK    3  A    between atoms: C6_8  and  O1_9 
REMARK    4  A    between atoms: C7_11  and  C8_12 
REMARK    5  A    between atoms: C8_12  and  C9_13 
REMARK    6  A    between atoms: C12_18  and  O2_19 
REMARK    7  A    between atoms: C13_21  and  C14_22 
REMARK    8  A    between atoms: C14_22  and  C15_23 
REMARK    9  A    between atoms: C19_30  and  C20_31 
REMARK   10  A    between atoms: C23_36  and  O4_37 
REMARK   11  A    between atoms: C24_39  and  C25_40 
REMARK   12  A    between atoms: C25_40  and  C26_41 
ROOT
HETATM    1  C5  UNL     1       4.288  -3.437  15.789  1.00  0.00     0.087 C 
HETATM    2  N1  UNL     1       5.543  -3.586  15.162  1.00  0.00    -0.325 N 
ATOM      3  H1  UNL     1       5.428  -3.587  14.149  1.00  0.00     0.169 HD
HETATM    4  C6  UNL     1       6.881  -3.732  15.489  1.00  0.00     0.168 C 
HETATM    5  C7  UNL     1       7.670  -4.893  16.011  1.00  0.00     0.082 C 
HETATM    6  N2  UNL     1       7.008  -5.685  16.991  1.00  0.00    -0.336 N 
ATOM      7  H2  UNL     1       6.108  -5.262  17.220  1.00  0.00     0.168 HD
HETATM    8  C12 UNL     1       7.178  -6.828  17.728  1.00  0.00     0.139 C 
HETATM    9  C13 UNL     1       7.478  -8.225  17.404  1.00  0.00     0.159 C 
HETATM   10  N3  UNL     1       6.285  -8.996  17.049  1.00  0.00    -0.347 N 
ATOM     11  H3  UNL     1       6.401  -9.675  16.297  1.00  0.00     0.163 HD
HETATM   12  C18 UNL     1       5.008  -8.920  17.610  1.00  0.00     0.241 C 
HETATM   13  O3  UNL     1       4.572  -9.975  18.209  1.00  0.00    -0.271 OA
HETATM   14  C19 UNL     1       4.039  -7.807  17.637  1.00  0.00     0.179 C 
HETATM   15  N4  UNL     1       3.303  -7.721  16.367  1.00  0.00    -0.356 N 
ATOM     16  H4  UNL     1       2.459  -8.292  16.317  1.00  0.00     0.162 HD
HETATM   17  C23 UNL     1       3.580  -6.990  15.239  1.00  0.00     0.160 C 
HETATM   18  C24 UNL     1       3.590  -5.538  14.967  1.00  0.00     0.066 C 
HETATM   19  N5  UNL     1       3.548  -4.665  16.079  1.00  0.00    -0.345 N 
ATOM     20  H5  UNL     1       3.069  -4.863  16.957  1.00  0.00     0.167 HD
ENDROOT
BRANCH  18  21
HETATM   21  C25 UNL     1       2.691  -5.201  13.815  1.00  0.00     0.100 C 
BRANCH  21  22
HETATM   22  C26 UNL     1       2.024  -3.916  13.807  1.00  0.00    -0.052 A 
HETATM   23  C27 UNL     1       0.733  -3.644  14.203  1.00  0.00     0.008 A 
HETATM   24  C28 UNL     1       0.174  -2.379  14.159  1.00  0.00     0.007 A 
HETATM   25  C29 UNL     1       0.899  -1.303  13.705  1.00  0.00    -0.062 A 
HETATM   26  C30 UNL     1       0.272   0.045  13.671  1.00  0.00     0.048 C 
HETATM   27  C31 UNL     1       2.189  -1.534  13.301  1.00  0.00     0.007 A 
HETATM   28  C32 UNL     1       2.744  -2.804  13.347  1.00  0.00     0.008 A 
ENDBRANCH  21  22
ENDBRANCH  18  21
BRANCH  17  29
HETATM   29  O4  UNL     1       3.898  -7.687  14.183  1.00  0.00    -0.345 OA
ATOM     30  H4  UNL     1       4.463  -7.249  13.558  1.00  0.00     0.219 HD
ENDBRANCH  17  29
BRANCH   1  31
HETATM   31  C3  UNL     1       4.120  -2.421  16.858  1.00  0.00     0.049 C 
HETATM   32  C4  UNL     1       4.767  -1.094  16.534  1.00  0.00     0.018 C 
BRANCH  31  33
HETATM   33  C2  UNL     1       2.728  -2.180  17.353  1.00  0.00     0.007 C 
HETATM   34  C1  UNL     1       2.052  -3.484  17.713  1.00  0.00     0.006 C 
ENDBRANCH  31  33
ENDBRANCH   1  31
BRANCH  14  35
HETATM   35  C20 UNL     1       2.987  -8.028  18.739  1.00  0.00     0.009 C 
HETATM   36  C21 UNL     1       1.708  -8.567  18.138  1.00  0.00     0.012 C 
HETATM   37  C22 UNL     1       2.714  -6.800  19.538  1.00  0.00     0.012 C 
ENDBRANCH  14  35
BRANCH   4  38
HETATM   38  O1  UNL     1       7.652  -2.688  15.325  1.00  0.00    -0.344 OA
ATOM     39  H1  UNL     1       8.219  -2.684  14.563  1.00  0.00     0.219 HD
ENDBRANCH   4  38
BRANCH   5  40
HETATM   40  C8  UNL     1       8.619  -5.491  15.080  1.00  0.00     0.011 C 
BRANCH  40  41
HETATM   41  C9  UNL     1      10.065  -5.481  15.175  1.00  0.00     0.002 C 
HETATM   42  C10 UNL     1      10.654  -6.169  16.418  1.00  0.00     0.013 C 
HETATM   43  C11 UNL     1      10.837  -4.209  15.033  1.00  0.00     0.013 C 
ENDBRANCH  40  41
ENDBRANCH   5  40
BRANCH   9  44
HETATM   44  C14 UNL     1       8.358  -8.966  18.344  1.00  0.00     0.037 C 
BRANCH  44  45
HETATM   45  C15 UNL     1       8.498 -10.424  18.217  1.00  0.00    -0.020 C 
HETATM   46  C16 UNL     1       9.477 -10.811  17.119  1.00  0.00     0.009 C 
HETATM   47  C17 UNL     1       8.737 -11.239  19.436  1.00  0.00     0.009 C 
ENDBRANCH  44  45
ENDBRANCH   9  44
BRANCH   8  48
HETATM   48  O2  UNL     1       7.043  -6.680  19.034  1.00  0.00    -0.348 OA
ATOM     49  H2  UNL     1       6.391  -7.240  19.439  1.00  0.00     0.219 HD
ENDBRANCH   8  48
TORSDOF 12
ENDMDL
