MODEL 1
REMARK VINA RESULT: -8.471925464      0.000      0.000
REMARK  12 active torsions:
REMARK  status: ('A' for Active; 'I' for Inactive)
REMARK    1  A    between atoms: C2_2  and  O1_4 
REMARK    2  A    between atoms: O1_4  and  C4_5 
REMARK       I    between atoms: C4_5  and  N1_7 
REMARK    3  A    between atoms: N1_7  and  C5_9 
REMARK    4  A    between atoms: C5_9  and  C6_10 
REMARK    5  A    between atoms: C6_10  and  C7_11 
REMARK    6  A    between atoms: C7_11  and  C8_12 
REMARK    7  A    between atoms: C8_12  and  C9_13 
REMARK    8  A    between atoms: C10_14  and  O3_15 
REMARK    9  A    between atoms: C28_34  and  C29_35 
REMARK   10  A    between atoms: C29_35  and  N2_36 
REMARK   11  A    between atoms: N2_36  and  C30_38 
REMARK   12  A    between atoms: C30_38  and  C31_39 
ROOT
HETATM    1  C9  UNL     1       5.733  -5.531  16.313  1.00  0.00     0.042 C 
HETATM    2  C10 UNL     1       6.927  -4.697  16.270  1.00  0.00     0.147 C 
HETATM    3  C11 UNL     1       8.096  -4.794  17.074  1.00  0.00     0.005 C 
HETATM    4  C12 UNL     1       9.115  -5.670  17.065  1.00  0.00    -0.002 C 
HETATM    5  C13 UNL     1       9.258  -6.795  16.181  1.00  0.00    -0.000 C 
HETATM    6  C14 UNL     1       8.739  -8.021  16.330  1.00  0.00     0.000 C 
HETATM    7  C15 UNL     1       7.929  -8.539  17.396  1.00  0.00     0.000 C 
HETATM    8  C16 UNL     1       8.165  -9.412  18.362  1.00  0.00     0.000 C 
HETATM    9  C17 UNL     1       9.346 -10.167  18.661  1.00  0.00     0.000 C 
HETATM   10  C18 UNL     1       9.767 -11.164  17.825  1.00  0.00     0.000 C 
HETATM   11  C19 UNL     1       9.133 -11.580  16.606  1.00  0.00     0.000 C 
HETATM   12  C20 UNL     1       7.987 -12.178  16.369  1.00  0.00    -0.000 C 
HETATM   13  C21 UNL     1       6.893 -12.672  17.144  1.00  0.00    -0.004 C 
HETATM   14  C22 UNL     1       5.711 -12.284  17.525  1.00  0.00    -0.023 C 
HETATM   15  C23 UNL     1       4.894 -11.082  17.324  1.00  0.00     0.054 C 
HETATM   16  C24 UNL     1       5.128 -10.419  16.070  1.00  0.00    -0.023 C 
HETATM   17  C25 UNL     1       4.577  -9.343  15.550  1.00  0.00    -0.004 C 
HETATM   18  C26 UNL     1       3.571  -8.415  15.960  1.00  0.00    -0.003 C 
HETATM   19  C27 UNL     1       3.324  -7.425  16.749  1.00  0.00    -0.004 C 
HETATM   20  C28 UNL     1       3.877  -6.573  17.752  1.00  0.00     0.095 C 
HETATM   21  C32 UNL     1       4.613  -7.097  18.919  1.00  0.00     0.234 C 
HETATM   22  O5  UNL     1       4.448  -8.096  19.659  1.00  0.00    -0.272 OA
HETATM   23  N4  UNL     1       5.503  -5.986  18.768  1.00  0.00    -0.353 N 
ATOM     24  H4  UNL     1       6.273  -5.626  19.333  1.00  0.00     0.163 HD
HETATM   25  C33 UNL     1       4.910  -5.562  17.515  1.00  0.00     0.114 C 
ENDROOT
BRANCH   1  26
HETATM   26  C8  UNL     1       4.827  -4.978  15.184  1.00  0.00     0.009 C 
BRANCH  26  27
HETATM   27  C7  UNL     1       4.052  -3.775  15.532  1.00  0.00     0.002 C 
BRANCH  27  28
HETATM   28  C6  UNL     1       3.268  -3.394  14.255  1.00  0.00     0.020 C 
BRANCH  28  29
HETATM   29  C5  UNL     1       3.790  -2.101  13.667  1.00  0.00     0.125 C 
BRANCH  29  30
HETATM   30  N1  UNL     1       5.195  -1.948  13.967  1.00  0.00    -0.337 N 
HETATM   31  C4  UNL     1       6.147  -2.211  12.958  1.00  0.00     0.360 C 
HETATM   32  O2  UNL     1       5.802  -2.577  11.794  1.00  0.00    -0.239 OA
ATOM     33  H1  UNL     1       5.496  -1.653  14.896  1.00  0.00     0.164 HD
BRANCH  31  34
HETATM   34  O1  UNL     1       7.488  -2.069  13.240  1.00  0.00    -0.299 OA
BRANCH  34  35
HETATM   35  C2  UNL     1       7.949  -0.986  14.021  1.00  0.00     0.125 C 
HETATM   36  C1  UNL     1       8.597   0.030  13.099  1.00  0.00     0.040 C 
HETATM   37  C3  UNL     1       8.996  -1.518  14.999  1.00  0.00     0.040 C 
ENDBRANCH  34  35
ENDBRANCH  31  34
ENDBRANCH  29  30
ENDBRANCH  28  29
ENDBRANCH  27  28
ENDBRANCH  26  27
ENDBRANCH   1  26
BRANCH   2  38
HETATM   38  O3  UNL     1       7.372  -4.718  14.895  1.00  0.00    -0.391 OA
ATOM     39  H3  UNL     1       8.106  -4.116  14.852  1.00  0.00     0.210 HD
ENDBRANCH   2  38
BRANCH  20  40
HETATM   40  C29 UNL     1       2.684  -5.762  18.483  1.00  0.00     0.139 C 
BRANCH  40  41
HETATM   41  N2  UNL     1       2.010  -6.781  19.214  1.00  0.00    -0.412 N 
ATOM     42  H2  UNL     1       1.809  -7.689  18.796  1.00  0.00     0.153 HD
BRANCH  41  43
HETATM   43  C30 UNL     1       1.629  -6.484  20.546  1.00  0.00     0.213 C 
BRANCH  43  44
HETATM   44  C31 UNL     1       0.354  -7.119  20.906  1.00  0.00     0.248 C 
HETATM   45  N3  UNL     1       0.186  -8.546  20.758  1.00  0.00    -0.061 NA
HETATM   46  O4  UNL     1      -0.595  -6.451  21.338  1.00  0.00    -0.275 OA
ENDBRANCH  43  44
ENDBRANCH  41  43
ENDBRANCH  40  41
ENDBRANCH  20  40
TORSDOF 12
ENDMDL
MODEL 2
REMARK VINA RESULT: -8.390719681      3.394      6.079
REMARK  12 active torsions:
REMARK  status: ('A' for Active; 'I' for Inactive)
REMARK    1  A    between atoms: C2_2  and  O1_4 
REMARK    2  A    between atoms: O1_4  and  C4_5 
REMARK       I    between atoms: C4_5  and  N1_7 
REMARK    3  A    between atoms: N1_7  and  C5_9 
REMARK    4  A    between atoms: C5_9  and  C6_10 
REMARK    5  A    between atoms: C6_10  and  C7_11 
REMARK    6  A    between atoms: C7_11  and  C8_12 
REMARK    7  A    between atoms: C8_12  and  C9_13 
REMARK    8  A    between atoms: C10_14  and  O3_15 
REMARK    9  A    between atoms: C28_34  and  C29_35 
REMARK   10  A    between atoms: C29_35  and  N2_36 
REMARK   11  A    between atoms: N2_36  and  C30_38 
REMARK   12  A    between atoms: C30_38  and  C31_39 
ROOT
HETATM    1  C9  UNL     1       5.250  -2.176  13.886  1.00  0.00     0.042 C 
HETATM    2  C10 UNL     1       6.641  -1.744  13.931  1.00  0.00     0.147 C 
HETATM    3  C11 UNL     1       7.541  -1.794  15.031  1.00  0.00     0.005 C 
HETATM    4  C12 UNL     1       8.191  -2.821  15.604  1.00  0.00    -0.002 C 
HETATM    5  C13 UNL     1       8.109  -4.202  15.212  1.00  0.00    -0.000 C 
HETATM    6  C14 UNL     1       7.192  -5.104  15.587  1.00  0.00     0.000 C 
HETATM    7  C15 UNL     1       6.075  -4.944  16.474  1.00  0.00     0.000 C 
HETATM    8  C16 UNL     1       5.823  -5.393  17.693  1.00  0.00     0.000 C 
HETATM    9  C17 UNL     1       6.607  -6.229  18.553  1.00  0.00     0.000 C 
HETATM   10  C18 UNL     1       6.816  -7.545  18.245  1.00  0.00     0.000 C 
HETATM   11  C19 UNL     1       6.315  -8.242  17.095  1.00  0.00     0.000 C 
HETATM   12  C20 UNL     1       5.099  -8.589  16.735  1.00  0.00    -0.000 C 
HETATM   13  C21 UNL     1       3.780  -8.455  17.269  1.00  0.00    -0.004 C 
HETATM   14  C22 UNL     1       2.747  -7.674  17.139  1.00  0.00    -0.023 C 
HETATM   15  C23 UNL     1       2.431  -6.491  16.331  1.00  0.00     0.054 C 
HETATM   16  C24 UNL     1       3.099  -6.456  15.058  1.00  0.00    -0.023 C 
HETATM   17  C25 UNL     1       3.046  -5.575  14.082  1.00  0.00    -0.004 C 
HETATM   18  C26 UNL     1       2.351  -4.348  13.857  1.00  0.00    -0.003 C 
HETATM   19  C27 UNL     1       2.310  -3.098  14.176  1.00  0.00    -0.004 C 
HETATM   20  C28 UNL     1       2.922  -2.080  14.967  1.00  0.00     0.095 C 
HETATM   21  C32 UNL     1       3.213  -2.261  16.404  1.00  0.00     0.234 C 
HETATM   22  O5  UNL     1       2.590  -2.813  17.342  1.00  0.00    -0.272 OA
HETATM   23  N4  UNL     1       4.435  -1.553  16.173  1.00  0.00    -0.353 N 
ATOM     24  H4  UNL     1       5.163  -1.196  16.793  1.00  0.00     0.163 HD
HETATM   25  C33 UNL     1       4.258  -1.529  14.734  1.00  0.00     0.114 C 
ENDROOT
BRANCH   1  26
HETATM   26  C8  UNL     1       4.805  -1.913  12.425  1.00  0.00     0.009 C 
BRANCH  26  27
HETATM   27  C7  UNL     1       5.137  -0.579  11.897  1.00  0.00     0.002 C 
BRANCH  27  28
HETATM   28  C6  UNL     1       3.784   0.139  11.684  1.00  0.00     0.020 C 
BRANCH  28  29
HETATM   29  C5  UNL     1       3.847   1.567  12.179  1.00  0.00     0.125 C 
BRANCH  29  30
HETATM   30  N1  UNL     1       4.982   2.247  11.598  1.00  0.00    -0.337 N 
HETATM   31  C4  UNL     1       4.943   3.651  11.452  1.00  0.00     0.360 C 
HETATM   32  O2  UNL     1       3.940   4.333  11.819  1.00  0.00    -0.239 OA
ATOM     33  H1  UNL     1       5.801   1.719  11.298  1.00  0.00     0.164 HD
BRANCH  31  34
HETATM   34  O1  UNL     1       6.023   4.302  10.897  1.00  0.00    -0.299 OA
BRANCH  34  35
HETATM   35  C2  UNL     1       7.271   3.652  10.773  1.00  0.00     0.125 C 
HETATM   36  C1  UNL     1       8.229   4.253  11.785  1.00  0.00     0.040 C 
HETATM   37  C3  UNL     1       7.802   3.909   9.363  1.00  0.00     0.040 C 
ENDBRANCH  34  35
ENDBRANCH  31  34
ENDBRANCH  29  30
ENDBRANCH  28  29
ENDBRANCH  27  28
ENDBRANCH  26  27
ENDBRANCH   1  26
BRANCH   2  38
HETATM   38  O3  UNL     1       7.297  -2.413  12.831  1.00  0.00    -0.391 OA
ATOM     39  H3  UNL     1       8.125  -1.963  12.711  1.00  0.00     0.210 HD
ENDBRANCH   2  38
BRANCH  20  40
HETATM   40  C29 UNL     1       1.957  -0.784  15.013  1.00  0.00     0.139 C 
BRANCH  40  41
HETATM   41  N2  UNL     1       1.248  -0.872  13.781  1.00  0.00    -0.412 N 
ATOM     42  H2  UNL     1       1.503  -1.558  13.071  1.00  0.00     0.153 HD
BRANCH  41  43
HETATM   43  C30 UNL     1       0.174   0.030  13.581  1.00  0.00     0.213 C 
BRANCH  43  44
HETATM   44  C31 UNL     1       0.301   0.759  12.312  1.00  0.00     0.248 C 
HETATM   45  N3  UNL     1       0.232   2.202  12.293  1.00  0.00    -0.061 NA
HETATM   46  O4  UNL     1       0.467   0.159  11.242  1.00  0.00    -0.275 OA
ENDBRANCH  43  44
ENDBRANCH  41  43
ENDBRANCH  40  41
ENDBRANCH  20  40
TORSDOF 12
ENDMDL
MODEL 3
REMARK VINA RESULT: -8.372570774      3.928      6.489
REMARK  12 active torsions:
REMARK  status: ('A' for Active; 'I' for Inactive)
REMARK    1  A    between atoms: C2_2  and  O1_4 
REMARK    2  A    between atoms: O1_4  and  C4_5 
REMARK       I    between atoms: C4_5  and  N1_7 
REMARK    3  A    between atoms: N1_7  and  C5_9 
REMARK    4  A    between atoms: C5_9  and  C6_10 
REMARK    5  A    between atoms: C6_10  and  C7_11 
REMARK    6  A    between atoms: C7_11  and  C8_12 
REMARK    7  A    between atoms: C8_12  and  C9_13 
REMARK    8  A    between atoms: C10_14  and  O3_15 
REMARK    9  A    between atoms: C28_34  and  C29_35 
REMARK   10  A    between atoms: C29_35  and  N2_36 
REMARK   11  A    between atoms: N2_36  and  C30_38 
REMARK   12  A    between atoms: C30_38  and  C31_39 
ROOT
HETATM    1  C9  UNL     1       5.222  -2.177  13.890  1.00  0.00     0.042 C 
HETATM    2  C10 UNL     1       6.602  -1.710  13.929  1.00  0.00     0.147 C 
HETATM    3  C11 UNL     1       7.507  -1.734  15.026  1.00  0.00     0.005 C 
HETATM    4  C12 UNL     1       8.184  -2.742  15.601  1.00  0.00    -0.002 C 
HETATM    5  C13 UNL     1       8.135  -4.126  15.214  1.00  0.00    -0.000 C 
HETATM    6  C14 UNL     1       7.242  -5.050  15.594  1.00  0.00     0.000 C 
HETATM    7  C15 UNL     1       6.124  -4.915  16.484  1.00  0.00     0.000 C 
HETATM    8  C16 UNL     1       5.887  -5.366  17.705  1.00  0.00     0.000 C 
HETATM    9  C17 UNL     1       6.695  -6.180  18.566  1.00  0.00     0.000 C 
HETATM   10  C18 UNL     1       6.936  -7.491  18.261  1.00  0.00     0.000 C 
HETATM   11  C19 UNL     1       6.449  -8.204  17.114  1.00  0.00     0.000 C 
HETATM   12  C20 UNL     1       5.241  -8.583  16.760  1.00  0.00    -0.000 C 
HETATM   13  C21 UNL     1       3.920  -8.480  17.297  1.00  0.00    -0.004 C 
HETATM   14  C22 UNL     1       2.868  -7.725  17.168  1.00  0.00    -0.023 C 
HETATM   15  C23 UNL     1       2.520  -6.553  16.357  1.00  0.00     0.054 C 
HETATM   16  C24 UNL     1       3.183  -6.506  15.082  1.00  0.00    -0.023 C 
HETATM   17  C25 UNL     1       3.105  -5.630  14.103  1.00  0.00    -0.004 C 
HETATM   18  C26 UNL     1       2.379  -4.421  13.876  1.00  0.00    -0.003 C 
HETATM   19  C27 UNL     1       2.307  -3.172  14.191  1.00  0.00    -0.004 C 
HETATM   20  C28 UNL     1       2.895  -2.136  14.978  1.00  0.00     0.095 C 
HETATM   21  C32 UNL     1       3.195  -2.305  16.414  1.00  0.00     0.234 C 
HETATM   22  O5  UNL     1       2.589  -2.870  17.355  1.00  0.00    -0.272 OA
HETATM   23  N4  UNL     1       4.399  -1.567  16.177  1.00  0.00    -0.353 N 
ATOM     24  H4  UNL     1       5.119  -1.190  16.794  1.00  0.00     0.163 HD
HETATM   25  C33 UNL     1       4.217  -1.552  14.739  1.00  0.00     0.114 C 
ENDROOT
BRANCH   1  26
HETATM   26  C8  UNL     1       4.767  -1.930  12.429  1.00  0.00     0.009 C 
BRANCH  26  27
HETATM   27  C7  UNL     1       4.131  -0.625  12.181  1.00  0.00     0.002 C 
BRANCH  27  28
HETATM   28  C6  UNL     1       5.286   0.352  11.859  1.00  0.00     0.020 C 
BRANCH  28  29
HETATM   29  C5  UNL     1       4.858   1.786  12.083  1.00  0.00     0.125 C 
BRANCH  29  30
HETATM   30  N1  UNL     1       4.612   2.437  10.817  1.00  0.00    -0.337 N 
HETATM   31  C4  UNL     1       3.957   3.688  10.802  1.00  0.00     0.360 C 
HETATM   32  O2  UNL     1       3.581   4.257  11.870  1.00  0.00    -0.239 OA
ATOM     33  H1  UNL     1       4.908   1.999   9.945  1.00  0.00     0.164 HD
BRANCH  31  34
HETATM   34  O1  UNL     1       3.718   4.311   9.597  1.00  0.00    -0.299 OA
BRANCH  34  35
HETATM   35  C2  UNL     1       2.403   4.659   9.213  1.00  0.00     0.125 C 
HETATM   36  C1  UNL     1       1.595   3.384   9.058  1.00  0.00     0.040 C 
HETATM   37  C3  UNL     1       2.476   5.376   7.866  1.00  0.00     0.040 C 
ENDBRANCH  34  35
ENDBRANCH  31  34
ENDBRANCH  29  30
ENDBRANCH  28  29
ENDBRANCH  27  28
ENDBRANCH  26  27
ENDBRANCH   1  26
BRANCH   2  38
HETATM   38  O3  UNL     1       7.271  -2.366  12.829  1.00  0.00    -0.391 OA
ATOM     39  H3  UNL     1       8.195  -2.364  13.051  1.00  0.00     0.210 HD
ENDBRANCH   2  38
BRANCH  20  40
HETATM   40  C29 UNL     1       1.898  -0.865  15.022  1.00  0.00     0.139 C 
BRANCH  40  41
HETATM   41  N2  UNL     1       1.156  -1.001  13.814  1.00  0.00    -0.412 N 
ATOM     42  H2  UNL     1       1.305  -1.791  13.187  1.00  0.00     0.153 HD
BRANCH  41  43
HETATM   43  C30 UNL     1       0.202   0.004  13.519  1.00  0.00     0.213 C 
BRANCH  43  44
HETATM   44  C31 UNL     1       0.560   0.762  12.314  1.00  0.00     0.248 C 
HETATM   45  N3  UNL     1       0.398   2.198  12.283  1.00  0.00    -0.061 NA
HETATM   46  O4  UNL     1       1.004   0.193  11.307  1.00  0.00    -0.275 OA
ENDBRANCH  43  44
ENDBRANCH  41  43
ENDBRANCH  40  41
ENDBRANCH  20  40
TORSDOF 12
ENDMDL
MODEL 4
REMARK VINA RESULT: -8.158396494      2.002      2.851
REMARK  12 active torsions:
REMARK  status: ('A' for Active; 'I' for Inactive)
REMARK    1  A    between atoms: C2_2  and  O1_4 
REMARK    2  A    between atoms: O1_4  and  C4_5 
REMARK       I    between atoms: C4_5  and  N1_7 
REMARK    3  A    between atoms: N1_7  and  C5_9 
REMARK    4  A    between atoms: C5_9  and  C6_10 
REMARK    5  A    between atoms: C6_10  and  C7_11 
REMARK    6  A    between atoms: C7_11  and  C8_12 
REMARK    7  A    between atoms: C8_12  and  C9_13 
REMARK    8  A    between atoms: C10_14  and  O3_15 
REMARK    9  A    between atoms: C28_34  and  C29_35 
REMARK   10  A    between atoms: C29_35  and  N2_36 
REMARK   11  A    between atoms: N2_36  and  C30_38 
REMARK   12  A    between atoms: C30_38  and  C31_39 
ROOT
HETATM    1  C9  UNL     1       5.866  -5.502  16.341  1.00  0.00     0.042 C 
HETATM    2  C10 UNL     1       7.091  -4.714  16.323  1.00  0.00     0.147 C 
HETATM    3  C11 UNL     1       8.247  -4.867  17.138  1.00  0.00     0.005 C 
HETATM    4  C12 UNL     1       9.232  -5.781  17.126  1.00  0.00    -0.002 C 
HETATM    5  C13 UNL     1       9.342  -6.897  16.227  1.00  0.00    -0.000 C 
HETATM    6  C14 UNL     1       8.775  -8.105  16.352  1.00  0.00     0.000 C 
HETATM    7  C15 UNL     1       7.935  -8.607  17.402  1.00  0.00     0.000 C 
HETATM    8  C16 UNL     1       8.127  -9.502  18.357  1.00  0.00     0.000 C 
HETATM    9  C17 UNL     1       9.275 -10.306  18.657  1.00  0.00     0.000 C 
HETATM   10  C18 UNL     1       9.667 -11.306  17.811  1.00  0.00     0.000 C 
HETATM   11  C19 UNL     1       9.031 -11.679  16.579  1.00  0.00     0.000 C 
HETATM   12  C20 UNL     1       7.866 -12.230  16.321  1.00  0.00    -0.000 C 
HETATM   13  C21 UNL     1       6.745 -12.694  17.077  1.00  0.00    -0.004 C 
HETATM   14  C22 UNL     1       5.575 -12.266  17.452  1.00  0.00    -0.023 C 
HETATM   15  C23 UNL     1       4.806 -11.032  17.260  1.00  0.00     0.054 C 
HETATM   16  C24 UNL     1       5.079 -10.359  16.018  1.00  0.00    -0.023 C 
HETATM   17  C25 UNL     1       4.575  -9.256  15.509  1.00  0.00    -0.004 C 
HETATM   18  C26 UNL     1       3.601  -8.297  15.922  1.00  0.00    -0.003 C 
HETATM   19  C27 UNL     1       3.382  -7.309  16.723  1.00  0.00    -0.004 C 
HETATM   20  C28 UNL     1       3.956  -6.493  17.744  1.00  0.00     0.095 C 
HETATM   21  C32 UNL     1       4.659  -7.062  18.912  1.00  0.00     0.234 C 
HETATM   22  O5  UNL     1       4.448  -8.065  19.635  1.00  0.00    -0.272 OA
HETATM   23  N4  UNL     1       5.592  -5.984  18.786  1.00  0.00    -0.353 N 
ATOM     24  H4  UNL     1       6.368  -5.662  19.365  1.00  0.00     0.163 HD
HETATM   25  C33 UNL     1       5.029  -5.519  17.533  1.00  0.00     0.114 C 
ENDROOT
BRANCH   1  26
HETATM   26  C8  UNL     1       4.995  -4.899  15.211  1.00  0.00     0.009 C 
BRANCH  26  27
HETATM   27  C7  UNL     1       4.246  -3.683  15.575  1.00  0.00     0.002 C 
BRANCH  27  28
HETATM   28  C6  UNL     1       3.131  -3.541  14.513  1.00  0.00     0.020 C 
BRANCH  28  29
HETATM   29  C5  UNL     1       2.243  -2.355  14.819  1.00  0.00     0.125 C 
BRANCH  29  30
HETATM   30  N1  UNL     1       2.496  -1.287  13.880  1.00  0.00    -0.337 N 
HETATM   31  C4  UNL     1       1.415  -0.504  13.419  1.00  0.00     0.360 C 
HETATM   32  O2  UNL     1       0.227  -0.712  13.809  1.00  0.00    -0.239 OA
ATOM     33  H1  UNL     1       3.445  -1.100  13.555  1.00  0.00     0.164 HD
BRANCH  31  34
HETATM   34  O1  UNL     1       1.652   0.514  12.522  1.00  0.00    -0.299 OA
BRANCH  34  35
HETATM   35  C2  UNL     1       0.715   0.815  11.508  1.00  0.00     0.125 C 
HETATM   36  C1  UNL     1       1.362   0.549  10.162  1.00  0.00     0.040 C 
HETATM   37  C3  UNL     1       0.360   2.298  11.614  1.00  0.00     0.040 C 
ENDBRANCH  34  35
ENDBRANCH  31  34
ENDBRANCH  29  30
ENDBRANCH  28  29
ENDBRANCH  27  28
ENDBRANCH  26  27
ENDBRANCH   1  26
BRANCH   2  38
HETATM   38  O3  UNL     1       7.550  -4.731  14.953  1.00  0.00    -0.391 OA
ATOM     39  H3  UNL     1       7.699  -3.822  14.718  1.00  0.00     0.210 HD
ENDBRANCH   2  38
BRANCH  20  40
HETATM   40  C29 UNL     1       2.787  -5.649  18.475  1.00  0.00     0.139 C 
BRANCH  40  41
HETATM   41  N2  UNL     1       2.072  -6.651  19.192  1.00  0.00    -0.412 N 
ATOM     42  H2  UNL     1       1.835  -7.544  18.760  1.00  0.00     0.153 HD
BRANCH  41  43
HETATM   43  C30 UNL     1       1.703  -6.358  20.527  1.00  0.00     0.213 C 
BRANCH  43  44
HETATM   44  C31 UNL     1       0.419  -6.974  20.889  1.00  0.00     0.248 C 
HETATM   45  N3  UNL     1       0.248  -8.406  20.793  1.00  0.00    -0.061 NA
HETATM   46  O4  UNL     1      -0.535  -6.287  21.278  1.00  0.00    -0.275 OA
ENDBRANCH  43  44
ENDBRANCH  41  43
ENDBRANCH  40  41
ENDBRANCH  20  40
TORSDOF 12
ENDMDL
MODEL 5
REMARK VINA RESULT: -8.119459818      2.160      3.570
REMARK  12 active torsions:
REMARK  status: ('A' for Active; 'I' for Inactive)
REMARK    1  A    between atoms: C2_2  and  O1_4 
REMARK    2  A    between atoms: O1_4  and  C4_5 
REMARK       I    between atoms: C4_5  and  N1_7 
REMARK    3  A    between atoms: N1_7  and  C5_9 
REMARK    4  A    between atoms: C5_9  and  C6_10 
REMARK    5  A    between atoms: C6_10  and  C7_11 
REMARK    6  A    between atoms: C7_11  and  C8_12 
REMARK    7  A    between atoms: C8_12  and  C9_13 
REMARK    8  A    between atoms: C10_14  and  O3_15 
REMARK    9  A    between atoms: C28_34  and  C29_35 
REMARK   10  A    between atoms: C29_35  and  N2_36 
REMARK   11  A    between atoms: N2_36  and  C30_38 
REMARK   12  A    between atoms: C30_38  and  C31_39 
ROOT
HETATM    1  C9  UNL     1       6.249  -5.481  16.338  1.00  0.00     0.042 C 
HETATM    2  C10 UNL     1       7.634  -5.082  16.551  1.00  0.00     0.147 C 
HETATM    3  C11 UNL     1       8.538  -5.543  17.547  1.00  0.00     0.005 C 
HETATM    4  C12 UNL     1       9.203  -6.704  17.680  1.00  0.00    -0.002 C 
HETATM    5  C13 UNL     1       9.137  -7.826  16.783  1.00  0.00    -0.000 C 
HETATM    6  C14 UNL     1       8.232  -8.814  16.776  1.00  0.00     0.000 C 
HETATM    7  C15 UNL     1       7.115  -9.025  17.653  1.00  0.00     0.000 C 
HETATM    8  C16 UNL     1       6.873  -9.914  18.603  1.00  0.00     0.000 C 
HETATM    9  C17 UNL     1       7.669 -11.008  19.073  1.00  0.00     0.000 C 
HETATM   10  C18 UNL     1       7.894 -12.099  18.280  1.00  0.00     0.000 C 
HETATM   11  C19 UNL     1       7.399 -12.302  16.948  1.00  0.00     0.000 C 
HETATM   12  C20 UNL     1       6.186 -12.498  16.479  1.00  0.00    -0.000 C 
HETATM   13  C21 UNL     1       4.867 -12.598  17.020  1.00  0.00    -0.004 C 
HETATM   14  C22 UNL     1       3.824 -11.840  17.200  1.00  0.00    -0.023 C 
HETATM   15  C23 UNL     1       3.491 -10.441  16.913  1.00  0.00     0.054 C 
HETATM   16  C24 UNL     1       4.156  -9.907  15.754  1.00  0.00    -0.023 C 
HETATM   17  C25 UNL     1       4.088  -8.717  15.196  1.00  0.00    -0.004 C 
HETATM   18  C26 UNL     1       3.378  -7.507  15.462  1.00  0.00    -0.003 C 
HETATM   19  C27 UNL     1       3.321  -6.480  16.240  1.00  0.00    -0.004 C 
HETATM   20  C28 UNL     1       3.922  -5.841  17.366  1.00  0.00     0.095 C 
HETATM   21  C32 UNL     1       4.219  -6.560  18.621  1.00  0.00     0.234 C 
HETATM   22  O5  UNL     1       3.606  -7.441  19.270  1.00  0.00    -0.272 OA
HETATM   23  N4  UNL     1       5.432  -5.802  18.686  1.00  0.00    -0.353 N 
ATOM     24  H4  UNL     1       6.157  -5.705  19.398  1.00  0.00     0.163 HD
HETATM   25  C33 UNL     1       5.251  -5.225  17.368  1.00  0.00     0.114 C 
ENDROOT
BRANCH   1  26
HETATM   26  C8  UNL     1       5.797  -4.678  15.092  1.00  0.00     0.009 C 
BRANCH  26  27
HETATM   27  C7  UNL     1       5.872  -3.213  15.226  1.00  0.00     0.002 C 
BRANCH  27  28
HETATM   28  C6  UNL     1       6.457  -2.696  13.891  1.00  0.00     0.020 C 
BRANCH  28  29
HETATM   29  C5  UNL     1       5.925  -1.318  13.566  1.00  0.00     0.125 C 
BRANCH  29  30
HETATM   30  N1  UNL     1       4.481  -1.317  13.611  1.00  0.00    -0.337 N 
HETATM   31  C4  UNL     1       3.808  -0.182  14.114  1.00  0.00     0.360 C 
HETATM   32  O2  UNL     1       4.437   0.839  14.525  1.00  0.00    -0.239 OA
ATOM     33  H1  UNL     1       3.954  -2.126  13.284  1.00  0.00     0.164 HD
BRANCH  31  34
HETATM   34  O1  UNL     1       2.431  -0.178  14.160  1.00  0.00    -0.299 OA
BRANCH  34  35
HETATM   35  C2  UNL     1       1.670  -0.434  12.998  1.00  0.00     0.125 C 
HETATM   36  C1  UNL     1       1.834   0.737  12.048  1.00  0.00     0.040 C 
HETATM   37  C3  UNL     1       0.202  -0.549  13.408  1.00  0.00     0.040 C 
ENDBRANCH  34  35
ENDBRANCH  31  34
ENDBRANCH  29  30
ENDBRANCH  28  29
ENDBRANCH  27  28
ENDBRANCH  26  27
ENDBRANCH   1  26
BRANCH   2  38
HETATM   38  O3  UNL     1       8.296  -5.265  15.279  1.00  0.00    -0.391 OA
ATOM     39  H3  UNL     1       8.162  -6.176  15.047  1.00  0.00     0.210 HD
ENDBRANCH   2  38
BRANCH  20  40
HETATM   40  C29 UNL     1       2.941  -4.676  17.908  1.00  0.00     0.139 C 
BRANCH  40  41
HETATM   41  N2  UNL     1       2.052  -4.475  16.813  1.00  0.00    -0.412 N 
ATOM     42  H2  UNL     1       1.239  -5.073  16.675  1.00  0.00     0.153 HD
BRANCH  41  43
HETATM   43  C30 UNL     1       2.344  -3.410  15.925  1.00  0.00     0.213 C 
BRANCH  43  44
HETATM   44  C31 UNL     1       1.956  -3.727  14.545  1.00  0.00     0.248 C 
HETATM   45  N3  UNL     1       0.594  -4.101  14.240  1.00  0.00    -0.061 NA
HETATM   46  O4  UNL     1       2.780  -3.682  13.621  1.00  0.00    -0.275 OA
ENDBRANCH  43  44
ENDBRANCH  41  43
ENDBRANCH  40  41
ENDBRANCH  20  40
TORSDOF 12
ENDMDL
