MODEL 1
REMARK VINA RESULT: -10.262003654      0.000      0.000
REMARK  13 active torsions:
REMARK  status: ('A' for Active; 'I' for Inactive)
REMARK    1  A    between atoms: N1_1  and  C1_5 
REMARK    2  A    between atoms: C1_5  and  C2_6 
REMARK    3  A    between atoms: C6_10  and  C7_11 
REMARK    4  A    between atoms: C7_11  and  N2_12 
REMARK    5  A    between atoms: N2_12  and  C8_14 
REMARK    6  A    between atoms: C10_21  and  N5_22 
REMARK    7  A    between atoms: N5_22  and  C11_24 
REMARK    8  A    between atoms: C11_24  and  C12_25 
REMARK    9  A    between atoms: C12_25  and  C13_26 
REMARK   10  A    between atoms: C21_38  and  N8_39 
REMARK   11  A    between atoms: N8_39  and  C22_40 
REMARK   12  A    between atoms: C22_40  and  C23_41 
REMARK   13  A    between atoms: C22_40  and  C29_47 
ROOT
HETATM    1  C8  UNL     1       3.262  -3.181  14.164  1.00  0.00     0.165 C 
HETATM    2  N3  UNL     1       1.969  -3.533  14.233  1.00  0.00    -0.290 N 
ATOM      3  H3  UNL     1       1.298  -2.823  13.938  1.00  0.00     0.172 HD
HETATM    4  C9  UNL     1       1.433  -4.721  14.647  1.00  0.00     0.340 C 
HETATM    5  O1  UNL     1       0.188  -4.853  14.557  1.00  0.00    -0.246 OA
HETATM    6  N4  UNL     1       2.083  -5.787  15.149  1.00  0.00    -0.141 N 
ATOM      7  H4  UNL     1       1.540  -6.434  15.721  1.00  0.00     0.189 HD
HETATM    8  C10 UNL     1       3.404  -6.081  14.965  1.00  0.00     0.684 C 
HETATM    9  N7  UNL     1       4.419  -5.258  14.665  1.00  0.00    -0.161 N 
ATOM     10  H7  UNL     1       5.316  -5.709  14.482  1.00  0.00     0.187 HD
HETATM   11  C21 UNL     1       4.413  -3.893  14.571  1.00  0.00     0.232 C 
ENDROOT
BRANCH   1  12
HETATM   12  N2  UNL     1       3.476  -2.031  13.652  1.00  0.00    -0.368 N 
ATOM     13  H2  UNL     1       4.131  -2.019  12.870  1.00  0.00     0.161 HD
BRANCH  12  14
HETATM   14  C7  UNL     1       2.941  -0.771  14.008  1.00  0.00     0.160 C 
BRANCH  14  15
HETATM   15  C6  UNL     1       2.460   0.051  12.867  1.00  0.00    -0.040 A 
HETATM   16  C5  UNL     1       1.301  -0.178  12.167  1.00  0.00     0.009 A 
HETATM   17  C4  UNL     1       0.930   0.640  11.120  1.00  0.00     0.001 A 
HETATM   18  C3  UNL     1       1.704   1.715  10.738  1.00  0.00     0.009 A 
HETATM   19  C2  UNL     1       2.875   1.951  11.441  1.00  0.00    -0.033 A 
HETATM   20  C35 UNL     1       3.233   1.125  12.486  1.00  0.00     0.017 A 
BRANCH  19  21
HETATM   21  C1  UNL     1       3.715   3.117  11.031  1.00  0.00     0.268 C 
BRANCH  21  22
HETATM   22  N1  UNL     1       4.449   3.608  12.183  1.00  0.00    -0.075 N 
ATOM     23  H13 UNL     1       3.830   3.932  12.926  1.00  0.00     0.274 HD
ATOM     24  H12 UNL     1       4.910   2.857  12.696  1.00  0.00     0.274 HD
ATOM     25  H11 UNL     1       5.103   4.331  11.883  1.00  0.00     0.274 HD
ENDBRANCH  21  22
ENDBRANCH  19  21
ENDBRANCH  14  15
ENDBRANCH  12  14
ENDBRANCH   1  12
BRANCH  11  26
HETATM   26  N8  UNL     1       5.374  -3.260  14.824  1.00  0.00    -0.411 NA
BRANCH  26  27
HETATM   27  C22 UNL     1       6.479  -2.564  15.150  1.00  0.00     0.231 C 
BRANCH  27  28
HETATM   28  C23 UNL     1       6.648  -1.319  14.301  1.00  0.00    -0.018 A 
HETATM   29  C24 UNL     1       7.074  -1.423  12.998  1.00  0.00     0.011 A 
HETATM   30  C25 UNL     1       7.225  -0.269  12.221  1.00  0.00     0.001 A 
HETATM   31  C26 UNL     1       6.955   0.977  12.740  1.00  0.00     0.000 A 
HETATM   32  C27 UNL     1       6.529   1.087  14.045  1.00  0.00     0.001 A 
HETATM   33  C28 UNL     1       6.382  -0.065  14.807  1.00  0.00     0.011 A 
ENDBRANCH  27  28
BRANCH  27  34
HETATM   34  C29 UNL     1       7.775  -3.311  15.151  1.00  0.00    -0.018 A 
HETATM   35  C30 UNL     1       7.931  -4.529  14.506  1.00  0.00     0.011 A 
HETATM   36  C31 UNL     1       9.151  -5.207  14.521  1.00  0.00     0.001 A 
HETATM   37  C32 UNL     1      10.234  -4.692  15.173  1.00  0.00     0.000 A 
HETATM   38  C33 UNL     1      10.104  -3.473  15.827  1.00  0.00     0.001 A 
HETATM   39  C34 UNL     1       8.890  -2.827  15.796  1.00  0.00     0.011 A 
ENDBRANCH  27  34
ENDBRANCH  26  27
ENDBRANCH  11  26
BRANCH   8  40
HETATM   40  N5  UNL     1       3.708  -7.309  15.099  1.00  0.00    -0.226 N 
ATOM     41  H5  UNL     1       4.513  -7.626  14.560  1.00  0.00     0.177 HD
BRANCH  40  42
HETATM   42  C11 UNL     1       3.075  -8.296  15.899  1.00  0.00     0.142 C 
BRANCH  42  43
HETATM   43  C12 UNL     1       3.621  -8.171  17.319  1.00  0.00     0.061 C 
BRANCH  43  44
HETATM   44  C13 UNL     1       5.079  -8.490  17.380  1.00  0.00    -0.029 A 
HETATM   45  C14 UNL     1       5.657  -9.746  17.249  1.00  0.00     0.096 A 
HETATM   46  N6  UNL     1       6.971  -9.598  17.367  1.00  0.00    -0.365 N 
HETATM   47  C15 UNL     1       7.288  -8.302  17.570  1.00  0.00     0.042 A 
ATOM     48  H6  UNL     1       7.648 -10.360  17.312  1.00  0.00     0.165 HD
HETATM   49  C16 UNL     1       8.509  -7.678  17.747  1.00  0.00     0.030 A 
HETATM   50  C20 UNL     1       6.104  -7.604  17.580  1.00  0.00    -0.002 A 
HETATM   51  C17 UNL     1       8.505  -6.302  17.937  1.00  0.00     0.002 A 
HETATM   52  C18 UNL     1       7.337  -5.579  17.950  1.00  0.00     0.001 A 
HETATM   53  C19 UNL     1       6.146  -6.232  17.772  1.00  0.00     0.014 A 
ENDBRANCH  43  44
ENDBRANCH  42  43
ENDBRANCH  40  42
ENDBRANCH   8  40
TORSDOF 13
ENDMDL
MODEL 2
REMARK VINA RESULT: -10.152450605      3.002      6.245
REMARK  13 active torsions:
REMARK  status: ('A' for Active; 'I' for Inactive)
REMARK    1  A    between atoms: N1_1  and  C1_5 
REMARK    2  A    between atoms: C1_5  and  C2_6 
REMARK    3  A    between atoms: C6_10  and  C7_11 
REMARK    4  A    between atoms: C7_11  and  N2_12 
REMARK    5  A    between atoms: N2_12  and  C8_14 
REMARK    6  A    between atoms: C10_21  and  N5_22 
REMARK    7  A    between atoms: N5_22  and  C11_24 
REMARK    8  A    between atoms: C11_24  and  C12_25 
REMARK    9  A    between atoms: C12_25  and  C13_26 
REMARK   10  A    between atoms: C21_38  and  N8_39 
REMARK   11  A    between atoms: N8_39  and  C22_40 
REMARK   12  A    between atoms: C22_40  and  C23_41 
REMARK   13  A    between atoms: C22_40  and  C29_47 
ROOT
HETATM    1  C8  UNL     1       6.308   0.999  13.070  1.00  0.00     0.165 C 
HETATM    2  N3  UNL     1       7.518   1.092  12.495  1.00  0.00    -0.290 N 
ATOM      3  H3  UNL     1       7.615   1.812  11.779  1.00  0.00     0.172 HD
HETATM    4  C9  UNL     1       8.636   0.347  12.745  1.00  0.00     0.340 C 
HETATM    5  O1  UNL     1       9.685   0.662  12.132  1.00  0.00    -0.246 OA
HETATM    6  N4  UNL     1       8.757  -0.703  13.579  1.00  0.00    -0.141 N 
ATOM      7  H4  UNL     1       9.524  -1.351  13.399  1.00  0.00     0.189 HD
HETATM    8  C10 UNL     1       7.947  -0.980  14.643  1.00  0.00     0.684 C 
HETATM    9  N7  UNL     1       6.678  -0.603  14.859  1.00  0.00    -0.161 N 
ATOM     10  H7  UNL     1       6.293  -0.849  15.772  1.00  0.00     0.187 HD
HETATM   11  C21 UNL     1       5.831   0.067  14.020  1.00  0.00     0.232 C 
ENDROOT
BRANCH   1  12
HETATM   12  N2  UNL     1       5.471   1.889  12.701  1.00  0.00    -0.368 N 
ATOM     13  H2  UNL     1       4.530   1.784  13.082  1.00  0.00     0.161 HD
BRANCH  12  14
HETATM   14  C7  UNL     1       5.653   2.999  11.842  1.00  0.00     0.160 C 
BRANCH  14  15
HETATM   15  C6  UNL     1       4.417   3.481  11.171  1.00  0.00    -0.040 A 
HETATM   16  C5  UNL     1       3.164   3.469  11.729  1.00  0.00     0.009 A 
HETATM   17  C4  UNL     1       2.070   3.940  11.032  1.00  0.00     0.001 A 
HETATM   18  C3  UNL     1       2.194   4.440   9.754  1.00  0.00     0.009 A 
HETATM   19  C2  UNL     1       3.458   4.455   9.184  1.00  0.00    -0.033 A 
HETATM   20  C35 UNL     1       4.541   3.981   9.893  1.00  0.00     0.017 A 
BRANCH  19  21
HETATM   21  C1  UNL     1       3.596   4.999   7.799  1.00  0.00     0.268 C 
BRANCH  21  22
HETATM   22  N1  UNL     1       4.694   4.329   7.128  1.00  0.00    -0.075 N 
ATOM     23  H13 UNL     1       4.785   4.616   6.153  1.00  0.00     0.274 HD
ATOM     24  H12 UNL     1       5.603   4.653   7.458  1.00  0.00     0.274 HD
ATOM     25  H11 UNL     1       4.585   3.320   7.226  1.00  0.00     0.274 HD
ENDBRANCH  21  22
ENDBRANCH  19  21
ENDBRANCH  14  15
ENDBRANCH  12  14
ENDBRANCH   1  12
BRANCH  11  26
HETATM   26  N8  UNL     1       4.666  -0.108  14.062  1.00  0.00    -0.411 NA
BRANCH  26  27
HETATM   27  C22 UNL     1       3.342  -0.334  14.147  1.00  0.00     0.231 C 
BRANCH  27  28
HETATM   28  C23 UNL     1       3.025  -1.752  14.580  1.00  0.00    -0.018 A 
HETATM   29  C24 UNL     1       2.823  -2.041  15.909  1.00  0.00     0.011 A 
HETATM   30  C25 UNL     1       2.530  -3.353  16.299  1.00  0.00     0.001 A 
HETATM   31  C26 UNL     1       2.440  -4.366  15.372  1.00  0.00     0.000 A 
HETATM   32  C27 UNL     1       2.642  -4.082  14.040  1.00  0.00     0.001 A 
HETATM   33  C28 UNL     1       2.932  -2.777  13.664  1.00  0.00     0.011 A 
ENDBRANCH  27  28
BRANCH  27  34
HETATM   34  C29 UNL     1       2.523  -0.020  12.935  1.00  0.00    -0.018 A 
HETATM   35  C30 UNL     1       3.055  -0.031  11.654  1.00  0.00     0.011 A 
HETATM   36  C31 UNL     1       2.269   0.266  10.540  1.00  0.00     0.001 A 
HETATM   37  C32 UNL     1       0.947   0.577  10.673  1.00  0.00     0.000 A 
HETATM   38  C33 UNL     1       0.389   0.594  11.945  1.00  0.00     0.001 A 
HETATM   39  C34 UNL     1       1.187   0.298  13.027  1.00  0.00     0.011 A 
ENDBRANCH  27  34
ENDBRANCH  26  27
ENDBRANCH  11  26
BRANCH   8  40
HETATM   40  N5  UNL     1       8.475  -1.696  15.552  1.00  0.00    -0.226 N 
ATOM     41  H5  UNL     1       7.888  -1.881  16.365  1.00  0.00     0.177 HD
BRANCH  40  42
HETATM   42  C11 UNL     1       9.772  -2.271  15.585  1.00  0.00     0.142 C 
BRANCH  42  43
HETATM   43  C12 UNL     1       9.655  -3.720  15.120  1.00  0.00     0.061 C 
BRANCH  43  44
HETATM   44  C13 UNL     1       9.288  -4.633  16.244  1.00  0.00    -0.029 A 
HETATM   45  C14 UNL     1      10.165  -5.261  17.119  1.00  0.00     0.096 A 
HETATM   46  N6  UNL     1       9.440  -5.984  17.965  1.00  0.00    -0.365 N 
HETATM   47  C15 UNL     1       8.124  -5.862  17.688  1.00  0.00     0.042 A 
ATOM     48  H6  UNL     1       9.824  -6.553  18.719  1.00  0.00     0.165 HD
HETATM   49  C16 UNL     1       7.010  -6.419  18.289  1.00  0.00     0.030 A 
HETATM   50  C20 UNL     1       8.025  -5.016  16.609  1.00  0.00    -0.002 A 
HETATM   51  C17 UNL     1       5.766  -6.094  17.762  1.00  0.00     0.002 A 
HETATM   52  C18 UNL     1       5.638  -5.250  16.685  1.00  0.00     0.001 A 
HETATM   53  C19 UNL     1       6.765  -4.718  16.115  1.00  0.00     0.014 A 
ENDBRANCH  43  44
ENDBRANCH  42  43
ENDBRANCH  40  42
ENDBRANCH   8  40
TORSDOF 13
ENDMDL
MODEL 3
REMARK VINA RESULT: -10.142487329      1.473      8.438
REMARK  13 active torsions:
REMARK  status: ('A' for Active; 'I' for Inactive)
REMARK    1  A    between atoms: N1_1  and  C1_5 
REMARK    2  A    between atoms: C1_5  and  C2_6 
REMARK    3  A    between atoms: C6_10  and  C7_11 
REMARK    4  A    between atoms: C7_11  and  N2_12 
REMARK    5  A    between atoms: N2_12  and  C8_14 
REMARK    6  A    between atoms: C10_21  and  N5_22 
REMARK    7  A    between atoms: N5_22  and  C11_24 
REMARK    8  A    between atoms: C11_24  and  C12_25 
REMARK    9  A    between atoms: C12_25  and  C13_26 
REMARK   10  A    between atoms: C21_38  and  N8_39 
REMARK   11  A    between atoms: N8_39  and  C22_40 
REMARK   12  A    between atoms: C22_40  and  C23_41 
REMARK   13  A    between atoms: C22_40  and  C29_47 
ROOT
HETATM    1  C8  UNL     1       4.192  -3.473  15.686  1.00  0.00     0.165 C 
HETATM    2  N3  UNL     1       3.077  -4.166  15.408  1.00  0.00    -0.290 N 
ATOM      3  H3  UNL     1       3.053  -5.126  15.753  1.00  0.00     0.172 HD
HETATM    4  C9  UNL     1       1.968  -3.752  14.723  1.00  0.00     0.340 C 
HETATM    5  O1  UNL     1       1.007  -4.555  14.646  1.00  0.00    -0.246 OA
HETATM    6  N4  UNL     1       1.774  -2.571  14.107  1.00  0.00    -0.141 N 
ATOM      7  H4  UNL     1       1.071  -2.545  13.368  1.00  0.00     0.189 HD
HETATM    8  C10 UNL     1       2.431  -1.406  14.380  1.00  0.00     0.684 C 
HETATM    9  N7  UNL     1       3.636  -1.227  14.941  1.00  0.00    -0.161 N 
ATOM     10  H7  UNL     1       3.894  -0.259  15.136  1.00  0.00     0.187 HD
HETATM   11  C21 UNL     1       4.567  -2.170  15.285  1.00  0.00     0.232 C 
ENDROOT
BRANCH   1  12
HETATM   12  N2  UNL     1       5.033  -4.086  16.423  1.00  0.00    -0.368 N 
ATOM     13  H2  UNL     1       5.951  -3.647  16.494  1.00  0.00     0.161 HD
BRANCH  12  14
HETATM   14  C7  UNL     1       4.883  -5.287  17.158  1.00  0.00     0.160 C 
BRANCH  14  15
HETATM   15  C6  UNL     1       6.147  -6.021  17.424  1.00  0.00    -0.040 A 
HETATM   16  C5  UNL     1       7.363  -5.432  17.668  1.00  0.00     0.009 A 
HETATM   17  C4  UNL     1       8.487  -6.194  17.908  1.00  0.00     0.001 A 
HETATM   18  C3  UNL     1       8.434  -7.571  17.913  1.00  0.00     0.009 A 
HETATM   19  C2  UNL     1       7.210  -8.173  17.668  1.00  0.00    -0.033 A 
HETATM   20  C35 UNL     1       6.094  -7.397  17.429  1.00  0.00     0.017 A 
BRANCH  19  21
HETATM   21  C1  UNL     1       7.148  -9.666  17.676  1.00  0.00     0.268 C 
BRANCH  21  22
HETATM   22  N1  UNL     1       7.328 -10.146  19.033  1.00  0.00    -0.075 N 
ATOM     23  H13 UNL     1       6.550  -9.890  19.641  1.00  0.00     0.274 HD
ATOM     24  H12 UNL     1       7.235 -11.159  19.099  1.00  0.00     0.274 HD
ATOM     25  H11 UNL     1       8.224  -9.816  19.392  1.00  0.00     0.274 HD
ENDBRANCH  21  22
ENDBRANCH  19  21
ENDBRANCH  14  15
ENDBRANCH  12  14
ENDBRANCH   1  12
BRANCH  11  26
HETATM   26  N8  UNL     1       5.719  -1.925  15.264  1.00  0.00    -0.411 NA
BRANCH  26  27
HETATM   27  C22 UNL     1       7.027  -1.607  15.261  1.00  0.00     0.231 C 
BRANCH  27  28
HETATM   28  C23 UNL     1       7.366  -0.565  14.213  1.00  0.00    -0.018 A 
HETATM   29  C24 UNL     1       7.343   0.772  14.533  1.00  0.00     0.011 A 
HETATM   30  C25 UNL     1       7.659   1.725  13.559  1.00  0.00     0.001 A 
HETATM   31  C26 UNL     1       7.994   1.349  12.278  1.00  0.00     0.000 A 
HETATM   32  C27 UNL     1       8.017   0.012  11.952  1.00  0.00     0.001 A 
HETATM   33  C28 UNL     1       7.703  -0.927  12.927  1.00  0.00     0.011 A 
ENDBRANCH  27  28
BRANCH  27  34
HETATM   34  C29 UNL     1       7.998  -2.737  15.130  1.00  0.00    -0.018 A 
HETATM   35  C30 UNL     1       7.721  -3.874  14.383  1.00  0.00     0.011 A 
HETATM   36  C31 UNL     1       8.644  -4.914  14.276  1.00  0.00     0.001 A 
HETATM   37  C32 UNL     1       9.854  -4.850  14.903  1.00  0.00     0.000 A 
HETATM   38  C33 UNL     1      10.157  -3.723  15.658  1.00  0.00     0.001 A 
HETATM   39  C34 UNL     1       9.228  -2.711  15.747  1.00  0.00     0.011 A 
ENDBRANCH  27  34
ENDBRANCH  26  27
ENDBRANCH  11  26
BRANCH   8  40
HETATM   40  N5  UNL     1       1.809  -0.346  14.055  1.00  0.00    -0.226 N 
ATOM     41  H5  UNL     1       2.292   0.530  14.256  1.00  0.00     0.177 HD
BRANCH  40  42
HETATM   42  C11 UNL     1       0.531  -0.219  13.450  1.00  0.00     0.142 C 
BRANCH  42  43
HETATM   43  C12 UNL     1       0.738  -0.021  11.952  1.00  0.00     0.061 C 
BRANCH  43  44
HETATM   44  C13 UNL     1       1.105   1.390  11.625  1.00  0.00    -0.029 A 
HETATM   45  C14 UNL     1       0.228   2.448  11.427  1.00  0.00     0.096 A 
HETATM   46  N6  UNL     1       0.953   3.527  11.156  1.00  0.00    -0.365 N 
HETATM   47  C15 UNL     1       2.269   3.230  11.167  1.00  0.00     0.042 A 
ATOM     48  H6  UNL     1       0.568   4.452  10.967  1.00  0.00     0.165 HD
HETATM   49  C16 UNL     1       3.384   4.017  10.946  1.00  0.00     0.030 A 
HETATM   50  C20 UNL     1       2.369   1.891  11.460  1.00  0.00    -0.002 A 
HETATM   51  C17 UNL     1       4.629   3.406  11.029  1.00  0.00     0.002 A 
HETATM   52  C18 UNL     1       4.758   2.070  11.322  1.00  0.00     0.001 A 
HETATM   53  C19 UNL     1       3.631   1.321  11.534  1.00  0.00     0.014 A 
ENDBRANCH  43  44
ENDBRANCH  42  43
ENDBRANCH  40  42
ENDBRANCH   8  40
TORSDOF 13
ENDMDL
MODEL 4
REMARK VINA RESULT: -10.114647421      1.876      8.395
REMARK  13 active torsions:
REMARK  status: ('A' for Active; 'I' for Inactive)
REMARK    1  A    between atoms: N1_1  and  C1_5 
REMARK    2  A    between atoms: C1_5  and  C2_6 
REMARK    3  A    between atoms: C6_10  and  C7_11 
REMARK    4  A    between atoms: C7_11  and  N2_12 
REMARK    5  A    between atoms: N2_12  and  C8_14 
REMARK    6  A    between atoms: C10_21  and  N5_22 
REMARK    7  A    between atoms: N5_22  and  C11_24 
REMARK    8  A    between atoms: C11_24  and  C12_25 
REMARK    9  A    between atoms: C12_25  and  C13_26 
REMARK   10  A    between atoms: C21_38  and  N8_39 
REMARK   11  A    between atoms: N8_39  and  C22_40 
REMARK   12  A    between atoms: C22_40  and  C23_41 
REMARK   13  A    between atoms: C22_40  and  C29_47 
ROOT
HETATM    1  C8  UNL     1       4.035  -4.039  14.549  1.00  0.00     0.165 C 
HETATM    2  N3  UNL     1       2.820  -4.609  14.557  1.00  0.00    -0.290 N 
ATOM      3  H3  UNL     1       2.802  -5.616  14.719  1.00  0.00     0.172 HD
HETATM    4  C9  UNL     1       1.602  -4.014  14.377  1.00  0.00     0.340 C 
HETATM    5  O1  UNL     1       0.585  -4.739  14.500  1.00  0.00    -0.246 OA
HETATM    6  N4  UNL     1       1.351  -2.726  14.078  1.00  0.00    -0.141 N 
ATOM      7  H4  UNL     1       0.452  -2.519  13.643  1.00  0.00     0.189 HD
HETATM    8  C10 UNL     1       2.188  -1.672  14.304  1.00  0.00     0.684 C 
HETATM    9  N7  UNL     1       3.523  -1.666  14.437  1.00  0.00    -0.161 N 
ATOM     10  H7  UNL     1       3.938  -0.770  14.695  1.00  0.00     0.187 HD
HETATM   11  C21 UNL     1       4.402  -2.702  14.274  1.00  0.00     0.232 C 
ENDROOT
BRANCH   1  12
HETATM   12  N2  UNL     1       4.997  -4.828  14.834  1.00  0.00    -0.368 N 
ATOM     13  H2  UNL     1       5.501  -5.207  14.032  1.00  0.00     0.161 HD
BRANCH  12  14
HETATM   14  C7  UNL     1       5.471  -5.254  16.098  1.00  0.00     0.160 C 
BRANCH  14  15
HETATM   15  C6  UNL     1       4.571  -6.190  16.820  1.00  0.00    -0.040 A 
HETATM   16  C5  UNL     1       4.075  -7.361  16.303  1.00  0.00     0.009 A 
HETATM   17  C4  UNL     1       3.246  -8.173  17.048  1.00  0.00     0.001 A 
HETATM   18  C3  UNL     1       2.885  -7.843  18.337  1.00  0.00     0.009 A 
HETATM   19  C2  UNL     1       3.383  -6.662  18.866  1.00  0.00    -0.033 A 
HETATM   20  C35 UNL     1       4.211  -5.860  18.108  1.00  0.00     0.017 A 
BRANCH  19  21
HETATM   21  C1  UNL     1       2.996  -6.302  20.264  1.00  0.00     0.268 C 
BRANCH  21  22
HETATM   22  N1  UNL     1       4.076  -5.557  20.883  1.00  0.00    -0.075 N 
ATOM     23  H13 UNL     1       4.967  -6.050  20.828  1.00  0.00     0.274 HD
ATOM     24  H12 UNL     1       4.335  -4.731  20.345  1.00  0.00     0.274 HD
ATOM     25  H11 UNL     1       3.821  -5.328  21.844  1.00  0.00     0.274 HD
ENDBRANCH  21  22
ENDBRANCH  19  21
ENDBRANCH  14  15
ENDBRANCH  12  14
ENDBRANCH   1  12
BRANCH  11  26
HETATM   26  N8  UNL     1       5.503  -2.513  13.899  1.00  0.00    -0.411 NA
BRANCH  26  27
HETATM   27  C22 UNL     1       6.744  -2.271  13.437  1.00  0.00     0.231 C 
BRANCH  27  28
HETATM   28  C23 UNL     1       7.804  -3.041  14.202  1.00  0.00    -0.018 A 
HETATM   29  C24 UNL     1       8.484  -2.442  15.235  1.00  0.00     0.011 A 
HETATM   30  C25 UNL     1       9.459  -3.160  15.935  1.00  0.00     0.001 A 
HETATM   31  C26 UNL     1       9.753  -4.464  15.607  1.00  0.00     0.000 A 
HETATM   32  C27 UNL     1       9.076  -5.069  14.573  1.00  0.00     0.001 A 
HETATM   33  C28 UNL     1       8.109  -4.347  13.885  1.00  0.00     0.011 A 
ENDBRANCH  27  28
BRANCH  27  34
HETATM   34  C29 UNL     1       7.170  -0.839  13.358  1.00  0.00    -0.018 A 
HETATM   35  C30 UNL     1       6.663   0.136  14.206  1.00  0.00     0.011 A 
HETATM   36  C31 UNL     1       7.076   1.465  14.111  1.00  0.00     0.001 A 
HETATM   37  C32 UNL     1       7.996   1.852  13.180  1.00  0.00     0.000 A 
HETATM   38  C33 UNL     1       8.519   0.895  12.319  1.00  0.00     0.001 A 
HETATM   39  C34 UNL     1       8.094  -0.409  12.434  1.00  0.00     0.011 A 
ENDBRANCH  27  34
ENDBRANCH  26  27
ENDBRANCH  11  26
BRANCH   8  40
HETATM   40  N5  UNL     1       1.618  -0.539  14.401  1.00  0.00    -0.226 N 
ATOM     41  H5  UNL     1       2.087   0.143  14.997  1.00  0.00     0.177 HD
BRANCH  40  42
HETATM   42  C11 UNL     1       0.415  -0.098  13.789  1.00  0.00     0.142 C 
BRANCH  42  43
HETATM   43  C12 UNL     1       0.658  -0.008  12.285  1.00  0.00     0.061 C 
BRANCH  43  44
HETATM   44  C13 UNL     1       1.083   1.364  11.874  1.00  0.00    -0.029 A 
HETATM   45  C14 UNL     1       0.251   2.451  11.642  1.00  0.00     0.096 A 
HETATM   46  N6  UNL     1       1.018   3.478  11.296  1.00  0.00    -0.365 N 
HETATM   47  C15 UNL     1       2.319   3.118  11.289  1.00  0.00     0.042 A 
ATOM     48  H6  UNL     1       0.672   4.410  11.066  1.00  0.00     0.165 HD
HETATM   49  C16 UNL     1       3.463   3.838  10.998  1.00  0.00     0.030 A 
HETATM   50  C20 UNL     1       2.364   1.793  11.651  1.00  0.00    -0.002 A 
HETATM   51  C17 UNL     1       4.680   3.172  11.082  1.00  0.00     0.002 A 
HETATM   52  C18 UNL     1       4.754   1.848  11.443  1.00  0.00     0.001 A 
HETATM   53  C19 UNL     1       3.598   1.167  11.724  1.00  0.00     0.014 A 
ENDBRANCH  43  44
ENDBRANCH  42  43
ENDBRANCH  40  42
ENDBRANCH   8  40
TORSDOF 13
ENDMDL
MODEL 5
REMARK VINA RESULT: -10.113502585      1.371      8.685
REMARK  13 active torsions:
REMARK  status: ('A' for Active; 'I' for Inactive)
REMARK    1  A    between atoms: N1_1  and  C1_5 
REMARK    2  A    between atoms: C1_5  and  C2_6 
REMARK    3  A    between atoms: C6_10  and  C7_11 
REMARK    4  A    between atoms: C7_11  and  N2_12 
REMARK    5  A    between atoms: N2_12  and  C8_14 
REMARK    6  A    between atoms: C10_21  and  N5_22 
REMARK    7  A    between atoms: N5_22  and  C11_24 
REMARK    8  A    between atoms: C11_24  and  C12_25 
REMARK    9  A    between atoms: C12_25  and  C13_26 
REMARK   10  A    between atoms: C21_38  and  N8_39 
REMARK   11  A    between atoms: N8_39  and  C22_40 
REMARK   12  A    between atoms: C22_40  and  C23_41 
REMARK   13  A    between atoms: C22_40  and  C29_47 
ROOT
HETATM    1  C8  UNL     1       4.074  -3.809  14.771  1.00  0.00     0.165 C 
HETATM    2  N3  UNL     1       2.874  -4.406  14.854  1.00  0.00    -0.290 N 
ATOM      3  H3  UNL     1       2.881  -5.374  15.174  1.00  0.00     0.172 HD
HETATM    4  C9  UNL     1       1.644  -3.883  14.565  1.00  0.00     0.340 C 
HETATM    5  O1  UNL     1       0.645  -4.609  14.788  1.00  0.00    -0.246 OA
HETATM    6  N4  UNL     1       1.363  -2.667  14.061  1.00  0.00    -0.141 N 
ATOM      7  H4  UNL     1       0.467  -2.559  13.586  1.00  0.00     0.189 HD
HETATM    8  C10 UNL     1       2.168  -1.566  14.127  1.00  0.00     0.684 C 
HETATM    9  N7  UNL     1       3.500  -1.500  14.276  1.00  0.00    -0.161 N 
ATOM     10  H7  UNL     1       3.886  -0.563  14.393  1.00  0.00     0.187 HD
HETATM   11  C21 UNL     1       4.409  -2.522  14.291  1.00  0.00     0.232 C 
ENDROOT
BRANCH   1  12
HETATM   12  N2  UNL     1       5.051  -4.513  15.192  1.00  0.00    -0.368 N 
ATOM     13  H2  UNL     1       5.530  -5.063  14.478  1.00  0.00     0.161 HD
BRANCH  12  14
HETATM   14  C7  UNL     1       5.571  -4.646  16.501  1.00  0.00     0.160 C 
BRANCH  14  15
HETATM   15  C6  UNL     1       5.635  -6.040  17.012  1.00  0.00    -0.040 A 
HETATM   16  C5  UNL     1       4.548  -6.797  17.370  1.00  0.00     0.009 A 
HETATM   17  C4  UNL     1       4.701  -8.087  17.833  1.00  0.00     0.001 A 
HETATM   18  C3  UNL     1       5.947  -8.665  17.953  1.00  0.00     0.009 A 
HETATM   19  C2  UNL     1       7.049  -7.906  17.593  1.00  0.00    -0.033 A 
HETATM   20  C35 UNL     1       6.880  -6.616  17.132  1.00  0.00     0.017 A 
BRANCH  19  21
HETATM   21  C1  UNL     1       8.401  -8.529  17.720  1.00  0.00     0.268 C 
BRANCH  21  22
HETATM   22  N1  UNL     1       8.541  -9.107  19.043  1.00  0.00    -0.075 N 
ATOM     23  H13 UNL     1       8.410  -8.416  19.783  1.00  0.00     0.274 HD
ATOM     24  H12 UNL     1       7.764  -9.722  19.281  1.00  0.00     0.274 HD
ATOM     25  H11 UNL     1       9.443  -9.579  19.112  1.00  0.00     0.274 HD
ENDBRANCH  21  22
ENDBRANCH  19  21
ENDBRANCH  14  15
ENDBRANCH  12  14
ENDBRANCH   1  12
BRANCH  11  26
HETATM   26  N8  UNL     1       5.511  -2.364  13.906  1.00  0.00    -0.411 NA
BRANCH  26  27
HETATM   27  C22 UNL     1       6.754  -2.157  13.431  1.00  0.00     0.231 C 
BRANCH  27  28
HETATM   28  C23 UNL     1       7.800  -2.950  14.190  1.00  0.00    -0.018 A 
HETATM   29  C24 UNL     1       8.504  -2.364  15.215  1.00  0.00     0.011 A 
HETATM   30  C25 UNL     1       9.466  -3.103  15.911  1.00  0.00     0.001 A 
HETATM   31  C26 UNL     1       9.725  -4.416  15.586  1.00  0.00     0.000 A 
HETATM   32  C27 UNL     1       9.024  -5.007  14.560  1.00  0.00     0.001 A 
HETATM   33  C28 UNL     1       8.070  -4.264  13.876  1.00  0.00     0.011 A 
ENDBRANCH  27  28
BRANCH  27  34
HETATM   34  C29 UNL     1       7.216  -0.737  13.339  1.00  0.00    -0.018 A 
HETATM   35  C30 UNL     1       6.733   0.258  14.176  1.00  0.00     0.011 A 
HETATM   36  C31 UNL     1       7.180   1.575  14.069  1.00  0.00     0.001 A 
HETATM   37  C32 UNL     1       8.111   1.930  13.137  1.00  0.00     0.000 A 
HETATM   38  C33 UNL     1       8.611   0.952  12.286  1.00  0.00     0.001 A 
HETATM   39  C34 UNL     1       8.152  -0.340  12.412  1.00  0.00     0.011 A 
ENDBRANCH  27  34
ENDBRANCH  26  27
ENDBRANCH  11  26
BRANCH   8  40
HETATM   40  N5  UNL     1       1.565  -0.450  14.034  1.00  0.00    -0.226 N 
ATOM     41  H5  UNL     1       2.004   0.331  14.521  1.00  0.00     0.177 HD
BRANCH  40  42
HETATM   42  C11 UNL     1       0.363  -0.148  13.343  1.00  0.00     0.142 C 
BRANCH  42  43
HETATM   43  C12 UNL     1       0.706   0.050  11.869  1.00  0.00     0.061 C 
BRANCH  43  44
HETATM   44  C13 UNL     1       1.160   1.445  11.589  1.00  0.00    -0.029 A 
HETATM   45  C14 UNL     1       0.347   2.556  11.398  1.00  0.00     0.096 A 
HETATM   46  N6  UNL     1       1.138   3.599  11.173  1.00  0.00    -0.365 N 
HETATM   47  C15 UNL     1       2.435   3.228  11.207  1.00  0.00     0.042 A 
ATOM     48  H6  UNL     1       0.810   4.549  10.999  1.00  0.00     0.165 HD
HETATM   49  C16 UNL     1       3.597   3.956  11.032  1.00  0.00     0.030 A 
HETATM   50  C20 UNL     1       2.453   1.878  11.466  1.00  0.00    -0.002 A 
HETATM   51  C17 UNL     1       4.804   3.274  11.128  1.00  0.00     0.002 A 
HETATM   52  C18 UNL     1       4.851   1.925  11.387  1.00  0.00     0.001 A 
HETATM   53  C19 UNL     1       3.679   1.237  11.554  1.00  0.00     0.014 A 
ENDBRANCH  43  44
ENDBRANCH  42  43
ENDBRANCH  40  42
ENDBRANCH   8  40
TORSDOF 13
ENDMDL
