MODEL 1
REMARK VINA RESULT: -6.271758983      0.000      0.000
REMARK  5 active torsions:
REMARK  status: ('A' for Active; 'I' for Inactive)
REMARK    1  A    between atoms: N1_1  and  O1_4 
REMARK    2  A    between atoms: O1_4  and  N2_5 
REMARK    3  A    between atoms: N2_5  and  C1_7 
REMARK    4  A    between atoms: C2_10  and  O2_11 
REMARK    5  A    between atoms: C2_10  and  C3_13 
ROOT
HETATM    1  C1  UNL     1      34.023  -3.034  40.004  1.00  0.00     0.123 C 
HETATM    2  N3  UNL     1      33.029  -3.786  39.765  1.00  0.00    -0.335 N 
ATOM      3  H3  UNL     1      32.574  -3.638  38.864  1.00  0.00     0.164 HD
HETATM    4  C2  UNL     1      32.457  -4.815  40.586  1.00  0.00     0.256 C 
HETATM    5  C4  UNL     1      33.535  -5.633  41.246  1.00  0.00     0.275 C 
HETATM    6  C5  UNL     1      33.658  -5.386  42.688  1.00  0.00     0.009 C 
HETATM    7  C6  UNL     1      34.728  -4.637  42.881  1.00  0.00     0.006 C 
HETATM    8  C7  UNL     1      35.400  -4.324  41.598  1.00  0.00     0.235 C 
HETATM    9  N4  UNL     1      34.859  -5.311  40.697  1.00  0.00    -0.053 N 
ATOM     10  H41 UNL     1      34.843  -5.016  39.721  1.00  0.00     0.279 HD
ATOM     11  H42 UNL     1      35.461  -6.124  40.562  1.00  0.00     0.279 HD
HETATM   12  C8  UNL     1      34.946  -2.930  41.171  1.00  0.00     0.185 C 
HETATM   13 CL1  UNL     1      34.172  -2.102  42.539  1.00  0.00    -0.114 Cl
ENDROOT
BRANCH   1  14
HETATM   14  N2  UNL     1      34.331  -2.116  38.980  1.00  0.00    -0.229 N 
ATOM     15  H2  UNL     1      33.603  -1.519  38.586  1.00  0.00     0.198 HD
BRANCH  14  16
HETATM   16  O1  UNL     1      35.587  -2.037  38.530  1.00  0.00    -0.163 OA
BRANCH  16  17
HETATM   17  N1  UNL     1      35.951  -3.070  37.761  1.00  0.00    -0.286 N 
ATOM     18  H12 UNL     1      36.111  -2.971  36.759  1.00  0.00     0.186 HD
ATOM     19  H11 UNL     1      36.052  -3.948  38.271  1.00  0.00     0.186 HD
ENDBRANCH  16  17
ENDBRANCH  14  16
ENDBRANCH   1  14
BRANCH   4  20
HETATM   20  O2  UNL     1      31.616  -4.203  41.513  1.00  0.00    -0.360 OA
ATOM     21  H2  UNL     1      32.151  -3.644  42.065  1.00  0.00     0.213 HD
ENDBRANCH   4  20
BRANCH   4  22
HETATM   22  C3  UNL     1      31.622  -5.683  39.736  1.00  0.00     0.234 C 
HETATM   23  O3  UNL     1      30.732  -6.404  40.214  1.00  0.00    -0.644 OA
HETATM   24  O4  UNL     1      31.843  -5.688  38.377  1.00  0.00    -0.644 OA
ENDBRANCH   4  22
TORSDOF 5
ENDMDL
MODEL 2
REMARK VINA RESULT: -6.246894530      2.454      4.037
REMARK  5 active torsions:
REMARK  status: ('A' for Active; 'I' for Inactive)
REMARK    1  A    between atoms: N1_1  and  O1_4 
REMARK    2  A    between atoms: O1_4  and  N2_5 
REMARK    3  A    between atoms: N2_5  and  C1_7 
REMARK    4  A    between atoms: C2_10  and  O2_11 
REMARK    5  A    between atoms: C2_10  and  C3_13 
ROOT
HETATM    1  C1  UNL     1      32.633  -4.006  39.166  1.00  0.00     0.123 C 
HETATM    2  N3  UNL     1      33.688  -3.302  39.205  1.00  0.00    -0.335 N 
ATOM      3  H3  UNL     1      33.940  -2.840  38.331  1.00  0.00     0.164 HD
HETATM    4  C2  UNL     1      34.577  -3.067  40.308  1.00  0.00     0.256 C 
HETATM    5  C4  UNL     1      33.803  -2.849  41.580  1.00  0.00     0.275 C 
HETATM    6  C5  UNL     1      33.898  -3.971  42.523  1.00  0.00     0.009 C 
HETATM    7  C6  UNL     1      32.761  -4.641  42.471  1.00  0.00     0.006 C 
HETATM    8  C7  UNL     1      31.824  -4.029  41.499  1.00  0.00     0.235 C 
HETATM    9  N4  UNL     1      32.365  -2.707  41.312  1.00  0.00    -0.053 N 
ATOM     10  H41 UNL     1      32.152  -2.297  40.403  1.00  0.00     0.279 HD
ATOM     11  H42 UNL     1      31.908  -1.988  41.873  1.00  0.00     0.279 HD
HETATM   12  C8  UNL     1      31.932  -4.822  40.198  1.00  0.00     0.185 C 
HETATM   13 CL1  UNL     1      32.774  -6.358  40.495  1.00  0.00    -0.114 Cl
ENDROOT
BRANCH   1  14
HETATM   14  N2  UNL     1      31.984  -4.030  37.915  1.00  0.00    -0.229 N 
ATOM     15  H2  UNL     1      31.608  -4.904  37.546  1.00  0.00     0.198 HD
BRANCH  14  16
HETATM   16  O1  UNL     1      31.867  -2.896  37.218  1.00  0.00    -0.163 OA
BRANCH  16  17
HETATM   17  N1  UNL     1      31.605  -3.084  35.920  1.00  0.00    -0.286 N 
ATOM     18  H12 UNL     1      32.332  -3.337  35.250  1.00  0.00     0.186 HD
ATOM     19  H11 UNL     1      30.625  -2.950  35.673  1.00  0.00     0.186 HD
ENDBRANCH  16  17
ENDBRANCH  14  16
ENDBRANCH   1  14
BRANCH   4  20
HETATM   20  O2  UNL     1      35.444  -4.154  40.396  1.00  0.00    -0.360 OA
ATOM     21  H2  UNL     1      35.150  -4.702  41.114  1.00  0.00     0.213 HD
ENDBRANCH   4  20
BRANCH   4  22
HETATM   22  C3  UNL     1      35.390  -1.874  40.008  1.00  0.00     0.234 C 
HETATM   23  O3  UNL     1      35.222  -1.212  38.972  1.00  0.00    -0.644 OA
HETATM   24  O4  UNL     1      36.360  -1.493  40.907  1.00  0.00    -0.644 OA
ENDBRANCH   4  22
TORSDOF 5
ENDMDL
MODEL 3
REMARK VINA RESULT: -6.239034269      2.595      3.518
REMARK  5 active torsions:
REMARK  status: ('A' for Active; 'I' for Inactive)
REMARK    1  A    between atoms: N1_1  and  O1_4 
REMARK    2  A    between atoms: O1_4  and  N2_5 
REMARK    3  A    between atoms: N2_5  and  C1_7 
REMARK    4  A    between atoms: C2_10  and  O2_11 
REMARK    5  A    between atoms: C2_10  and  C3_13 
ROOT
HETATM    1  C1  UNL     1      34.941  -3.312  40.268  1.00  0.00     0.123 C 
HETATM    2  N3  UNL     1      35.480  -4.149  41.055  1.00  0.00    -0.335 N 
ATOM      3  H3  UNL     1      36.500  -4.171  41.039  1.00  0.00     0.164 HD
HETATM    4  C2  UNL     1      34.855  -5.068  41.963  1.00  0.00     0.256 C 
HETATM    5  C4  UNL     1      33.697  -4.416  42.671  1.00  0.00     0.275 C 
HETATM    6  C5  UNL     1      32.386  -4.904  42.222  1.00  0.00     0.009 C 
HETATM    7  C6  UNL     1      31.855  -3.979  41.444  1.00  0.00     0.006 C 
HETATM    8  C7  UNL     1      32.757  -2.810  41.308  1.00  0.00     0.235 C 
HETATM    9  N4  UNL     1      33.664  -2.969  42.417  1.00  0.00    -0.053 N 
ATOM     10  H41 UNL     1      34.583  -2.555  42.263  1.00  0.00     0.279 HD
ATOM     11  H42 UNL     1      33.421  -2.411  43.236  1.00  0.00     0.279 HD
HETATM   12  C8  UNL     1      33.516  -2.968  39.992  1.00  0.00     0.185 C 
HETATM   13 CL1  UNL     1      32.731  -4.204  38.987  1.00  0.00    -0.114 Cl
ENDROOT
BRANCH   1  14
HETATM   14  N2  UNL     1      35.846  -2.552  39.501  1.00  0.00    -0.229 N 
ATOM     15  H2  UNL     1      36.673  -2.143  39.936  1.00  0.00     0.198 HD
BRANCH  14  16
HETATM   16  O1  UNL     1      35.607  -2.372  38.199  1.00  0.00    -0.163 OA
BRANCH  16  17
HETATM   17  N1  UNL     1      35.983  -3.402  37.433  1.00  0.00    -0.286 N 
ATOM     18  H12 UNL     1      36.469  -4.214  37.815  1.00  0.00     0.186 HD
ATOM     19  H11 UNL     1      35.740  -3.295  36.448  1.00  0.00     0.186 HD
ENDBRANCH  16  17
ENDBRANCH  14  16
ENDBRANCH   1  14
BRANCH   4  20
HETATM   20  O2  UNL     1      34.465  -6.189  41.233  1.00  0.00    -0.360 OA
ATOM     21  H2  UNL     1      34.512  -6.942  41.810  1.00  0.00     0.213 HD
ENDBRANCH   4  20
BRANCH   4  22
HETATM   22  C3  UNL     1      35.858  -5.508  42.950  1.00  0.00     0.234 C 
HETATM   23  O3  UNL     1      36.678  -6.404  42.693  1.00  0.00    -0.644 OA
HETATM   24  O4  UNL     1      35.879  -4.904  44.186  1.00  0.00    -0.644 OA
ENDBRANCH   4  22
TORSDOF 5
ENDMDL
MODEL 4
REMARK VINA RESULT: -6.128129761      2.592      4.165
REMARK  5 active torsions:
REMARK  status: ('A' for Active; 'I' for Inactive)
REMARK    1  A    between atoms: N1_1  and  O1_4 
REMARK    2  A    between atoms: O1_4  and  N2_5 
REMARK    3  A    between atoms: N2_5  and  C1_7 
REMARK    4  A    between atoms: C2_10  and  O2_11 
REMARK    5  A    between atoms: C2_10  and  C3_13 
ROOT
HETATM    1  C1  UNL     1      32.678  -3.684  38.956  1.00  0.00     0.123 C 
HETATM    2  N3  UNL     1      33.437  -2.669  39.013  1.00  0.00    -0.335 N 
ATOM      3  H3  UNL     1      33.474  -2.101  38.166  1.00  0.00     0.164 HD
HETATM    4  C2  UNL     1      34.250  -2.209  40.103  1.00  0.00     0.256 C 
HETATM    5  C4  UNL     1      33.514  -2.337  41.410  1.00  0.00     0.275 C 
HETATM    6  C5  UNL     1      34.027  -3.412  42.269  1.00  0.00     0.009 C 
HETATM    7  C6  UNL     1      33.180  -4.421  42.204  1.00  0.00     0.006 C 
HETATM    8  C7  UNL     1      32.043  -4.109  41.305  1.00  0.00     0.235 C 
HETATM    9  N4  UNL     1      32.101  -2.673  41.194  1.00  0.00    -0.053 N 
ATOM     10  H41 UNL     1      31.716  -2.309  40.323  1.00  0.00     0.279 HD
ATOM     11  H42 UNL     1      31.458  -2.183  41.817  1.00  0.00     0.279 HD
HETATM   12  C8  UNL     1      32.344  -4.745  39.949  1.00  0.00     0.185 C 
HETATM   13 CL1  UNL     1      33.665  -5.921  40.113  1.00  0.00    -0.114 Cl
ENDROOT
BRANCH   1  14
HETATM   14  N2  UNL     1      32.011  -3.856  37.726  1.00  0.00    -0.229 N 
ATOM     15  H2  UNL     1      31.764  -4.791  37.400  1.00  0.00     0.198 HD
BRANCH  14  16
HETATM   16  O1  UNL     1      31.706  -2.781  36.993  1.00  0.00    -0.163 OA
BRANCH  16  17
HETATM   17  N1  UNL     1      31.590  -3.035  35.684  1.00  0.00    -0.286 N 
ATOM     18  H12 UNL     1      32.402  -3.115  35.072  1.00  0.00     0.186 HD
ATOM     19  H11 UNL     1      30.625  -3.139  35.369  1.00  0.00     0.186 HD
ENDBRANCH  16  17
ENDBRANCH  14  16
ENDBRANCH   1  14
BRANCH   4  20
HETATM   20  O2  UNL     1      35.435  -2.944  40.089  1.00  0.00    -0.360 OA
ATOM     21  H2  UNL     1      36.142  -2.359  40.336  1.00  0.00     0.213 HD
ENDBRANCH   4  20
BRANCH   4  22
HETATM   22  C3  UNL     1      34.601  -0.797  39.863  1.00  0.00     0.234 C 
HETATM   23  O3  UNL     1      35.770  -0.444  39.641  1.00  0.00    -0.644 OA
HETATM   24  O4  UNL     1      33.600   0.146  39.890  1.00  0.00    -0.644 OA
ENDBRANCH   4  22
TORSDOF 5
ENDMDL
MODEL 5
REMARK VINA RESULT: -6.023113798      2.172      2.842
REMARK  5 active torsions:
REMARK  status: ('A' for Active; 'I' for Inactive)
REMARK    1  A    between atoms: N1_1  and  O1_4 
REMARK    2  A    between atoms: O1_4  and  N2_5 
REMARK    3  A    between atoms: N2_5  and  C1_7 
REMARK    4  A    between atoms: C2_10  and  O2_11 
REMARK    5  A    between atoms: C2_10  and  C3_13 
ROOT
HETATM    1  C1  UNL     1      32.519  -1.710  39.173  1.00  0.00     0.123 C 
HETATM    2  N3  UNL     1      32.114  -2.912  39.189  1.00  0.00    -0.335 N 
ATOM      3  H3  UNL     1      31.250  -3.091  38.677  1.00  0.00     0.164 HD
HETATM    4  C2  UNL     1      32.703  -4.056  39.826  1.00  0.00     0.256 C 
HETATM    5  C4  UNL     1      34.199  -4.051  39.655  1.00  0.00     0.275 C 
HETATM    6  C5  UNL     1      34.929  -3.739  40.891  1.00  0.00     0.009 C 
HETATM    7  C6  UNL     1      35.361  -2.495  40.802  1.00  0.00     0.006 C 
HETATM    8  C7  UNL     1      34.960  -1.879  39.515  1.00  0.00     0.235 C 
HETATM    9  N4  UNL     1      34.623  -3.020  38.700  1.00  0.00    -0.053 N 
ATOM     10  H41 UNL     1      33.936  -2.820  37.973  1.00  0.00     0.279 HD
ATOM     11  H42 UNL     1      35.371  -3.317  38.073  1.00  0.00     0.279 HD
HETATM   12  C8  UNL     1      33.709  -1.043  39.778  1.00  0.00     0.185 C 
HETATM   13 CL1  UNL     1      33.500  -0.801  41.525  1.00  0.00    -0.114 Cl
ENDROOT
BRANCH   1  14
HETATM   14  N2  UNL     1      31.702  -0.819  38.449  1.00  0.00    -0.229 N 
ATOM     15  H2  UNL     1      31.586   0.145  38.762  1.00  0.00     0.198 HD
BRANCH  14  16
HETATM   16  O1  UNL     1      31.081  -1.252  37.347  1.00  0.00    -0.163 OA
BRANCH  16  17
HETATM   17  N1  UNL     1      30.225  -0.367  36.826  1.00  0.00    -0.286 N 
ATOM     18  H12 UNL     1      30.503   0.588  36.597  1.00  0.00     0.186 HD
ATOM     19  H11 UNL     1      29.285  -0.736  36.684  1.00  0.00     0.186 HD
ENDBRANCH  16  17
ENDBRANCH  14  16
ENDBRANCH   1  14
BRANCH   4  20
HETATM   20  O2  UNL     1      32.324  -4.039  41.167  1.00  0.00    -0.360 OA
ATOM     21  H2  UNL     1      33.065  -3.731  41.674  1.00  0.00     0.213 HD
ENDBRANCH   4  20
BRANCH   4  22
HETATM   22  C3  UNL     1      32.136  -5.274  39.220  1.00  0.00     0.234 C 
HETATM   23  O3  UNL     1      32.377  -6.403  39.676  1.00  0.00    -0.644 OA
HETATM   24  O4  UNL     1      31.318  -5.147  38.121  1.00  0.00    -0.644 OA
ENDBRANCH   4  22
TORSDOF 5
ENDMDL
