MODEL 1
REMARK VINA RESULT: -6.485741857      0.000      0.000
REMARK  3 active torsions:
REMARK  status: ('A' for Active; 'I' for Inactive)
REMARK    1  A    between atoms: C3_4  and  O1_5 
REMARK    2  A    between atoms: C3_4  and  N2_7 
REMARK    3  A    between atoms: N2_7  and  N3_9 
REMARK       I    between atoms: N3_9  and  C4_11 
ROOT
HETATM    1  C1  UNL     1      34.082  -4.925  43.190  1.00  0.00     0.160 C 
HETATM    2  N1  UNL     1      32.832  -5.410  42.661  1.00  0.00    -0.310 N 
HETATM    3  C2  UNL     1      32.632  -5.615  41.362  1.00  0.00     0.131 A 
HETATM    4  C3  UNL     1      33.569  -5.400  40.301  1.00  0.00     0.186 C 
HETATM    5  C5  UNL     1      31.354  -6.087  41.029  1.00  0.00     0.149 A 
HETATM    6  N6  UNL     1      31.078  -6.329  39.653  1.00  0.00    -0.080 NA
HETATM    7  N7  UNL     1      30.391  -6.319  41.938  1.00  0.00    -0.329 N 
ATOM      8  H7  UNL     1      29.479  -6.663  41.638  1.00  0.00     0.168 HD
HETATM    9  C6  UNL     1      30.630  -6.102  43.221  1.00  0.00     0.173 A 
HETATM   10 CL1  UNL     1      29.373  -6.404  44.409  1.00  0.00    -0.058 Cl
HETATM   11  C7  UNL     1      31.864  -5.642  43.586  1.00  0.00     0.286 A 
HETATM   12  O2  UNL     1      32.051  -5.448  44.821  1.00  0.00    -0.264 OA
ENDROOT
BRANCH   4  13
HETATM   13  O1  UNL     1      33.130  -5.655  39.090  1.00  0.00    -0.343 OA
ATOM     14  H1  UNL     1      33.240  -4.957  38.455  1.00  0.00     0.219 HD
ENDBRANCH   4  13
BRANCH   4  15
HETATM   15  N2  UNL     1      34.895  -4.960  40.282  1.00  0.00    -0.276 N 
ATOM     16  H2  UNL     1      35.658  -5.636  40.318  1.00  0.00     0.189 HD
BRANCH  15  17
HETATM   17  N3  UNL     1      35.181  -3.567  40.213  1.00  0.00    -0.272 N 
HETATM   18  C4  UNL     1      35.302  -2.895  38.967  1.00  0.00     0.200 C 
HETATM   19  N4  UNL     1      35.284  -3.531  37.847  1.00  0.00    -0.372 N 
HETATM   20  N5  UNL     1      35.449  -1.495  38.976  1.00  0.00    -0.062 NA
ATOM     21  H42 UNL     1      35.178  -4.545  37.841  1.00  0.00     0.158 HD
ATOM     22  H41 UNL     1      35.371  -3.049  36.953  1.00  0.00     0.158 HD
ATOM     23  H3  UNL     1      35.301  -3.039  41.077  1.00  0.00     0.189 HD
ENDBRANCH  15  17
ENDBRANCH   4  15
TORSDOF 3
ENDMDL
MODEL 2
REMARK VINA RESULT: -6.122190701      8.295      9.943
REMARK  3 active torsions:
REMARK  status: ('A' for Active; 'I' for Inactive)
REMARK    1  A    between atoms: C3_4  and  O1_5 
REMARK    2  A    between atoms: C3_4  and  N2_7 
REMARK    3  A    between atoms: N2_7  and  N3_9 
REMARK       I    between atoms: N3_9  and  C4_11 
ROOT
HETATM    1  C1  UNL     1      31.560   0.944  40.896  1.00  0.00     0.160 C 
HETATM    2  N1  UNL     1      32.553   1.971  41.088  1.00  0.00    -0.310 N 
HETATM    3  C2  UNL     1      32.255   3.268  41.101  1.00  0.00     0.131 A 
HETATM    4  C3  UNL     1      30.961   3.856  40.932  1.00  0.00     0.186 C 
HETATM    5  C5  UNL     1      33.349   4.123  41.298  1.00  0.00     0.149 A 
HETATM    6  N6  UNL     1      33.094   5.524  41.325  1.00  0.00    -0.080 NA
HETATM    7  N7  UNL     1      34.609   3.686  41.461  1.00  0.00    -0.329 N 
ATOM      8  H7  UNL     1      35.368   4.354  41.601  1.00  0.00     0.168 HD
HETATM    9  C6  UNL     1      34.865   2.388  41.441  1.00  0.00     0.173 A 
HETATM   10 CL1  UNL     1      36.511   1.816  41.654  1.00  0.00    -0.058 Cl
HETATM   11  C7  UNL     1      33.826   1.521  41.252  1.00  0.00     0.286 A 
HETATM   12  O2  UNL     1      34.112   0.290  41.240  1.00  0.00    -0.264 OA
ENDROOT
BRANCH   4  13
HETATM   13  O1  UNL     1      30.921   5.168  40.962  1.00  0.00    -0.343 OA
ATOM     14  H1  UNL     1      31.301   5.610  40.212  1.00  0.00     0.219 HD
ENDBRANCH   4  13
BRANCH   4  15
HETATM   15  N2  UNL     1      29.690   3.310  40.735  1.00  0.00    -0.276 N 
ATOM     16  H2  UNL     1      29.463   2.391  41.114  1.00  0.00     0.189 HD
BRANCH  15  17
HETATM   17  N3  UNL     1      28.710   4.040  40.002  1.00  0.00    -0.272 N 
HETATM   18  C4  UNL     1      27.479   4.431  40.594  1.00  0.00     0.200 C 
HETATM   19  N4  UNL     1      27.139   4.043  41.774  1.00  0.00    -0.372 N 
HETATM   20  N5  UNL     1      26.620   5.266  39.855  1.00  0.00    -0.062 NA
ATOM     21  H42 UNL     1      27.762   3.438  42.309  1.00  0.00     0.158 HD
ATOM     22  H41 UNL     1      26.256   4.324  42.199  1.00  0.00     0.158 HD
ATOM     23  H3  UNL     1      28.896   4.286  39.030  1.00  0.00     0.189 HD
ENDBRANCH  15  17
ENDBRANCH   4  15
TORSDOF 3
ENDMDL
MODEL 3
REMARK VINA RESULT: -6.061897724      7.914      9.857
REMARK  3 active torsions:
REMARK  status: ('A' for Active; 'I' for Inactive)
REMARK    1  A    between atoms: C3_4  and  O1_5 
REMARK    2  A    between atoms: C3_4  and  N2_7 
REMARK    3  A    between atoms: N2_7  and  N3_9 
REMARK       I    between atoms: N3_9  and  C4_11 
ROOT
HETATM    1  C1  UNL     1      33.324   0.909  40.690  1.00  0.00     0.160 C 
HETATM    2  N1  UNL     1      33.922   2.194  40.953  1.00  0.00    -0.310 N 
HETATM    3  C2  UNL     1      33.208   3.310  41.071  1.00  0.00     0.131 A 
HETATM    4  C3  UNL     1      31.786   3.438  40.962  1.00  0.00     0.186 C 
HETATM    5  C5  UNL     1      33.959   4.467  41.324  1.00  0.00     0.149 A 
HETATM    6  N6  UNL     1      33.250   5.695  41.465  1.00  0.00    -0.080 NA
HETATM    7  N7  UNL     1      35.298   4.469  41.440  1.00  0.00    -0.329 N 
ATOM      8  H7  UNL     1      35.793   5.342  41.624  1.00  0.00     0.168 HD
HETATM    9  C6  UNL     1      35.972   3.338  41.314  1.00  0.00     0.173 A 
HETATM   10 CL1  UNL     1      37.721   3.340  41.465  1.00  0.00    -0.058 Cl
HETATM   11  C7  UNL     1      35.277   2.188  41.068  1.00  0.00     0.286 A 
HETATM   12  O2  UNL     1      35.958   1.129  40.955  1.00  0.00    -0.264 OA
ENDROOT
BRANCH   4  13
HETATM   13  O1  UNL     1      31.311   4.655  41.097  1.00  0.00    -0.343 OA
ATOM     14  H1  UNL     1      31.845   5.350  40.731  1.00  0.00     0.219 HD
ENDBRANCH   4  13
BRANCH   4  15
HETATM   15  N2  UNL     1      30.765   2.512  40.734  1.00  0.00    -0.276 N 
ATOM     16  H2  UNL     1      30.966   1.639  40.248  1.00  0.00     0.189 HD
BRANCH  15  17
HETATM   17  N3  UNL     1      29.442   2.790  41.183  1.00  0.00    -0.272 N 
HETATM   18  C4  UNL     1      29.053   2.566  42.531  1.00  0.00     0.200 C 
HETATM   19  N4  UNL     1      29.834   1.991  43.377  1.00  0.00    -0.372 N 
HETATM   20  N5  UNL     1      27.773   2.991  42.935  1.00  0.00    -0.062 NA
ATOM     21  H42 UNL     1      30.762   1.683  43.085  1.00  0.00     0.158 HD
ATOM     22  H41 UNL     1      29.556   1.831  44.345  1.00  0.00     0.158 HD
ATOM     23  H3  UNL     1      28.758   3.156  40.521  1.00  0.00     0.189 HD
ENDBRANCH  15  17
ENDBRANCH   4  15
TORSDOF 3
ENDMDL
MODEL 4
REMARK VINA RESULT: -6.015609584      3.346      4.695
REMARK  3 active torsions:
REMARK  status: ('A' for Active; 'I' for Inactive)
REMARK    1  A    between atoms: C3_4  and  O1_5 
REMARK    2  A    between atoms: C3_4  and  N2_7 
REMARK    3  A    between atoms: N2_7  and  N3_9 
REMARK       I    between atoms: N3_9  and  C4_11 
ROOT
HETATM    1  C1  UNL     1      35.266  -5.441  41.408  1.00  0.00     0.160 C 
HETATM    2  N1  UNL     1      34.529  -4.610  40.490  1.00  0.00    -0.310 N 
HETATM    3  C2  UNL     1      34.866  -3.348  40.233  1.00  0.00     0.131 A 
HETATM    4  C3  UNL     1      35.962  -2.618  40.792  1.00  0.00     0.186 C 
HETATM    5  C5  UNL     1      34.032  -2.691  39.316  1.00  0.00     0.149 A 
HETATM    6  N6  UNL     1      34.343  -1.338  38.995  1.00  0.00    -0.080 NA
HETATM    7  N7  UNL     1      32.971  -3.273  38.732  1.00  0.00    -0.329 N 
ATOM      8  H7  UNL     1      32.399  -2.746  38.071  1.00  0.00     0.168 HD
HETATM    9  C6  UNL     1      32.669  -4.529  39.015  1.00  0.00     0.173 A 
HETATM   10 CL1  UNL     1      31.282  -5.290  38.254  1.00  0.00    -0.058 Cl
HETATM   11  C7  UNL     1      33.457  -5.205  39.904  1.00  0.00     0.286 A 
HETATM   12  O2  UNL     1      33.135  -6.403  40.147  1.00  0.00    -0.264 OA
ENDROOT
BRANCH   4  13
HETATM   13  O1  UNL     1      36.079  -1.371  40.398  1.00  0.00    -0.343 OA
ATOM     14  H1  UNL     1      36.396  -1.246  39.511  1.00  0.00     0.219 HD
ENDBRANCH   4  13
BRANCH   4  15
HETATM   15  N2  UNL     1      36.967  -2.963  41.700  1.00  0.00    -0.276 N 
ATOM     16  H2  UNL     1      36.724  -3.385  42.596  1.00  0.00     0.189 HD
BRANCH  15  17
HETATM   17  N3  UNL     1      38.333  -2.723  41.372  1.00  0.00    -0.272 N 
HETATM   18  C4  UNL     1      39.012  -1.561  41.827  1.00  0.00     0.200 C 
HETATM   19  N4  UNL     1      38.399  -0.615  42.448  1.00  0.00    -0.372 N 
HETATM   20  N5  UNL     1      40.395  -1.458  41.581  1.00  0.00    -0.062 NA
ATOM     21  H42 UNL     1      37.397  -0.689  42.626  1.00  0.00     0.158 HD
ATOM     22  H41 UNL     1      38.886   0.220  42.774  1.00  0.00     0.158 HD
ATOM     23  H3  UNL     1      38.833  -3.401  40.799  1.00  0.00     0.189 HD
ENDBRANCH  15  17
ENDBRANCH   4  15
TORSDOF 3
ENDMDL
MODEL 5
REMARK VINA RESULT: -5.858307333      4.127      4.808
REMARK  3 active torsions:
REMARK  status: ('A' for Active; 'I' for Inactive)
REMARK    1  A    between atoms: C3_4  and  O1_5 
REMARK    2  A    between atoms: C3_4  and  N2_7 
REMARK    3  A    between atoms: N2_7  and  N3_9 
REMARK       I    between atoms: N3_9  and  C4_11 
ROOT
HETATM    1  C1  UNL     1      32.968  -1.314  39.624  1.00  0.00     0.160 C 
HETATM    2  N1  UNL     1      32.880  -2.743  39.791  1.00  0.00    -0.310 N 
HETATM    3  C2  UNL     1      32.280  -3.535  38.906  1.00  0.00     0.131 A 
HETATM    4  C3  UNL     1      31.641  -3.138  37.688  1.00  0.00     0.186 C 
HETATM    5  C5  UNL     1      32.288  -4.899  39.235  1.00  0.00     0.149 A 
HETATM    6  N6  UNL     1      31.665  -5.800  38.324  1.00  0.00    -0.080 NA
HETATM    7  N7  UNL     1      32.852  -5.387  40.353  1.00  0.00    -0.329 N 
ATOM      8  H7  UNL     1      32.828  -6.389  40.541  1.00  0.00     0.168 HD
HETATM    9  C6  UNL     1      33.437  -4.565  41.209  1.00  0.00     0.173 A 
HETATM   10 CL1  UNL     1      34.173  -5.202  42.670  1.00  0.00    -0.058 Cl
HETATM   11  C7  UNL     1      33.452  -3.229  40.925  1.00  0.00     0.286 A 
HETATM   12  O2  UNL     1      34.021  -2.478  41.767  1.00  0.00    -0.264 OA
ENDROOT
BRANCH   4  13
HETATM   13  O1  UNL     1      31.098  -4.106  36.987  1.00  0.00    -0.343 OA
ATOM     14  H1  UNL     1      30.152  -4.178  37.045  1.00  0.00     0.219 HD
ENDBRANCH   4  13
BRANCH   4  15
HETATM   15  N2  UNL     1      31.467  -1.898  37.069  1.00  0.00    -0.276 N 
ATOM     16  H2  UNL     1      31.627  -1.038  37.594  1.00  0.00     0.189 HD
BRANCH  15  17
HETATM   17  N3  UNL     1      31.064  -1.835  35.704  1.00  0.00    -0.272 N 
HETATM   18  C4  UNL     1      30.378  -0.705  35.184  1.00  0.00     0.200 C 
HETATM   19  N4  UNL     1      29.980   0.257  35.942  1.00  0.00    -0.372 N 
HETATM   20  N5  UNL     1      30.133  -0.654  33.799  1.00  0.00    -0.062 NA
ATOM     21  H42 UNL     1      30.157   0.220  36.946  1.00  0.00     0.158 HD
ATOM     22  H41 UNL     1      29.488   1.068  35.569  1.00  0.00     0.158 HD
ATOM     23  H3  UNL     1      31.272  -2.620  35.087  1.00  0.00     0.189 HD
ENDBRANCH  15  17
ENDBRANCH   4  15
TORSDOF 3
ENDMDL
