MODEL 1
REMARK VINA RESULT: -8.386546560      0.000      0.000
REMARK  7 active torsions:
REMARK  status: ('A' for Active; 'I' for Inactive)
REMARK    1  A    between atoms: C2_2  and  C3_3 
REMARK    2  A    between atoms: C3_3  and  C4_4 
REMARK    3  A    between atoms: C5_7  and  C6_8 
REMARK    4  A    between atoms: C9_11  and  N2_12 
REMARK    5  A    between atoms: N2_12  and  N3_14 
REMARK    6  A    between atoms: C13_18  and  O1_19 
REMARK    7  A    between atoms: N4_25  and  C19_26 
ROOT
HETATM    1  N3  UNL     1       3.304  34.666  36.962  1.00  0.00    -0.193 N 
HETATM    2  C10 UNL     1       4.446  34.688  37.661  1.00  0.00     0.086 A 
HETATM    3  C11 UNL     1       5.637  34.966  37.017  1.00  0.00     0.037 A 
HETATM    4  C12 UNL     1       6.796  35.023  37.768  1.00  0.00     0.039 A 
HETATM    5  C13 UNL     1       6.820  34.822  39.119  1.00  0.00     0.069 A 
HETATM    6  C15 UNL     1       5.625  34.545  39.786  1.00  0.00     0.051 A 
HETATM    7  C16 UNL     1       4.461  34.482  39.051  1.00  0.00     0.011 A 
HETATM    8  C17 UNL     1       3.291  34.258  39.756  1.00  0.00     0.021 A 
HETATM    9  C18 UNL     1       3.244  34.063  41.124  1.00  0.00     0.105 A 
HETATM   10  N4  UNL     1       2.081  33.860  41.781  1.00  0.00    -0.366 N 
HETATM   11  C21 UNL     1       0.959  33.854  41.062  1.00  0.00     0.092 A 
HETATM   12  C22 UNL     1       0.953  34.047  39.683  1.00  0.00     0.049 A 
HETATM   13  C23 UNL     1       2.140  34.255  38.995  1.00  0.00     0.066 A 
HETATM   14  N5  UNL     1       2.160  34.447  37.662  1.00  0.00    -0.274 N 
HETATM   15  C24 UNL     1       0.889  34.352  37.007  1.00  0.00     0.180 C 
ENDROOT
BRANCH   1  16
HETATM   16  N2  UNL     1       3.174  34.666  35.601  1.00  0.00    -0.279 N 
ATOM     17  H2  UNL     1       2.909  33.746  35.249  1.00  0.00     0.189 HD
BRANCH  16  18
HETATM   18  C9  UNL     1       3.306  35.588  34.570  1.00  0.00     0.050 A 
HETATM   19  C8  UNL     1       3.087  36.970  34.689  1.00  0.00     0.031 A 
HETATM   20  C7  UNL     1       3.254  37.841  33.640  1.00  0.00     0.011 A 
HETATM   21  C6  UNL     1       3.650  37.393  32.402  1.00  0.00    -0.035 A 
HETATM   22  C26 UNL     1       3.872  36.047  32.247  1.00  0.00     0.011 A 
HETATM   23  C25 UNL     1       3.707  35.177  33.294  1.00  0.00     0.031 A 
BRANCH  21  24
HETATM   24  C5  UNL     1       3.839  38.281  31.237  1.00  0.00     0.127 C 
HETATM   25  N1  UNL     1       3.645  37.609  30.031  1.00  0.00    -0.376 N 
HETATM   26  C4  UNL     1       3.168  38.203  29.053  1.00  0.00     0.073 C 
ATOM     27  H1  UNL     1       3.897  36.624  29.953  1.00  0.00     0.160 HD
HETATM   28  S1  UNL     1       2.852  39.866  29.600  1.00  0.00     0.064 S 
HETATM   29  C27 UNL     1       2.857  39.432  31.363  1.00  0.00     0.145 C 
HETATM   30  O2  UNL     1       1.342  40.380  29.129  1.00  0.00    -0.252 OA
BRANCH  26  31
HETATM   31  C3  UNL     1       2.855  37.755  27.667  1.00  0.00     0.066 C 
BRANCH  31  32
HETATM   32  C2  UNL     1       3.633  38.545  26.637  1.00  0.00     0.002 C 
HETATM   33  C1  UNL     1       3.309  37.936  25.280  1.00  0.00     0.005 C 
ENDBRANCH  31  32
ENDBRANCH  26  31
ENDBRANCH  21  24
ENDBRANCH  16  18
ENDBRANCH   1  16
BRANCH   5  34
HETATM   34  O1  UNL     1       7.992  34.885  39.849  1.00  0.00    -0.356 OA
HETATM   35  C14 UNL     1       7.989  35.259  41.205  1.00  0.00     0.210 C 
ENDBRANCH   5  34
BRANCH  10  36
HETATM   36  C19 UNL     1       2.067  33.657  43.231  1.00  0.00     0.123 C 
HETATM   37  C20 UNL     1       3.313  32.991  43.724  1.00  0.00     0.027 C 
ENDBRANCH  10  36
TORSDOF 7
ENDMDL
MODEL 2
REMARK VINA RESULT: -8.261104112      1.960      3.517
REMARK  7 active torsions:
REMARK  status: ('A' for Active; 'I' for Inactive)
REMARK    1  A    between atoms: C2_2  and  C3_3 
REMARK    2  A    between atoms: C3_3  and  C4_4 
REMARK    3  A    between atoms: C5_7  and  C6_8 
REMARK    4  A    between atoms: C9_11  and  N2_12 
REMARK    5  A    between atoms: N2_12  and  N3_14 
REMARK    6  A    between atoms: C13_18  and  O1_19 
REMARK    7  A    between atoms: N4_25  and  C19_26 
ROOT
HETATM    1  N3  UNL     1       4.102  34.346  36.690  1.00  0.00    -0.193 N 
HETATM    2  C10 UNL     1       2.867  34.506  37.184  1.00  0.00     0.086 A 
HETATM    3  C11 UNL     1       1.782  34.482  36.328  1.00  0.00     0.037 A 
HETATM    4  C12 UNL     1       0.515  34.607  36.867  1.00  0.00     0.039 A 
HETATM    5  C13 UNL     1       0.284  34.749  38.205  1.00  0.00     0.069 A 
HETATM    6  C15 UNL     1       1.369  34.771  39.083  1.00  0.00     0.051 A 
HETATM    7  C16 UNL     1       2.639  34.649  38.563  1.00  0.00     0.011 A 
HETATM    8  C17 UNL     1       3.684  34.621  39.470  1.00  0.00     0.021 A 
HETATM    9  C18 UNL     1       3.517  34.744  40.837  1.00  0.00     0.105 A 
HETATM   10  N4  UNL     1       4.560  34.699  41.695  1.00  0.00    -0.366 N 
HETATM   11  C21 UNL     1       5.777  34.528  41.178  1.00  0.00     0.092 A 
HETATM   12  C22 UNL     1       5.997  34.399  39.809  1.00  0.00     0.049 A 
HETATM   13  C23 UNL     1       4.935  34.445  38.916  1.00  0.00     0.066 A 
HETATM   14  N5  UNL     1       5.122  34.318  37.589  1.00  0.00    -0.274 N 
HETATM   15  C24 UNL     1       6.487  34.206  37.167  1.00  0.00     0.180 C 
ENDROOT
BRANCH   1  16
HETATM   16  N2  UNL     1       4.473  34.382  35.375  1.00  0.00    -0.279 N 
ATOM     17  H2  UNL     1       4.786  33.468  35.047  1.00  0.00     0.189 HD
BRANCH  16  18
HETATM   18  C9  UNL     1       4.537  35.336  34.367  1.00  0.00     0.050 A 
HETATM   19  C8  UNL     1       5.447  36.405  34.321  1.00  0.00     0.031 A 
HETATM   20  C7  UNL     1       5.481  37.308  33.287  1.00  0.00     0.011 A 
HETATM   21  C6  UNL     1       4.609  37.207  32.229  1.00  0.00    -0.035 A 
HETATM   22  C26 UNL     1       3.703  36.176  32.239  1.00  0.00     0.011 A 
HETATM   23  C25 UNL     1       3.670  35.273  33.271  1.00  0.00     0.031 A 
BRANCH  21  24
HETATM   24  C5  UNL     1       4.593  38.151  31.094  1.00  0.00     0.127 C 
HETATM   25  N1  UNL     1       4.469  37.495  29.870  1.00  0.00    -0.376 N 
HETATM   26  C4  UNL     1       3.856  38.029  28.933  1.00  0.00     0.073 C 
ATOM     27  H1  UNL     1       4.884  36.572  29.745  1.00  0.00     0.160 HD
HETATM   28  S1  UNL     1       3.280  39.592  29.556  1.00  0.00     0.064 S 
HETATM   29  C27 UNL     1       3.433  39.110  31.299  1.00  0.00     0.145 C 
HETATM   30  O2  UNL     1       1.686  39.850  29.158  1.00  0.00    -0.252 OA
BRANCH  26  31
HETATM   31  C3  UNL     1       3.569  37.578  27.542  1.00  0.00     0.066 C 
BRANCH  31  32
HETATM   32  C2  UNL     1       3.719  38.708  26.548  1.00  0.00     0.002 C 
HETATM   33  C1  UNL     1       3.238  38.179  25.204  1.00  0.00     0.005 C 
ENDBRANCH  31  32
ENDBRANCH  26  31
ENDBRANCH  21  24
ENDBRANCH  16  18
ENDBRANCH   1  16
BRANCH   5  34
HETATM   34  O1  UNL     1      -0.993  34.873  38.719  1.00  0.00    -0.356 OA
HETATM   35  C14 UNL     1      -1.483  33.972  39.683  1.00  0.00     0.210 C 
ENDBRANCH   5  34
BRANCH  10  36
HETATM   36  C19 UNL     1       4.349  34.832  43.137  1.00  0.00     0.123 C 
HETATM   37  C20 UNL     1       3.554  33.696  43.702  1.00  0.00     0.027 C 
ENDBRANCH  10  36
TORSDOF 7
ENDMDL
MODEL 3
REMARK VINA RESULT: -8.128054781      1.931      3.684
REMARK  7 active torsions:
REMARK  status: ('A' for Active; 'I' for Inactive)
REMARK    1  A    between atoms: C2_2  and  C3_3 
REMARK    2  A    between atoms: C3_3  and  C4_4 
REMARK    3  A    between atoms: C5_7  and  C6_8 
REMARK    4  A    between atoms: C9_11  and  N2_12 
REMARK    5  A    between atoms: N2_12  and  N3_14 
REMARK    6  A    between atoms: C13_18  and  O1_19 
REMARK    7  A    between atoms: N4_25  and  C19_26 
ROOT
HETATM    1  N3  UNL     1       3.182  34.491  36.515  1.00  0.00    -0.193 N 
HETATM    2  C10 UNL     1       2.086  34.671  37.264  1.00  0.00     0.086 A 
HETATM    3  C11 UNL     1       0.849  34.758  36.655  1.00  0.00     0.037 A 
HETATM    4  C12 UNL     1      -0.270  34.901  37.453  1.00  0.00     0.039 A 
HETATM    5  C13 UNL     1      -0.213  34.957  38.816  1.00  0.00     0.069 A 
HETATM    6  C15 UNL     1       1.029  34.866  39.448  1.00  0.00     0.051 A 
HETATM    7  C16 UNL     1       2.155  34.725  38.667  1.00  0.00     0.011 A 
HETATM    8  C17 UNL     1       3.361  34.584  39.332  1.00  0.00     0.021 A 
HETATM    9  C18 UNL     1       3.486  34.616  40.709  1.00  0.00     0.105 A 
HETATM   10  N4  UNL     1       4.679  34.462  41.325  1.00  0.00    -0.366 N 
HETATM   11  C21 UNL     1       5.751  34.274  40.556  1.00  0.00     0.092 A 
HETATM   12  C22 UNL     1       5.677  34.234  39.166  1.00  0.00     0.049 A 
HETATM   13  C23 UNL     1       4.459  34.392  38.520  1.00  0.00     0.066 A 
HETATM   14  N5  UNL     1       4.361  34.353  37.177  1.00  0.00    -0.274 N 
HETATM   15  C24 UNL     1       5.601  34.209  36.474  1.00  0.00     0.180 C 
ENDROOT
BRANCH   1  16
HETATM   16  N2  UNL     1       3.277  34.605  35.156  1.00  0.00    -0.279 N 
ATOM     17  H2  UNL     1       3.268  33.693  34.701  1.00  0.00     0.189 HD
BRANCH  16  18
HETATM   18  C9  UNL     1       3.382  35.637  34.231  1.00  0.00     0.050 A 
HETATM   19  C8  UNL     1       3.764  35.483  32.889  1.00  0.00     0.031 A 
HETATM   20  C7  UNL     1       3.830  36.537  32.010  1.00  0.00     0.011 A 
HETATM   21  C6  UNL     1       3.521  37.815  32.412  1.00  0.00    -0.035 A 
HETATM   22  C26 UNL     1       3.144  38.005  33.718  1.00  0.00     0.011 A 
HETATM   23  C25 UNL     1       3.077  36.953  34.595  1.00  0.00     0.031 A 
BRANCH  21  24
HETATM   24  C5  UNL     1       3.580  38.986  31.514  1.00  0.00     0.127 C 
HETATM   25  N1  UNL     1       3.926  38.630  30.212  1.00  0.00    -0.376 N 
HETATM   26  C4  UNL     1       3.467  39.261  29.247  1.00  0.00     0.073 C 
ATOM     27  H1  UNL     1       4.559  37.847  30.051  1.00  0.00     0.160 HD
HETATM   28  S1  UNL     1       2.410  40.512  29.942  1.00  0.00     0.064 S 
HETATM   29  C27 UNL     1       2.219  39.660  31.534  1.00  0.00     0.145 C 
HETATM   30  O2  UNL     1       0.955  40.586  29.141  1.00  0.00    -0.252 OA
BRANCH  26  31
HETATM   31  C3  UNL     1       3.655  39.114  27.776  1.00  0.00     0.066 C 
BRANCH  31  32
HETATM   32  C2  UNL     1       3.556  37.669  27.344  1.00  0.00     0.002 C 
HETATM   33  C1  UNL     1       3.220  37.675  25.859  1.00  0.00     0.005 C 
ENDBRANCH  31  32
ENDBRANCH  26  31
ENDBRANCH  21  24
ENDBRANCH  16  18
ENDBRANCH   1  16
BRANCH   5  34
HETATM   34  O1  UNL     1      -1.348  35.101  39.592  1.00  0.00    -0.356 OA
HETATM   35  C14 UNL     1      -2.076  33.982  40.034  1.00  0.00     0.210 C 
ENDBRANCH   5  34
BRANCH  10  36
HETATM   36  C19 UNL     1       4.776  34.500  42.785  1.00  0.00     0.123 C 
HETATM   37  C20 UNL     1       3.902  33.477  43.440  1.00  0.00     0.027 C 
ENDBRANCH  10  36
TORSDOF 7
ENDMDL
MODEL 4
REMARK VINA RESULT: -8.115603744      2.635      3.544
REMARK  7 active torsions:
REMARK  status: ('A' for Active; 'I' for Inactive)
REMARK    1  A    between atoms: C2_2  and  C3_3 
REMARK    2  A    between atoms: C3_3  and  C4_4 
REMARK    3  A    between atoms: C5_7  and  C6_8 
REMARK    4  A    between atoms: C9_11  and  N2_12 
REMARK    5  A    between atoms: N2_12  and  N3_14 
REMARK    6  A    between atoms: C13_18  and  O1_19 
REMARK    7  A    between atoms: N4_25  and  C19_26 
ROOT
HETATM    1  N3  UNL     1       3.313  34.695  36.778  1.00  0.00    -0.193 N 
HETATM    2  C10 UNL     1       2.414  35.524  37.326  1.00  0.00     0.086 A 
HETATM    3  C11 UNL     1       2.214  36.775  36.776  1.00  0.00     0.037 A 
HETATM    4  C12 UNL     1       1.252  37.596  37.334  1.00  0.00     0.039 A 
HETATM    5  C13 UNL     1       0.486  37.227  38.404  1.00  0.00     0.069 A 
HETATM    6  C15 UNL     1       0.673  35.964  38.969  1.00  0.00     0.051 A 
HETATM    7  C16 UNL     1       1.630  35.134  38.425  1.00  0.00     0.011 A 
HETATM    8  C17 UNL     1       1.747  33.871  38.980  1.00  0.00     0.021 A 
HETATM    9  C18 UNL     1       0.993  33.430  40.051  1.00  0.00     0.105 A 
HETATM   10  N4  UNL     1       1.126  32.185  40.558  1.00  0.00    -0.366 N 
HETATM   11  C21 UNL     1       2.019  31.378  39.987  1.00  0.00     0.092 A 
HETATM   12  C22 UNL     1       2.802  31.774  38.906  1.00  0.00     0.049 A 
HETATM   13  C23 UNL     1       2.677  33.051  38.375  1.00  0.00     0.066 A 
HETATM   14  N5  UNL     1       3.420  33.457  37.328  1.00  0.00    -0.274 N 
HETATM   15  C24 UNL     1       4.386  32.510  36.854  1.00  0.00     0.180 C 
ENDROOT
BRANCH   1  16
HETATM   16  N2  UNL     1       4.257  35.010  35.841  1.00  0.00    -0.279 N 
ATOM     17  H2  UNL     1       5.168  34.618  36.078  1.00  0.00     0.189 HD
BRANCH  16  18
HETATM   18  C9  UNL     1       4.302  35.723  34.649  1.00  0.00     0.050 A 
HETATM   19  C8  UNL     1       3.484  35.485  33.533  1.00  0.00     0.031 A 
HETATM   20  C7  UNL     1       3.557  36.236  32.385  1.00  0.00     0.011 A 
HETATM   21  C6  UNL     1       4.451  37.273  32.273  1.00  0.00    -0.035 A 
HETATM   22  C26 UNL     1       5.270  37.536  33.343  1.00  0.00     0.011 A 
HETATM   23  C25 UNL     1       5.197  36.786  34.489  1.00  0.00     0.031 A 
BRANCH  21  24
HETATM   24  C5  UNL     1       4.579  38.110  31.062  1.00  0.00     0.127 C 
HETATM   25  N1  UNL     1       4.400  37.371  29.894  1.00  0.00    -0.376 N 
HETATM   26  C4  UNL     1       3.879  37.893  28.896  1.00  0.00     0.073 C 
ATOM     27  H1  UNL     1       4.698  36.396  29.860  1.00  0.00     0.160 HD
HETATM   28  S1  UNL     1       3.492  39.563  29.368  1.00  0.00     0.064 S 
HETATM   29  C27 UNL     1       3.545  39.219  31.149  1.00  0.00     0.145 C 
HETATM   30  O2  UNL     1       1.952  39.981  28.899  1.00  0.00    -0.252 OA
BRANCH  26  31
HETATM   31  C3  UNL     1       3.567  37.362  27.540  1.00  0.00     0.066 C 
BRANCH  31  32
HETATM   32  C2  UNL     1       3.598  38.454  26.494  1.00  0.00     0.002 C 
HETATM   33  C1  UNL     1       3.247  37.800  25.165  1.00  0.00     0.005 C 
ENDBRANCH  31  32
ENDBRANCH  26  31
ENDBRANCH  21  24
ENDBRANCH  16  18
ENDBRANCH   1  16
BRANCH   5  34
HETATM   34  O1  UNL     1      -0.470  38.066  38.945  1.00  0.00    -0.356 OA
HETATM   35  C14 UNL     1      -1.618  37.553  39.574  1.00  0.00     0.210 C 
ENDBRANCH   5  34
BRANCH  10  36
HETATM   36  C19 UNL     1       0.311  31.749  41.694  1.00  0.00     0.123 C 
HETATM   37  C20 UNL     1      -1.060  31.317  41.276  1.00  0.00     0.027 C 
ENDBRANCH  10  36
TORSDOF 7
ENDMDL
MODEL 5
REMARK VINA RESULT: -8.065055470      3.986      5.670
REMARK  7 active torsions:
REMARK  status: ('A' for Active; 'I' for Inactive)
REMARK    1  A    between atoms: C2_2  and  C3_3 
REMARK    2  A    between atoms: C3_3  and  C4_4 
REMARK    3  A    between atoms: C5_7  and  C6_8 
REMARK    4  A    between atoms: C9_11  and  N2_12 
REMARK    5  A    between atoms: N2_12  and  N3_14 
REMARK    6  A    between atoms: C13_18  and  O1_19 
REMARK    7  A    between atoms: N4_25  and  C19_26 
ROOT
HETATM    1  N3  UNL     1       9.086  35.743  37.650  1.00  0.00    -0.193 N 
HETATM    2  C10 UNL     1      10.395  35.952  37.845  1.00  0.00     0.086 A 
HETATM    3  C11 UNL     1      11.218  36.189  36.760  1.00  0.00     0.037 A 
HETATM    4  C12 UNL     1      12.557  36.442  36.991  1.00  0.00     0.039 A 
HETATM    5  C13 UNL     1      13.105  36.474  38.242  1.00  0.00     0.069 A 
HETATM    6  C15 UNL     1      12.286  36.240  39.349  1.00  0.00     0.051 A 
HETATM    7  C16 UNL     1      10.950  35.984  39.135  1.00  0.00     0.011 A 
HETATM    8  C17 UNL     1      10.161  35.811  40.260  1.00  0.00     0.021 A 
HETATM    9  C18 UNL     1      10.651  35.847  41.553  1.00  0.00     0.105 A 
HETATM   10  N4  UNL     1       9.849  35.687  42.629  1.00  0.00    -0.366 N 
HETATM   11  C21 UNL     1       8.549  35.492  42.406  1.00  0.00     0.092 A 
HETATM   12  C22 UNL     1       8.008  35.448  41.124  1.00  0.00     0.049 A 
HETATM   13  C23 UNL     1       8.820  35.610  40.010  1.00  0.00     0.066 A 
HETATM   14  N5  UNL     1       8.320  35.576  38.760  1.00  0.00    -0.274 N 
HETATM   15  C24 UNL     1       6.918  35.294  38.665  1.00  0.00     0.180 C 
ENDROOT
BRANCH   1  16
HETATM   16  N2  UNL     1       8.460  35.505  36.458  1.00  0.00    -0.279 N 
ATOM     17  H2  UNL     1       8.598  34.544  36.146  1.00  0.00     0.189 HD
BRANCH  16  18
HETATM   18  C9  UNL     1       7.684  36.228  35.559  1.00  0.00     0.050 A 
HETATM   19  C8  UNL     1       7.977  37.520  35.095  1.00  0.00     0.031 A 
HETATM   20  C7  UNL     1       7.185  38.181  34.189  1.00  0.00     0.011 A 
HETATM   21  C6  UNL     1       6.048  37.598  33.684  1.00  0.00    -0.035 A 
HETATM   22  C26 UNL     1       5.727  36.334  34.115  1.00  0.00     0.011 A 
HETATM   23  C25 UNL     1       6.519  35.674  35.020  1.00  0.00     0.031 A 
BRANCH  21  24
HETATM   24  C5  UNL     1       5.155  38.262  32.713  1.00  0.00     0.127 C 
HETATM   25  N1  UNL     1       5.300  37.740  31.428  1.00  0.00    -0.376 N 
HETATM   26  C4  UNL     1       4.326  37.685  30.661  1.00  0.00     0.073 C 
ATOM     27  H1  UNL     1       6.211  37.402  31.117  1.00  0.00     0.160 HD
HETATM   28  S1  UNL     1       2.949  38.341  31.575  1.00  0.00     0.064 S 
HETATM   29  C27 UNL     1       3.726  38.085  33.195  1.00  0.00     0.145 C 
HETATM   30  O2  UNL     1       1.603  37.379  31.413  1.00  0.00    -0.252 OA
BRANCH  26  31
HETATM   31  C3  UNL     1       4.183  37.191  29.262  1.00  0.00     0.066 C 
BRANCH  31  32
HETATM   32  C2  UNL     1       3.308  38.105  28.435  1.00  0.00     0.002 C 
HETATM   33  C1  UNL     1       3.472  37.678  26.984  1.00  0.00     0.005 C 
ENDBRANCH  31  32
ENDBRANCH  26  31
ENDBRANCH  21  24
ENDBRANCH  16  18
ENDBRANCH   1  16
BRANCH   5  34
HETATM   34  O1  UNL     1      14.448  36.729  38.447  1.00  0.00    -0.356 OA
HETATM   35  C14 UNL     1      14.945  38.045  38.471  1.00  0.00     0.210 C 
ENDBRANCH   5  34
BRANCH  10  36
HETATM   36  C19 UNL     1      10.399  35.730  43.985  1.00  0.00     0.123 C 
HETATM   37  C20 UNL     1      11.873  35.992  43.992  1.00  0.00     0.027 C 
ENDBRANCH  10  36
TORSDOF 7
ENDMDL
