MODEL 1
REMARK VINA RESULT: -6.018732583      0.000      0.000
REMARK  15 active torsions:
REMARK  status: ('A' for Active; 'I' for Inactive)
REMARK    1  A    between atoms: N1_1  and  C1_4 
REMARK    2  A    between atoms: C5_12  and  O1_13 
REMARK    3  A    between atoms: N4_15  and  C6_16 
REMARK    4  A    between atoms: C8_19  and  C9_20 
REMARK    5  A    between atoms: C9_20  and  O3_21 
REMARK    6  A    between atoms: C9_20  and  C10_23 
REMARK    7  A    between atoms: C10_23  and  O4_24 
REMARK    8  A    between atoms: C10_23  and  C11_26 
REMARK    9  A    between atoms: C11_26  and  O5_27 
REMARK   10  A    between atoms: C11_26  and  C12_29 
REMARK   11  A    between atoms: C12_29  and  N5_30 
REMARK   12  A    between atoms: C14_32  and  C15_33 
REMARK   13  A    between atoms: C15_33  and  O6_34 
REMARK   14  A    between atoms: N8_40  and  N9_42 
REMARK   15  A    between atoms: N10_47  and  N11_48 
ROOT
HETATM    1  C6  UNL     1      31.521  24.807 -42.405  1.00  0.00     0.243 C 
HETATM    2  C7  UNL     1      30.571  23.806 -43.027  1.00  0.00     0.218 C 
HETATM    3  O2  UNL     1      30.016  24.230 -44.198  1.00  0.00    -0.373 OA
HETATM    4  C8  UNL     1      28.637  24.543 -44.110  1.00  0.00     0.209 C 
HETATM    5  C16 UNL     1      28.466  25.473 -42.973  1.00  0.00     0.126 C 
HETATM    6  N8  UNL     1      27.276  25.575 -42.426  1.00  0.00    -0.304 N 
ATOM      7  H8  UNL     1      26.510  25.012 -42.798  1.00  0.00     0.186 HD
HETATM    8  C17 UNL     1      29.451  26.331 -42.331  1.00  0.00     0.290 C 
HETATM    9  O7  UNL     1      29.006  27.403 -41.815  1.00  0.00    -0.264 OA
HETATM   10  N10 UNL     1      30.849  26.099 -42.221  1.00  0.00    -0.236 N 
ENDROOT
BRANCH   4  11
HETATM   11  C9  UNL     1      28.323  25.160 -45.459  1.00  0.00     0.184 C 
BRANCH  11  12
HETATM   12  O3  UNL     1      29.224  26.211 -45.608  1.00  0.00    -0.390 OA
ATOM     13  H3  UNL     1      28.971  26.651 -46.411  1.00  0.00     0.210 HD
ENDBRANCH  11  12
BRANCH  11  14
HETATM   14  C10 UNL     1      28.398  24.229 -46.607  1.00  0.00     0.180 C 
BRANCH  14  15
HETATM   15  O4  UNL     1      28.631  22.903 -46.231  1.00  0.00    -0.390 OA
ATOM     16  H4  UNL     1      27.871  22.343 -46.336  1.00  0.00     0.210 HD
ENDBRANCH  14  15
BRANCH  14  17
HETATM   17  C11 UNL     1      29.422  24.615 -47.632  1.00  0.00     0.169 C 
BRANCH  17  18
HETATM   18  O5  UNL     1      30.639  23.961 -47.442  1.00  0.00    -0.391 OA
ATOM     19  H5  UNL     1      31.054  23.720 -48.262  1.00  0.00     0.210 HD
ENDBRANCH  17  18
BRANCH  17  20
HETATM   20  C12 UNL     1      29.002  24.440 -49.059  1.00  0.00     0.180 C 
BRANCH  20  21
HETATM   21  N5  UNL     1      29.984  25.162 -49.904  1.00  0.00    -0.282 N 
HETATM   22  C13 UNL     1      29.612  26.165 -50.712  1.00  0.00     0.136 A 
HETATM   23  C14 UNL     1      30.783  26.589 -51.333  1.00  0.00     0.064 A 
HETATM   24  N6  UNL     1      31.775  25.823 -50.865  1.00  0.00    -0.285 N 
HETATM   25  N7  UNL     1      31.285  24.949 -49.990  1.00  0.00    -0.020 NA
ATOM     26  H6  UNL     1      32.756  25.897 -51.138  1.00  0.00     0.184 HD
BRANCH  23  27
HETATM   27  C15 UNL     1      30.828  27.697 -52.321  1.00  0.00     0.223 C 
BRANCH  27  28
HETATM   28  O6  UNL     1      30.764  27.120 -53.585  1.00  0.00    -0.395 OA
ATOM     29  H6  UNL     1      29.864  26.848 -53.724  1.00  0.00     0.209 HD
ENDBRANCH  27  28
ENDBRANCH  23  27
ENDBRANCH  20  21
ENDBRANCH  17  20
ENDBRANCH  14  17
ENDBRANCH  11  14
ENDBRANCH   4  11
BRANCH   6  30
HETATM   30  N9  UNL     1      27.027  26.427 -41.351  1.00  0.00    -0.345 N 
ATOM     31  H92 UNL     1      27.282  26.106 -40.417  1.00  0.00     0.176 HD
ATOM     32  H91 UNL     1      26.605  27.347 -41.477  1.00  0.00     0.176 HD
ENDBRANCH   6  30
BRANCH   1  33
HETATM   33  N4  UNL     1      32.743  24.956 -43.165  1.00  0.00    -0.285 N 
HETATM   34  C2  UNL     1      32.905  25.466 -44.433  1.00  0.00     0.133 A 
HETATM   35  N2  UNL     1      32.128  25.968 -45.375  1.00  0.00    -0.322 N 
HETATM   36  C3  UNL     1      34.242  25.386 -44.685  1.00  0.00     0.081 A 
HETATM   37  C1  UNL     1      32.695  26.367 -46.511  1.00  0.00     0.144 A 
ATOM     38  H2  UNL     1      31.121  26.050 -45.235  1.00  0.00     0.169 HD
HETATM   39  S1  UNL     1      34.348  26.034 -46.264  1.00  0.00    -0.049 SA
HETATM   40  C4  UNL     1      34.923  24.831 -43.587  1.00  0.00     0.118 A 
HETATM   41  N3  UNL     1      36.301  24.622 -43.543  1.00  0.00    -0.096 NA
HETATM   42  C5  UNL     1      33.956  24.583 -42.677  1.00  0.00     0.172 A 
BRANCH  37  43
HETATM   43  N1  UNL     1      32.095  26.891 -47.563  1.00  0.00    -0.380 N 
ATOM     44  H12 UNL     1      31.121  27.172 -47.679  1.00  0.00     0.158 HD
ATOM     45  H11 UNL     1      32.514  27.112 -48.467  1.00  0.00     0.158 HD
ENDBRANCH  37  43
BRANCH  42  46
HETATM   46  O1  UNL     1      34.163  24.021 -41.407  1.00  0.00    -0.344 OA
ATOM     47  H1  UNL     1      33.622  24.181 -40.642  1.00  0.00     0.219 HD
ENDBRANCH  42  46
ENDBRANCH   1  33
BRANCH  10  48
HETATM   48  N11 UNL     1      31.647  27.196 -41.909  1.00  0.00    -0.338 N 
ATOM     49 2H11 UNL     1      32.066  27.212 -40.979  1.00  0.00     0.177 HD
ATOM     50 1H11 UNL     1      31.763  27.912 -42.626  1.00  0.00     0.177 HD
ENDBRANCH  10  48
TORSDOF 15
ENDMDL
MODEL 2
REMARK VINA RESULT: -6.009632424      4.888      8.547
REMARK  15 active torsions:
REMARK  status: ('A' for Active; 'I' for Inactive)
REMARK    1  A    between atoms: N1_1  and  C1_4 
REMARK    2  A    between atoms: C5_12  and  O1_13 
REMARK    3  A    between atoms: N4_15  and  C6_16 
REMARK    4  A    between atoms: C8_19  and  C9_20 
REMARK    5  A    between atoms: C9_20  and  O3_21 
REMARK    6  A    between atoms: C9_20  and  C10_23 
REMARK    7  A    between atoms: C10_23  and  O4_24 
REMARK    8  A    between atoms: C10_23  and  C11_26 
REMARK    9  A    between atoms: C11_26  and  O5_27 
REMARK   10  A    between atoms: C11_26  and  C12_29 
REMARK   11  A    between atoms: C12_29  and  N5_30 
REMARK   12  A    between atoms: C14_32  and  C15_33 
REMARK   13  A    between atoms: C15_33  and  O6_34 
REMARK   14  A    between atoms: N8_40  and  N9_42 
REMARK   15  A    between atoms: N10_47  and  N11_48 
ROOT
HETATM    1  C6  UNL     1      31.091  27.649 -40.960  1.00  0.00     0.243 C 
HETATM    2  C7  UNL     1      30.141  27.453 -39.798  1.00  0.00     0.218 C 
HETATM    3  O2  UNL     1      28.856  27.198 -40.177  1.00  0.00    -0.373 OA
HETATM    4  C8  UNL     1      27.953  28.260 -39.925  1.00  0.00     0.209 C 
HETATM    5  C16 UNL     1      28.537  29.487 -40.510  1.00  0.00     0.126 C 
HETATM    6  N8  UNL     1      28.125  30.650 -40.059  1.00  0.00    -0.304 N 
ATOM      7  H8  UNL     1      27.419  30.672 -39.322  1.00  0.00     0.186 HD
HETATM    8  C17 UNL     1      29.545  29.617 -41.552  1.00  0.00     0.290 C 
HETATM    9  O7  UNL     1      29.474  30.663 -42.270  1.00  0.00    -0.264 OA
HETATM   10  N10 UNL     1      30.594  28.706 -41.850  1.00  0.00    -0.236 N 
ENDROOT
BRANCH   4  11
HETATM   11  C9  UNL     1      26.672  27.809 -40.601  1.00  0.00     0.184 C 
BRANCH  11  12
HETATM   12  O3  UNL     1      26.876  26.473 -40.932  1.00  0.00    -0.390 OA
ATOM     13  H3  UNL     1      27.592  26.472 -41.556  1.00  0.00     0.210 HD
ENDBRANCH  11  12
BRANCH  11  14
HETATM   14  C10 UNL     1      25.445  27.975 -39.792  1.00  0.00     0.180 C 
BRANCH  14  15
HETATM   15  O4  UNL     1      24.451  28.717 -40.437  1.00  0.00    -0.390 OA
ATOM     16  H4  UNL     1      24.131  28.307 -41.232  1.00  0.00     0.210 HD
ENDBRANCH  14  15
BRANCH  14  17
HETATM   17  C11 UNL     1      25.687  28.585 -38.444  1.00  0.00     0.169 C 
BRANCH  17  18
HETATM   18  O5  UNL     1      25.071  29.828 -38.303  1.00  0.00    -0.391 OA
ATOM     19  H5  UNL     1      25.422  30.476 -38.903  1.00  0.00     0.210 HD
ENDBRANCH  17  18
BRANCH  17  20
HETATM   20  C12 UNL     1      25.311  27.728 -37.274  1.00  0.00     0.180 C 
BRANCH  20  21
HETATM   21  N5  UNL     1      26.514  26.952 -36.884  1.00  0.00    -0.282 N 
HETATM   22  C13 UNL     1      27.624  27.556 -36.437  1.00  0.00     0.136 A 
HETATM   23  C14 UNL     1      28.522  26.524 -36.176  1.00  0.00     0.064 A 
HETATM   24  N6  UNL     1      27.901  25.378 -36.480  1.00  0.00    -0.285 N 
HETATM   25  N7  UNL     1      26.672  25.641 -36.913  1.00  0.00    -0.020 NA
ATOM     26  H6  UNL     1      28.308  24.446 -36.393  1.00  0.00     0.184 HD
BRANCH  23  27
HETATM   27  C15 UNL     1      29.894  26.749 -35.658  1.00  0.00     0.223 C 
BRANCH  27  28
HETATM   28  O6  UNL     1      30.779  26.340 -36.650  1.00  0.00    -0.395 OA
ATOM     29  H6  UNL     1      31.186  27.123 -37.003  1.00  0.00     0.209 HD
ENDBRANCH  27  28
ENDBRANCH  23  27
ENDBRANCH  20  21
ENDBRANCH  17  20
ENDBRANCH  14  17
ENDBRANCH  11  14
ENDBRANCH   4  11
BRANCH   6  30
HETATM   30  N9  UNL     1      28.623  31.853 -40.555  1.00  0.00    -0.345 N 
ATOM     31  H92 UNL     1      27.963  32.614 -40.715  1.00  0.00     0.176 HD
ATOM     32  H91 UNL     1      29.614  31.987 -40.755  1.00  0.00     0.176 HD
ENDBRANCH   6  30
BRANCH   1  33
HETATM   33  N4  UNL     1      31.334  26.424 -41.689  1.00  0.00    -0.285 N 
HETATM   34  C2  UNL     1      30.458  25.704 -42.470  1.00  0.00     0.133 A 
HETATM   35  N2  UNL     1      29.196  25.804 -42.842  1.00  0.00    -0.322 N 
HETATM   36  C3  UNL     1      31.175  24.640 -42.928  1.00  0.00     0.081 A 
HETATM   37  C1  UNL     1      28.700  24.861 -43.640  1.00  0.00     0.144 A 
ATOM     38  H2  UNL     1      28.617  26.582 -42.527  1.00  0.00     0.169 HD
HETATM   39  S1  UNL     1      30.019  23.812 -43.879  1.00  0.00    -0.049 SA
HETATM   40  C4  UNL     1      32.494  24.682 -42.442  1.00  0.00     0.118 A 
HETATM   41  N3  UNL     1      33.469  23.729 -42.735  1.00  0.00    -0.096 NA
HETATM   42  C5  UNL     1      32.542  25.799 -41.684  1.00  0.00     0.172 A 
BRANCH  37  43
HETATM   43  N1  UNL     1      27.472  24.784 -44.118  1.00  0.00    -0.380 N 
ATOM     44  H12 UNL     1      26.904  25.505 -44.563  1.00  0.00     0.158 HD
ATOM     45  H11 UNL     1      26.862  23.966 -44.124  1.00  0.00     0.158 HD
ENDBRANCH  37  43
BRANCH  42  46
HETATM   46  O1  UNL     1      33.671  26.258 -40.987  1.00  0.00    -0.344 OA
ATOM     47  H1  UNL     1      34.242  25.719 -40.452  1.00  0.00     0.219 HD
ENDBRANCH  42  46
ENDBRANCH   1  33
BRANCH  10  48
HETATM   48  N11 UNL     1      31.203  28.832 -43.096  1.00  0.00    -0.338 N 
ATOM     49 2H11 UNL     1      32.222  28.774 -43.120  1.00  0.00     0.177 HD
ATOM     50 1H11 UNL     1      30.596  28.972 -43.903  1.00  0.00     0.177 HD
ENDBRANCH  10  48
TORSDOF 15
ENDMDL
MODEL 3
REMARK VINA RESULT: -5.898377965      3.768      8.821
REMARK  15 active torsions:
REMARK  status: ('A' for Active; 'I' for Inactive)
REMARK    1  A    between atoms: N1_1  and  C1_4 
REMARK    2  A    between atoms: C5_12  and  O1_13 
REMARK    3  A    between atoms: N4_15  and  C6_16 
REMARK    4  A    between atoms: C8_19  and  C9_20 
REMARK    5  A    between atoms: C9_20  and  O3_21 
REMARK    6  A    between atoms: C9_20  and  C10_23 
REMARK    7  A    between atoms: C10_23  and  O4_24 
REMARK    8  A    between atoms: C10_23  and  C11_26 
REMARK    9  A    between atoms: C11_26  and  O5_27 
REMARK   10  A    between atoms: C11_26  and  C12_29 
REMARK   11  A    between atoms: C12_29  and  N5_30 
REMARK   12  A    between atoms: C14_32  and  C15_33 
REMARK   13  A    between atoms: C15_33  and  O6_34 
REMARK   14  A    between atoms: N8_40  and  N9_42 
REMARK   15  A    between atoms: N10_47  and  N11_48 
ROOT
HETATM    1  C6  UNL     1      28.690  26.275 -44.252  1.00  0.00     0.243 C 
HETATM    2  C7  UNL     1      29.018  27.684 -43.807  1.00  0.00     0.218 C 
HETATM    3  O2  UNL     1      29.732  27.741 -42.647  1.00  0.00    -0.373 OA
HETATM    4  C8  UNL     1      29.001  28.229 -41.536  1.00  0.00     0.209 C 
HETATM    5  C16 UNL     1      27.749  27.447 -41.452  1.00  0.00     0.126 C 
HETATM    6  N8  UNL     1      26.734  27.965 -40.799  1.00  0.00    -0.304 N 
ATOM      7  H8  UNL     1      26.838  28.886 -40.372  1.00  0.00     0.186 HD
HETATM    8  C17 UNL     1      27.445  26.136 -42.006  1.00  0.00     0.290 C 
HETATM    9  O7  UNL     1      26.596  25.442 -41.366  1.00  0.00    -0.264 OA
HETATM   10  N10 UNL     1      27.995  25.552 -43.180  1.00  0.00    -0.236 N 
ENDROOT
BRANCH   4  11
HETATM   11  C9  UNL     1      29.940  28.010 -40.366  1.00  0.00     0.184 C 
BRANCH  11  12
HETATM   12  O3  UNL     1      31.183  27.735 -40.930  1.00  0.00    -0.390 OA
ATOM     13  H3  UNL     1      31.077  26.910 -41.389  1.00  0.00     0.210 HD
ENDBRANCH  11  12
BRANCH  11  14
HETATM   14  C10 UNL     1      30.027  29.138 -39.413  1.00  0.00     0.180 C 
BRANCH  14  15
HETATM   15  O4  UNL     1      31.306  29.313 -38.876  1.00  0.00    -0.390 OA
ATOM     16  H4  UNL     1      31.855  29.892 -39.392  1.00  0.00     0.210 HD
ENDBRANCH  14  15
BRANCH  14  17
HETATM   17  C11 UNL     1      29.049  29.049 -38.280  1.00  0.00     0.169 C 
BRANCH  17  18
HETATM   18  O5  UNL     1      27.794  29.553 -38.620  1.00  0.00    -0.391 OA
ATOM     19  H5  UNL     1      27.238  28.899 -39.028  1.00  0.00     0.210 HD
ENDBRANCH  17  18
BRANCH  17  20
HETATM   20  C12 UNL     1      28.873  27.685 -37.688  1.00  0.00     0.180 C 
BRANCH  20  21
HETATM   21  N5  UNL     1      27.457  27.564 -37.262  1.00  0.00    -0.282 N 
HETATM   22  C13 UNL     1      26.979  28.243 -36.210  1.00  0.00     0.136 A 
HETATM   23  C14 UNL     1      25.638  27.882 -36.118  1.00  0.00     0.064 A 
HETATM   24  N6  UNL     1      25.396  27.017 -37.110  1.00  0.00    -0.285 N 
HETATM   25  N7  UNL     1      26.510  26.823 -37.810  1.00  0.00    -0.020 NA
ATOM     26  H6  UNL     1      24.496  26.575 -37.301  1.00  0.00     0.184 HD
BRANCH  23  27
HETATM   27  C15 UNL     1      24.720  28.410 -35.078  1.00  0.00     0.223 C 
BRANCH  27  28
HETATM   28  O6  UNL     1      24.653  27.455 -34.068  1.00  0.00    -0.395 OA
ATOM     29  H6  UNL     1      23.945  27.711 -33.488  1.00  0.00     0.209 HD
ENDBRANCH  27  28
ENDBRANCH  23  27
ENDBRANCH  20  21
ENDBRANCH  17  20
ENDBRANCH  14  17
ENDBRANCH  11  14
ENDBRANCH   4  11
BRANCH   6  30
HETATM   30  N9  UNL     1      25.518  27.296 -40.671  1.00  0.00    -0.345 N 
ATOM     31  H92 UNL     1      24.660  27.828 -40.822  1.00  0.00     0.176 HD
ATOM     32  H91 UNL     1      25.468  26.305 -40.436  1.00  0.00     0.176 HD
ENDBRANCH   6  30
BRANCH   1  33
HETATM   33  N4  UNL     1      29.859  25.549 -44.699  1.00  0.00    -0.285 N 
HETATM   34  C2  UNL     1      30.993  25.231 -43.987  1.00  0.00     0.133 A 
HETATM   35  N2  UNL     1      31.444  25.422 -42.761  1.00  0.00    -0.322 N 
HETATM   36  C3  UNL     1      31.786  24.547 -44.859  1.00  0.00     0.081 A 
HETATM   37  C1  UNL     1      32.644  24.937 -42.451  1.00  0.00     0.144 A 
ATOM     38  H2  UNL     1      30.889  25.928 -42.071  1.00  0.00     0.169 HD
HETATM   39  S1  UNL     1      33.156  24.198 -43.897  1.00  0.00    -0.049 SA
HETATM   40  C4  UNL     1      31.162  24.431 -46.113  1.00  0.00     0.118 A 
HETATM   41  N3  UNL     1      31.724  23.784 -47.213  1.00  0.00    -0.096 NA
HETATM   42  C5  UNL     1      29.977  25.065 -45.964  1.00  0.00     0.172 A 
BRANCH  37  43
HETATM   43  N1  UNL     1      33.265  25.023 -41.290  1.00  0.00    -0.380 N 
ATOM     44  H12 UNL     1      32.911  24.837 -40.351  1.00  0.00     0.158 HD
ATOM     45  H11 UNL     1      34.233  25.298 -41.126  1.00  0.00     0.158 HD
ENDBRANCH  37  43
BRANCH  42  46
HETATM   46  O1  UNL     1      29.003  25.207 -46.965  1.00  0.00    -0.344 OA
ATOM     47  H1  UNL     1      28.122  24.854 -46.926  1.00  0.00     0.219 HD
ENDBRANCH  42  46
ENDBRANCH   1  33
BRANCH  10  48
HETATM   48  N11 UNL     1      27.856  24.174 -43.323  1.00  0.00    -0.338 N 
ATOM     49 2H11 UNL     1      26.943  23.777 -43.098  1.00  0.00     0.177 HD
ATOM     50 1H11 UNL     1      28.670  23.651 -43.644  1.00  0.00     0.177 HD
ENDBRANCH  10  48
TORSDOF 15
ENDMDL
MODEL 4
REMARK VINA RESULT: -5.897925260      3.513      8.417
REMARK  15 active torsions:
REMARK  status: ('A' for Active; 'I' for Inactive)
REMARK    1  A    between atoms: N1_1  and  C1_4 
REMARK    2  A    between atoms: C5_12  and  O1_13 
REMARK    3  A    between atoms: N4_15  and  C6_16 
REMARK    4  A    between atoms: C8_19  and  C9_20 
REMARK    5  A    between atoms: C9_20  and  O3_21 
REMARK    6  A    between atoms: C9_20  and  C10_23 
REMARK    7  A    between atoms: C10_23  and  O4_24 
REMARK    8  A    between atoms: C10_23  and  C11_26 
REMARK    9  A    between atoms: C11_26  and  O5_27 
REMARK   10  A    between atoms: C11_26  and  C12_29 
REMARK   11  A    between atoms: C12_29  and  N5_30 
REMARK   12  A    between atoms: C14_32  and  C15_33 
REMARK   13  A    between atoms: C15_33  and  O6_34 
REMARK   14  A    between atoms: N8_40  and  N9_42 
REMARK   15  A    between atoms: N10_47  and  N11_48 
ROOT
HETATM    1  C6  UNL     1      28.592  24.653 -45.818  1.00  0.00     0.243 C 
HETATM    2  C7  UNL     1      27.618  25.695 -45.310  1.00  0.00     0.218 C 
HETATM    3  O2  UNL     1      28.146  26.525 -44.366  1.00  0.00    -0.373 OA
HETATM    4  C8  UNL     1      27.639  26.318 -43.059  1.00  0.00     0.209 C 
HETATM    5  C16 UNL     1      27.770  24.877 -42.756  1.00  0.00     0.126 C 
HETATM    6  N8  UNL     1      27.008  24.366 -41.816  1.00  0.00    -0.304 N 
ATOM      7  H8  UNL     1      26.352  24.975 -41.326  1.00  0.00     0.186 HD
HETATM    8  C17 UNL     1      28.647  23.886 -43.364  1.00  0.00     0.290 C 
HETATM    9  O7  UNL     1      29.006  22.924 -42.616  1.00  0.00    -0.264 OA
HETATM   10  N10 UNL     1      29.141  23.880 -44.697  1.00  0.00    -0.236 N 
ENDROOT
BRANCH   4  11
HETATM   11  C9  UNL     1      28.509  27.208 -42.192  1.00  0.00     0.184 C 
BRANCH  11  12
HETATM   12  O3  UNL     1      29.603  27.545 -42.984  1.00  0.00    -0.390 OA
ATOM     13  H3  UNL     1      29.577  28.491 -43.065  1.00  0.00     0.210 HD
ENDBRANCH  11  12
BRANCH  11  14
HETATM   14  C10 UNL     1      27.839  28.419 -41.668  1.00  0.00     0.180 C 
BRANCH  14  15
HETATM   15  O4  UNL     1      28.724  29.465 -41.390  1.00  0.00    -0.390 OA
ATOM     16  H4  UNL     1      28.299  30.230 -41.019  1.00  0.00     0.210 HD
ENDBRANCH  14  15
BRANCH  14  17
HETATM   17  C11 UNL     1      27.007  28.169 -40.446  1.00  0.00     0.169 C 
BRANCH  17  18
HETATM   18  O5  UNL     1      26.005  27.225 -40.669  1.00  0.00    -0.391 OA
ATOM     19  H5  UNL     1      25.389  27.502 -41.338  1.00  0.00     0.210 HD
ENDBRANCH  17  18
BRANCH  17  20
HETATM   20  C12 UNL     1      27.769  27.776 -39.218  1.00  0.00     0.180 C 
BRANCH  20  21
HETATM   21  N5  UNL     1      26.779  27.489 -38.152  1.00  0.00    -0.282 N 
HETATM   22  C13 UNL     1      26.388  28.433 -37.284  1.00  0.00     0.136 A 
HETATM   23  C14 UNL     1      25.468  27.804 -36.449  1.00  0.00     0.064 A 
HETATM   24  N6  UNL     1      25.365  26.536 -36.863  1.00  0.00    -0.285 N 
HETATM   25  N7  UNL     1      26.168  26.344 -37.906  1.00  0.00    -0.020 NA
ATOM     26  H6  UNL     1      24.764  25.826 -36.443  1.00  0.00     0.184 HD
BRANCH  23  27
HETATM   27  C15 UNL     1      24.778  28.494 -35.330  1.00  0.00     0.223 C 
BRANCH  27  28
HETATM   28  O6  UNL     1      24.630  27.565 -34.305  1.00  0.00    -0.395 OA
ATOM     29  H6  UNL     1      25.221  27.822 -33.606  1.00  0.00     0.209 HD
ENDBRANCH  27  28
ENDBRANCH  23  27
ENDBRANCH  20  21
ENDBRANCH  17  20
ENDBRANCH  14  17
ENDBRANCH  11  14
ENDBRANCH   4  11
BRANCH   6  30
HETATM   30  N9  UNL     1      27.069  23.018 -41.467  1.00  0.00    -0.345 N 
ATOM     31  H92 UNL     1      27.989  22.596 -41.342  1.00  0.00     0.176 HD
ATOM     32  H91 UNL     1      26.228  22.455 -41.336  1.00  0.00     0.176 HD
ENDBRANCH   6  30
BRANCH   1  33
HETATM   33  N4  UNL     1      29.648  25.229 -46.622  1.00  0.00    -0.285 N 
HETATM   34  C2  UNL     1      29.750  25.276 -47.994  1.00  0.00     0.133 A 
HETATM   35  N2  UNL     1      29.032  24.876 -49.027  1.00  0.00    -0.322 N 
HETATM   36  C3  UNL     1      30.925  25.919 -48.246  1.00  0.00     0.081 A 
HETATM   37  C1  UNL     1      29.496  25.123 -50.249  1.00  0.00     0.144 A 
ATOM     38  H2  UNL     1      28.145  24.390 -48.891  1.00  0.00     0.169 HD
HETATM   39  S1  UNL     1      30.966  25.932 -49.956  1.00  0.00    -0.049 SA
HETATM   40  C4  UNL     1      31.564  26.277 -47.046  1.00  0.00     0.118 A 
HETATM   41  N3  UNL     1      32.784  26.947 -46.976  1.00  0.00    -0.096 NA
HETATM   42  C5  UNL     1      30.738  25.830 -46.074  1.00  0.00     0.172 A 
BRANCH  37  43
HETATM   43  N1  UNL     1      28.930  24.806 -51.398  1.00  0.00    -0.380 N 
ATOM     44  H12 UNL     1      29.281  24.210 -52.149  1.00  0.00     0.158 HD
ATOM     45  H11 UNL     1      28.020  25.109 -51.744  1.00  0.00     0.158 HD
ENDBRANCH  37  43
BRANCH  42  46
HETATM   46  O1  UNL     1      30.963  25.961 -44.695  1.00  0.00    -0.344 OA
ATOM     47  H1  UNL     1      30.806  25.284 -44.047  1.00  0.00     0.219 HD
ENDBRANCH  42  46
ENDBRANCH   1  33
BRANCH  10  48
HETATM   48  N11 UNL     1      30.239  23.066 -44.958  1.00  0.00    -0.338 N 
ATOM     49 2H11 UNL     1      30.632  23.108 -45.898  1.00  0.00     0.177 HD
ATOM     50 1H11 UNL     1      30.583  22.482 -44.195  1.00  0.00     0.177 HD
ENDBRANCH  10  48
TORSDOF 15
ENDMDL
MODEL 5
REMARK VINA RESULT: -5.793162134      3.485      8.504
REMARK  15 active torsions:
REMARK  status: ('A' for Active; 'I' for Inactive)
REMARK    1  A    between atoms: N1_1  and  C1_4 
REMARK    2  A    between atoms: C5_12  and  O1_13 
REMARK    3  A    between atoms: N4_15  and  C6_16 
REMARK    4  A    between atoms: C8_19  and  C9_20 
REMARK    5  A    between atoms: C9_20  and  O3_21 
REMARK    6  A    between atoms: C9_20  and  C10_23 
REMARK    7  A    between atoms: C10_23  and  O4_24 
REMARK    8  A    between atoms: C10_23  and  C11_26 
REMARK    9  A    between atoms: C11_26  and  O5_27 
REMARK   10  A    between atoms: C11_26  and  C12_29 
REMARK   11  A    between atoms: C12_29  and  N5_30 
REMARK   12  A    between atoms: C14_32  and  C15_33 
REMARK   13  A    between atoms: C15_33  and  O6_34 
REMARK   14  A    between atoms: N8_40  and  N9_42 
REMARK   15  A    between atoms: N10_47  and  N11_48 
ROOT
HETATM    1  C6  UNL     1      28.493  24.628 -45.755  1.00  0.00     0.243 C 
HETATM    2  C7  UNL     1      27.527  25.674 -45.241  1.00  0.00     0.218 C 
HETATM    3  O2  UNL     1      28.069  26.510 -44.309  1.00  0.00    -0.373 OA
HETATM    4  C8  UNL     1      27.580  26.312 -42.995  1.00  0.00     0.209 C 
HETATM    5  C16 UNL     1      27.713  24.873 -42.684  1.00  0.00     0.126 C 
HETATM    6  N8  UNL     1      26.964  24.369 -41.730  1.00  0.00    -0.304 N 
ATOM      7  H8  UNL     1      26.316  24.982 -41.235  1.00  0.00     0.186 HD
HETATM    8  C17 UNL     1      28.580  23.877 -43.298  1.00  0.00     0.290 C 
HETATM    9  O7  UNL     1      28.948  22.919 -42.548  1.00  0.00    -0.264 OA
HETATM   10  N10 UNL     1      29.055  23.861 -44.637  1.00  0.00    -0.236 N 
ENDROOT
BRANCH   4  11
HETATM   11  C9  UNL     1      28.463  27.207 -42.146  1.00  0.00     0.184 C 
BRANCH  11  12
HETATM   12  O3  UNL     1      29.545  27.540 -42.956  1.00  0.00    -0.390 OA
ATOM     13  H3  UNL     1      30.294  27.584 -42.374  1.00  0.00     0.210 HD
ENDBRANCH  11  12
BRANCH  11  14
HETATM   14  C10 UNL     1      27.802  28.420 -41.616  1.00  0.00     0.180 C 
BRANCH  14  15
HETATM   15  O4  UNL     1      28.690  29.467 -41.356  1.00  0.00    -0.390 OA
ATOM     16  H4  UNL     1      28.337  30.124 -40.769  1.00  0.00     0.210 HD
ENDBRANCH  14  15
BRANCH  14  17
HETATM   17  C11 UNL     1      26.988  28.174 -40.381  1.00  0.00     0.169 C 
BRANCH  17  18
HETATM   18  O5  UNL     1      25.958  27.258 -40.596  1.00  0.00    -0.391 OA
ATOM     19  H5  UNL     1      26.065  26.776 -41.408  1.00  0.00     0.210 HD
ENDBRANCH  17  18
BRANCH  17  20
HETATM   20  C12 UNL     1      27.764  27.749 -39.173  1.00  0.00     0.180 C 
BRANCH  20  21
HETATM   21  N5  UNL     1      26.789  27.482 -38.088  1.00  0.00    -0.282 N 
HETATM   22  C13 UNL     1      26.452  28.428 -37.199  1.00  0.00     0.136 A 
HETATM   23  C14 UNL     1      25.530  27.821 -36.351  1.00  0.00     0.064 A 
HETATM   24  N6  UNL     1      25.372  26.563 -36.778  1.00  0.00    -0.285 N 
HETATM   25  N7  UNL     1      26.143  26.357 -37.842  1.00  0.00    -0.020 NA
ATOM     26  H6  UNL     1      24.756  25.869 -36.353  1.00  0.00     0.184 HD
BRANCH  23  27
HETATM   27  C15 UNL     1      24.891  28.520 -35.207  1.00  0.00     0.223 C 
BRANCH  27  28
HETATM   28  O6  UNL     1      24.538  27.547 -34.278  1.00  0.00    -0.395 OA
ATOM     29  H6  UNL     1      24.455  27.980 -33.436  1.00  0.00     0.209 HD
ENDBRANCH  27  28
ENDBRANCH  23  27
ENDBRANCH  20  21
ENDBRANCH  17  20
ENDBRANCH  14  17
ENDBRANCH  11  14
ENDBRANCH   4  11
BRANCH   6  30
HETATM   30  N9  UNL     1      27.027  23.023 -41.373  1.00  0.00    -0.345 N 
ATOM     31  H92 UNL     1      27.649  22.415 -41.906  1.00  0.00     0.176 HD
ATOM     32  H91 UNL     1      26.475  22.641 -40.605  1.00  0.00     0.176 HD
ENDBRANCH   6  30
BRANCH   1  33
HETATM   33  N4  UNL     1      29.538  25.196 -46.578  1.00  0.00    -0.285 N 
HETATM   34  C2  UNL     1      30.590  25.996 -46.193  1.00  0.00     0.133 A 
HETATM   35  N2  UNL     1      31.040  26.518 -45.067  1.00  0.00    -0.322 N 
HETATM   36  C3  UNL     1      31.281  26.258 -47.338  1.00  0.00     0.081 A 
HETATM   37  C1  UNL     1      32.139  27.268 -45.117  1.00  0.00     0.144 A 
ATOM     38  H2  UNL     1      30.559  26.351 -44.183  1.00  0.00     0.169 HD
HETATM   39  S1  UNL     1      32.556  27.246 -46.769  1.00  0.00    -0.049 SA
HETATM   40  C4  UNL     1      30.673  25.631 -48.440  1.00  0.00     0.118 A 
HETATM   41  N3  UNL     1      31.147  25.714 -49.749  1.00  0.00    -0.096 NA
HETATM   42  C5  UNL     1      29.604  24.990 -47.920  1.00  0.00     0.172 A 
BRANCH  37  43
HETATM   43  N1  UNL     1      32.740  27.872 -44.110  1.00  0.00    -0.380 N 
ATOM     44  H12 UNL     1      32.373  28.568 -43.461  1.00  0.00     0.158 HD
ATOM     45  H11 UNL     1      33.703  27.745 -43.799  1.00  0.00     0.158 HD
ENDBRANCH  37  43
BRANCH  42  46
HETATM   46  O1  UNL     1      28.686  24.219 -48.652  1.00  0.00    -0.344 OA
ATOM     47  H1  UNL     1      28.693  23.271 -48.713  1.00  0.00     0.219 HD
ENDBRANCH  42  46
ENDBRANCH   1  33
BRANCH  10  48
HETATM   48  N11 UNL     1      30.149  23.043 -44.907  1.00  0.00    -0.338 N 
ATOM     49 2H11 UNL     1      29.949  22.079 -45.175  1.00  0.00     0.177 HD
ATOM     50 1H11 UNL     1      31.077  23.458 -44.824  1.00  0.00     0.177 HD
ENDBRANCH  10  48
TORSDOF 15
ENDMDL
