MODEL 1
REMARK VINA RESULT: -7.329600533      0.000      0.000
REMARK  14 active torsions:
REMARK  status: ('A' for Active; 'I' for Inactive)
REMARK    1  A    between atoms: N1_2  and  C2_3 
REMARK    2  A    between atoms: N1_2  and  N7_28 
REMARK    3  A    between atoms: C5_6  and  C6_7 
REMARK    4  A    between atoms: C10_15  and  N3_16 
REMARK    5  A    between atoms: C13_29  and  C14_30 
REMARK    6  A    between atoms: C14_30  and  O4_31 
REMARK    7  A    between atoms: C14_30  and  N8_33 
REMARK    8  A    between atoms: N8_33  and  C15_36 
REMARK    9  A    between atoms: C15_36  and  O5_37 
REMARK   10  A    between atoms: C15_36  and  C16_39 
REMARK   11  A    between atoms: C16_39  and  O6_40 
REMARK   12  A    between atoms: C16_39  and  C17_42 
REMARK   13  A    between atoms: C17_42  and  O7_43 
REMARK   14  A    between atoms: C18_47  and  N10_48 
ROOT
HETATM    1  N7  UNL     1      29.871  26.676 -42.336  1.00  0.00    -0.065 N 
HETATM    2  C13 UNL     1      29.874  25.421 -42.787  1.00  0.00     0.194 A 
HETATM    3  N9  UNL     1      31.002  24.723 -42.560  1.00  0.00    -0.173 N 
ATOM      4  H9  UNL     1      31.024  23.761 -42.898  1.00  0.00     0.185 HD
HETATM    5  C18 UNL     1      32.089  25.169 -41.939  1.00  0.00     0.692 A 
HETATM    6  N11 UNL     1      32.060  26.438 -41.494  1.00  0.00    -0.021 N 
ATOM      7  H11 UNL     1      32.876  26.816 -41.012  1.00  0.00     0.203 HD
HETATM    8  C19 UNL     1      30.962  27.234 -41.675  1.00  0.00     0.713 A 
HETATM    9  N12 UNL     1      30.857  28.377 -41.303  1.00  0.00    -0.232 N 
ATOM     10 1H12 UNL     1      31.656  28.785 -40.819  1.00  0.00     0.174 HD
ATOM     11 2H12 UNL     1      30.038  28.970 -41.438  1.00  0.00     0.174 HD
ENDROOT
BRANCH   1  12
HETATM   12  N1  UNL     1      28.766  27.512 -42.471  1.00  0.00    -0.257 N 
HETATM   13  C1  UNL     1      28.507  28.248 -43.692  1.00  0.00     0.181 C 
BRANCH  12  14
HETATM   14  C2  UNL     1      27.851  27.741 -41.419  1.00  0.00     0.137 A 
HETATM   15  C3  UNL     1      27.526  29.007 -41.077  1.00  0.00     0.054 A 
HETATM   16  C4  UNL     1      26.664  29.247 -40.037  1.00  0.00     0.036 A 
HETATM   17  C5  UNL     1      26.132  28.187 -39.349  1.00  0.00     0.059 A 
HETATM   18  N5  UNL     1      26.480  26.943 -39.721  1.00  0.00    -0.298 N 
HETATM   19  N6  UNL     1      27.330  26.719 -40.745  1.00  0.00    -0.284 N 
ATOM     20  H5  UNL     1      26.090  26.146 -39.217  1.00  0.00     0.187 HD
ATOM     21  H6  UNL     1      27.573  25.763 -41.003  1.00  0.00     0.188 HD
BRANCH  17  22
HETATM   22  C6  UNL     1      25.336  28.406 -38.156  1.00  0.00     0.018 A 
HETATM   23  C7  UNL     1      23.981  28.732 -38.339  1.00  0.00     0.097 A 
HETATM   24  C8  UNL     1      23.215  28.963 -37.242  1.00  0.00     0.290 A 
HETATM   25  O1  UNL     1      21.999  29.261 -37.317  1.00  0.00    -0.260 OA
HETATM   26  O2  UNL     1      23.726  28.888 -36.025  1.00  0.00    -0.257 OA
HETATM   27  C9  UNL     1      24.961  28.596 -35.783  1.00  0.00     0.183 A 
HETATM   28  N2  UNL     1      25.406  28.544 -34.524  1.00  0.00    -0.169 N 
HETATM   29  C12 UNL     1      25.823  28.341 -36.868  1.00  0.00     0.097 A 
HETATM   30  C10 UNL     1      26.707  28.251 -34.247  1.00  0.00     0.680 A 
ATOM     31  H2  UNL     1      24.761  28.728 -33.757  1.00  0.00     0.186 HD
HETATM   32  N4  UNL     1      27.528  28.013 -35.307  1.00  0.00    -0.155 N 
HETATM   33  C11 UNL     1      27.113  28.055 -36.578  1.00  0.00     0.275 A 
ATOM     34  H4  UNL     1      28.507  27.793 -35.123  1.00  0.00     0.187 HD
HETATM   35  O3  UNL     1      27.950  27.826 -37.508  1.00  0.00    -0.267 OA
BRANCH  30  36
HETATM   36  N3  UNL     1      27.116  28.213 -33.098  1.00  0.00    -0.234 N 
ATOM     37  H32 UNL     1      27.460  27.348 -32.680  1.00  0.00     0.174 HD
ATOM     38  H31 UNL     1      27.134  29.050 -32.515  1.00  0.00     0.174 HD
ENDBRANCH  30  36
ENDBRANCH  17  22
ENDBRANCH  12  14
ENDBRANCH   1  12
BRANCH   2  39
HETATM   39  C14 UNL     1      28.716  24.838 -43.496  1.00  0.00     0.393 C 
BRANCH  39  40
HETATM   40  O4  UNL     1      27.752  24.286 -42.686  1.00  0.00    -0.364 OA
ATOM     41  H4  UNL     1      27.323  23.514 -43.036  1.00  0.00     0.212 HD
ENDBRANCH  39  40
BRANCH  39  42
HETATM   42  N8  UNL     1      29.246  23.713 -44.306  1.00  0.00    -0.013 N 
ATOM     43  H82 UNL     1      30.263  23.661 -44.273  1.00  0.00     0.283 HD
ATOM     44  H81 UNL     1      29.039  22.806 -43.886  1.00  0.00     0.283 HD
BRANCH  42  45
HETATM   45  C15 UNL     1      28.750  23.811 -45.658  1.00  0.00     0.353 C 
BRANCH  45  46
HETATM   46  O5  UNL     1      28.635  22.478 -46.126  1.00  0.00    -0.368 OA
ATOM     47  H5  UNL     1      27.709  22.267 -46.087  1.00  0.00     0.212 HD
ENDBRANCH  45  46
BRANCH  45  48
HETATM   48  C16 UNL     1      29.779  24.453 -46.563  1.00  0.00     0.198 C 
BRANCH  48  49
HETATM   49  O6  UNL     1      30.661  23.406 -46.917  1.00  0.00    -0.389 OA
ATOM     50  H6  UNL     1      30.229  22.949 -47.629  1.00  0.00     0.210 HD
ENDBRANCH  48  49
BRANCH  48  51
HETATM   51  C17 UNL     1      29.196  24.928 -47.879  1.00  0.00     0.200 C 
BRANCH  51  52
HETATM   52  O7  UNL     1      28.488  23.918 -48.493  1.00  0.00    -0.398 OA
ATOM     53  H7  UNL     1      27.673  24.248 -48.851  1.00  0.00     0.209 HD
ENDBRANCH  51  52
ENDBRANCH  48  51
ENDBRANCH  45  48
ENDBRANCH  42  45
ENDBRANCH  39  42
ENDBRANCH   2  39
BRANCH   5  54
HETATM   54  N10 UNL     1      33.154  24.490 -41.730  1.00  0.00    -0.234 N 
ATOM     55 2H10 UNL     1      33.046  23.516 -41.451  1.00  0.00     0.174 HD
ATOM     56 1H10 UNL     1      34.107  24.844 -41.821  1.00  0.00     0.174 HD
ENDBRANCH   5  54
TORSDOF 14
ENDMDL
MODEL 2
REMARK VINA RESULT: -6.976939820      3.027      4.684
REMARK  14 active torsions:
REMARK  status: ('A' for Active; 'I' for Inactive)
REMARK    1  A    between atoms: N1_2  and  C2_3 
REMARK    2  A    between atoms: N1_2  and  N7_28 
REMARK    3  A    between atoms: C5_6  and  C6_7 
REMARK    4  A    between atoms: C10_15  and  N3_16 
REMARK    5  A    between atoms: C13_29  and  C14_30 
REMARK    6  A    between atoms: C14_30  and  O4_31 
REMARK    7  A    between atoms: C14_30  and  N8_33 
REMARK    8  A    between atoms: N8_33  and  C15_36 
REMARK    9  A    between atoms: C15_36  and  O5_37 
REMARK   10  A    between atoms: C15_36  and  C16_39 
REMARK   11  A    between atoms: C16_39  and  O6_40 
REMARK   12  A    between atoms: C16_39  and  C17_42 
REMARK   13  A    between atoms: C17_42  and  O7_43 
REMARK   14  A    between atoms: C18_47  and  N10_48 
ROOT
HETATM    1  N7  UNL     1      29.845  26.628 -42.346  1.00  0.00    -0.065 N 
HETATM    2  C13 UNL     1      30.854  26.880 -41.511  1.00  0.00     0.194 A 
HETATM    3  N9  UNL     1      31.850  25.977 -41.512  1.00  0.00    -0.173 N 
ATOM      4  H9  UNL     1      32.632  26.152 -40.879  1.00  0.00     0.185 HD
HETATM    5  C18 UNL     1      31.914  24.878 -42.257  1.00  0.00     0.692 A 
HETATM    6  N11 UNL     1      30.884  24.646 -43.090  1.00  0.00    -0.021 N 
ATOM      7  H11 UNL     1      30.896  23.813 -43.679  1.00  0.00     0.203 HD
HETATM    8  C19 UNL     1      29.819  25.502 -43.166  1.00  0.00     0.713 A 
HETATM    9  N12 UNL     1      28.863  25.367 -43.888  1.00  0.00    -0.232 N 
ATOM     10 1H12 UNL     1      28.844  24.543 -44.489  1.00  0.00     0.174 HD
ATOM     11 2H12 UNL     1      28.069  26.006 -43.945  1.00  0.00     0.174 HD
ENDROOT
BRANCH   1  12
HETATM   12  N1  UNL     1      28.757  27.485 -42.478  1.00  0.00    -0.257 N 
HETATM   13  C1  UNL     1      28.521  28.242 -43.690  1.00  0.00     0.181 C 
BRANCH  12  14
HETATM   14  C2  UNL     1      27.837  27.717 -41.430  1.00  0.00     0.137 A 
HETATM   15  C3  UNL     1      27.507  28.984 -41.094  1.00  0.00     0.054 A 
HETATM   16  C4  UNL     1      26.641  29.226 -40.059  1.00  0.00     0.036 A 
HETATM   17  C5  UNL     1      26.111  28.168 -39.367  1.00  0.00     0.059 A 
HETATM   18  N5  UNL     1      26.463  26.923 -39.733  1.00  0.00    -0.298 N 
HETATM   19  N6  UNL     1      27.316  26.697 -40.753  1.00  0.00    -0.284 N 
ATOM     20  H5  UNL     1      26.074  26.127 -39.226  1.00  0.00     0.187 HD
ATOM     21  H6  UNL     1      27.563  25.740 -41.006  1.00  0.00     0.188 HD
BRANCH  17  22
HETATM   22  C6  UNL     1      25.311  28.390 -38.178  1.00  0.00     0.018 A 
HETATM   23  C7  UNL     1      23.954  28.709 -38.366  1.00  0.00     0.097 A 
HETATM   24  C8  UNL     1      23.184  28.942 -37.274  1.00  0.00     0.290 A 
HETATM   25  O1  UNL     1      21.967  29.235 -37.353  1.00  0.00    -0.260 OA
HETATM   26  O2  UNL     1      23.691  28.877 -36.054  1.00  0.00    -0.257 OA
HETATM   27  C9  UNL     1      24.927  28.591 -35.807  1.00  0.00     0.183 A 
HETATM   28  N2  UNL     1      25.369  28.549 -34.546  1.00  0.00    -0.169 N 
HETATM   29  C12 UNL     1      25.794  28.335 -36.888  1.00  0.00     0.097 A 
HETATM   30  C10 UNL     1      26.670  28.263 -34.264  1.00  0.00     0.680 A 
ATOM     31  H2  UNL     1      24.720  28.734 -33.782  1.00  0.00     0.186 HD
HETATM   32  N4  UNL     1      27.495  28.023 -35.320  1.00  0.00    -0.155 N 
HETATM   33  C11 UNL     1      27.084  28.055 -36.593  1.00  0.00     0.275 A 
ATOM     34  H4  UNL     1      28.475  27.808 -35.132  1.00  0.00     0.187 HD
HETATM   35  O3  UNL     1      27.924  27.825 -37.519  1.00  0.00    -0.267 OA
BRANCH  30  36
HETATM   36  N3  UNL     1      27.076  28.233 -33.114  1.00  0.00    -0.234 N 
ATOM     37  H32 UNL     1      26.753  27.529 -32.450  1.00  0.00     0.174 HD
ATOM     38  H31 UNL     1      27.760  28.911 -32.777  1.00  0.00     0.174 HD
ENDBRANCH  30  36
ENDBRANCH  17  22
ENDBRANCH  12  14
ENDBRANCH   1  12
BRANCH   2  39
HETATM   39  C14 UNL     1      30.871  28.072 -40.638  1.00  0.00     0.393 C 
BRANCH  39  40
HETATM   40  O4  UNL     1      32.087  28.706 -40.537  1.00  0.00    -0.364 OA
ATOM     41  H4  UNL     1      32.131  29.562 -40.947  1.00  0.00     0.212 HD
ENDBRANCH  39  40
BRANCH  39  42
HETATM   42  N8  UNL     1      30.559  27.591 -39.269  1.00  0.00    -0.013 N 
ATOM     43  H82 UNL     1      29.902  28.204 -38.786  1.00  0.00     0.283 HD
ATOM     44  H81 UNL     1      29.990  26.744 -39.279  1.00  0.00     0.283 HD
BRANCH  42  45
HETATM   45  C15 UNL     1      31.783  27.413 -38.525  1.00  0.00     0.353 C 
BRANCH  45  46
HETATM   46  O5  UNL     1      31.955  26.012 -38.391  1.00  0.00    -0.368 OA
ATOM     47  H5  UNL     1      32.197  25.866 -37.483  1.00  0.00     0.212 HD
ENDBRANCH  45  46
BRANCH  45  48
HETATM   48  C16 UNL     1      31.632  27.923 -37.109  1.00  0.00     0.198 C 
BRANCH  48  49
HETATM   49  O6  UNL     1      30.544  28.825 -37.157  1.00  0.00    -0.389 OA
ATOM     50  H6  UNL     1      30.934  29.687 -37.073  1.00  0.00     0.210 HD
ENDBRANCH  48  49
BRANCH  48  51
HETATM   51  C17 UNL     1      31.197  26.846 -36.134  1.00  0.00     0.200 C 
BRANCH  51  52
HETATM   52  O7  UNL     1      29.982  26.312 -36.507  1.00  0.00    -0.398 OA
ATOM     53  H7  UNL     1      30.053  25.868 -37.344  1.00  0.00     0.209 HD
ENDBRANCH  51  52
ENDBRANCH  48  51
ENDBRANCH  45  48
ENDBRANCH  42  45
ENDBRANCH  39  42
ENDBRANCH   2  39
BRANCH   5  54
HETATM   54  N10 UNL     1      32.871  24.029 -42.246  1.00  0.00    -0.234 N 
ATOM     55 2H10 UNL     1      33.122  23.588 -43.131  1.00  0.00     0.174 HD
ATOM     56 1H10 UNL     1      33.408  23.754 -41.423  1.00  0.00     0.174 HD
ENDBRANCH   5  54
TORSDOF 14
ENDMDL
MODEL 3
REMARK VINA RESULT: -6.972899869      4.281     10.763
REMARK  14 active torsions:
REMARK  status: ('A' for Active; 'I' for Inactive)
REMARK    1  A    between atoms: N1_2  and  C2_3 
REMARK    2  A    between atoms: N1_2  and  N7_28 
REMARK    3  A    between atoms: C5_6  and  C6_7 
REMARK    4  A    between atoms: C10_15  and  N3_16 
REMARK    5  A    between atoms: C13_29  and  C14_30 
REMARK    6  A    between atoms: C14_30  and  O4_31 
REMARK    7  A    between atoms: C14_30  and  N8_33 
REMARK    8  A    between atoms: N8_33  and  C15_36 
REMARK    9  A    between atoms: C15_36  and  O5_37 
REMARK   10  A    between atoms: C15_36  and  C16_39 
REMARK   11  A    between atoms: C16_39  and  O6_40 
REMARK   12  A    between atoms: C16_39  and  C17_42 
REMARK   13  A    between atoms: C17_42  and  O7_43 
REMARK   14  A    between atoms: C18_47  and  N10_48 
ROOT
HETATM    1  N7  UNL     1      28.816  25.706 -42.914  1.00  0.00    -0.065 N 
HETATM    2  C13 UNL     1      28.929  26.994 -42.585  1.00  0.00     0.194 A 
HETATM    3  N9  UNL     1      27.943  27.487 -41.814  1.00  0.00    -0.173 N 
ATOM      4  H9  UNL     1      28.011  28.470 -41.552  1.00  0.00     0.185 HD
HETATM    5  C18 UNL     1      26.889  26.815 -41.363  1.00  0.00     0.692 A 
HETATM    6  N11 UNL     1      26.798  25.518 -41.709  1.00  0.00    -0.021 N 
ATOM      7  H11 UNL     1      26.004  24.968 -41.382  1.00  0.00     0.203 HD
HETATM    8  C19 UNL     1      27.748  24.919 -42.491  1.00  0.00     0.713 A 
HETATM    9  N12 UNL     1      27.740  23.765 -42.841  1.00  0.00    -0.232 N 
ATOM     10 1H12 UNL     1      26.958  23.188 -42.531  1.00  0.00     0.174 HD
ATOM     11 2H12 UNL     1      28.449  23.318 -43.424  1.00  0.00     0.174 HD
ENDROOT
BRANCH   1  12
HETATM   12  N1  UNL     1      29.772  25.049 -43.682  1.00  0.00    -0.257 N 
HETATM   13  C1  UNL     1      30.731  24.136 -43.094  1.00  0.00     0.181 C 
BRANCH  12  14
HETATM   14  C2  UNL     1      29.910  25.259 -45.073  1.00  0.00     0.137 A 
HETATM   15  C3  UNL     1      28.887  24.958 -45.903  1.00  0.00     0.054 A 
HETATM   16  C4  UNL     1      29.017  25.127 -47.257  1.00  0.00     0.036 A 
HETATM   17  C5  UNL     1      30.197  25.608 -47.763  1.00  0.00     0.059 A 
HETATM   18  N5  UNL     1      31.191  25.898 -46.904  1.00  0.00    -0.298 N 
HETATM   19  N6  UNL     1      31.051  25.726 -45.573  1.00  0.00    -0.284 N 
ATOM     20  H5  UNL     1      32.074  26.257 -47.268  1.00  0.00     0.187 HD
ATOM     21  H6  UNL     1      31.824  25.956 -44.948  1.00  0.00     0.188 HD
BRANCH  17  22
HETATM   22  C6  UNL     1      30.420  25.660 -49.195  1.00  0.00     0.018 A 
HETATM   23  C7  UNL     1      29.886  26.760 -49.889  1.00  0.00     0.097 A 
HETATM   24  C8  UNL     1      30.061  26.827 -51.234  1.00  0.00     0.290 A 
HETATM   25  O1  UNL     1      29.615  27.771 -51.928  1.00  0.00    -0.260 OA
HETATM   26  O2  UNL     1      30.715  25.880 -51.885  1.00  0.00    -0.257 OA
HETATM   27  C9  UNL     1      31.230  24.842 -51.313  1.00  0.00     0.183 A 
HETATM   28  N2  UNL     1      31.873  23.922 -52.039  1.00  0.00    -0.169 N 
HETATM   29  C12 UNL     1      31.093  24.698 -49.918  1.00  0.00     0.097 A 
HETATM   30  C10 UNL     1      32.412  22.815 -51.458  1.00  0.00     0.680 A 
ATOM     31  H2  UNL     1      31.962  24.053 -53.046  1.00  0.00     0.186 HD
HETATM   32  N4  UNL     1      32.267  22.689 -50.110  1.00  0.00    -0.155 N 
HETATM   33  C11 UNL     1      31.631  23.591 -49.355  1.00  0.00     0.275 A 
ATOM     34  H4  UNL     1      32.661  21.866 -49.655  1.00  0.00     0.187 HD
HETATM   35  O3  UNL     1      31.535  23.390 -48.103  1.00  0.00    -0.267 OA
BRANCH  30  36
HETATM   36  N3  UNL     1      32.992  21.972 -52.122  1.00  0.00    -0.234 N 
ATOM     37  H32 UNL     1      33.055  22.040 -53.138  1.00  0.00     0.174 HD
ATOM     38  H31 UNL     1      33.442  21.169 -51.681  1.00  0.00     0.174 HD
ENDBRANCH  30  36
ENDBRANCH  17  22
ENDBRANCH  12  14
ENDBRANCH   1  12
BRANCH   2  39
HETATM   39  C14 UNL     1      30.061  27.826 -43.044  1.00  0.00     0.393 C 
BRANCH  39  40
HETATM   40  O4  UNL     1      30.850  28.343 -42.044  1.00  0.00    -0.364 OA
ATOM     41  H4  UNL     1      30.619  29.219 -41.759  1.00  0.00     0.212 HD
ENDBRANCH  39  40
BRANCH  39  42
HETATM   42  N8  UNL     1      29.466  29.000 -43.728  1.00  0.00    -0.013 N 
ATOM     43  H82 UNL     1      28.447  28.966 -43.732  1.00  0.00     0.283 HD
ATOM     44  H81 UNL     1      29.582  29.859 -43.190  1.00  0.00     0.283 HD
BRANCH  42  45
HETATM   45  C15 UNL     1      30.011  29.115 -45.059  1.00  0.00     0.353 C 
BRANCH  45  46
HETATM   46  O5  UNL     1      31.299  28.524 -45.003  1.00  0.00    -0.368 OA
ATOM     47  H5  UNL     1      31.534  28.326 -45.902  1.00  0.00     0.212 HD
ENDBRANCH  45  46
BRANCH  45  48
HETATM   48  C16 UNL     1      30.264  30.563 -45.415  1.00  0.00     0.198 C 
BRANCH  48  49
HETATM   49  O6  UNL     1      29.239  31.287 -44.763  1.00  0.00    -0.389 OA
ATOM     50  H6  UNL     1      29.677  31.764 -44.069  1.00  0.00     0.210 HD
ENDBRANCH  48  49
BRANCH  48  51
HETATM   51  C17 UNL     1      31.552  31.102 -44.825  1.00  0.00     0.200 C 
BRANCH  51  52
HETATM   52  O7  UNL     1      31.541  30.996 -43.451  1.00  0.00    -0.398 OA
ATOM     53  H7  UNL     1      31.976  30.199 -43.172  1.00  0.00     0.209 HD
ENDBRANCH  51  52
ENDBRANCH  48  51
ENDBRANCH  45  48
ENDBRANCH  42  45
ENDBRANCH  39  42
ENDBRANCH   2  39
BRANCH   5  54
HETATM   54  N10 UNL     1      25.959  27.299 -40.628  1.00  0.00    -0.234 N 
ATOM     55 2H10 UNL     1      26.231  27.731 -39.746  1.00  0.00     0.174 HD
ATOM     56 1H10 UNL     1      24.964  27.291 -40.852  1.00  0.00     0.174 HD
ENDBRANCH   5  54
TORSDOF 14
ENDMDL
MODEL 4
REMARK VINA RESULT: -6.937409869      1.766      2.654
REMARK  14 active torsions:
REMARK  status: ('A' for Active; 'I' for Inactive)
REMARK    1  A    between atoms: N1_2  and  C2_3 
REMARK    2  A    between atoms: N1_2  and  N7_28 
REMARK    3  A    between atoms: C5_6  and  C6_7 
REMARK    4  A    between atoms: C10_15  and  N3_16 
REMARK    5  A    between atoms: C13_29  and  C14_30 
REMARK    6  A    between atoms: C14_30  and  O4_31 
REMARK    7  A    between atoms: C14_30  and  N8_33 
REMARK    8  A    between atoms: N8_33  and  C15_36 
REMARK    9  A    between atoms: C15_36  and  O5_37 
REMARK   10  A    between atoms: C15_36  and  C16_39 
REMARK   11  A    between atoms: C16_39  and  O6_40 
REMARK   12  A    between atoms: C16_39  and  C17_42 
REMARK   13  A    between atoms: C17_42  and  O7_43 
REMARK   14  A    between atoms: C18_47  and  N10_48 
ROOT
HETATM    1  N7  UNL     1      30.265  26.434 -43.305  1.00  0.00    -0.065 N 
HETATM    2  C13 UNL     1      30.029  25.303 -43.972  1.00  0.00     0.194 A 
HETATM    3  N9  UNL     1      31.072  24.460 -44.075  1.00  0.00    -0.173 N 
ATOM      4  H9  UNL     1      30.912  23.589 -44.582  1.00  0.00     0.185 HD
HETATM    5  C18 UNL     1      32.289  24.653 -43.580  1.00  0.00     0.692 A 
HETATM    6  N11 UNL     1      32.502  25.801 -42.912  1.00  0.00    -0.021 N 
ATOM      7  H11 UNL     1      33.424  25.986 -42.517  1.00  0.00     0.203 HD
HETATM    8  C19 UNL     1      31.508  26.728 -42.751  1.00  0.00     0.713 A 
HETATM    9  N12 UNL     1      31.618  27.776 -42.165  1.00  0.00    -0.232 N 
ATOM     10 1H12 UNL     1      32.528  27.991 -41.759  1.00  0.00     0.174 HD
ATOM     11 2H12 UNL     1      30.877  28.468 -42.044  1.00  0.00     0.174 HD
ENDROOT
BRANCH   1  12
HETATM   12  N1  UNL     1      29.277  27.391 -43.092  1.00  0.00    -0.257 N 
HETATM   13  C1  UNL     1      28.912  28.356 -44.109  1.00  0.00     0.181 C 
BRANCH  12  14
HETATM   14  C2  UNL     1      28.598  27.525 -41.859  1.00  0.00     0.137 A 
HETATM   15  C3  UNL     1      28.838  28.598 -41.073  1.00  0.00     0.054 A 
HETATM   16  C4  UNL     1      28.211  28.725 -39.860  1.00  0.00     0.036 A 
HETATM   17  C5  UNL     1      27.335  27.753 -39.452  1.00  0.00     0.059 A 
HETATM   18  N5  UNL     1      27.123  26.701 -40.264  1.00  0.00    -0.298 N 
HETATM   19  N6  UNL     1      27.746  26.586 -41.455  1.00  0.00    -0.284 N 
ATOM     20  H5  UNL     1      26.472  25.971 -39.972  1.00  0.00     0.187 HD
ATOM     21  H6  UNL     1      27.563  25.777 -42.048  1.00  0.00     0.188 HD
BRANCH  17  22
HETATM   22  C6  UNL     1      26.769  27.782 -38.118  1.00  0.00     0.018 A 
HETATM   23  C7  UNL     1      27.587  27.339 -37.063  1.00  0.00     0.097 A 
HETATM   24  C8  UNL     1      27.078  27.334 -35.804  1.00  0.00     0.290 A 
HETATM   25  O1  UNL     1      27.738  26.953 -34.809  1.00  0.00    -0.260 OA
HETATM   26  O2  UNL     1      25.840  27.734 -35.567  1.00  0.00    -0.257 OA
HETATM   27  C9  UNL     1      25.033  28.151 -36.487  1.00  0.00     0.183 A 
HETATM   28  N2  UNL     1      23.792  28.533 -36.171  1.00  0.00    -0.169 N 
HETATM   29  C12 UNL     1      25.485  28.187 -37.821  1.00  0.00     0.097 A 
HETATM   30  C10 UNL     1      22.922  28.964 -37.125  1.00  0.00     0.680 A 
ATOM     31  H2  UNL     1      23.492  28.502 -35.197  1.00  0.00     0.186 HD
HETATM   32  N4  UNL     1      23.373  28.987 -38.410  1.00  0.00    -0.155 N 
HETATM   33  C11 UNL     1      24.609  28.613 -38.759  1.00  0.00     0.275 A 
ATOM     34  H4  UNL     1      22.737  29.305 -39.142  1.00  0.00     0.187 HD
HETATM   35  O3  UNL     1      24.945  28.660 -39.984  1.00  0.00    -0.267 OA
BRANCH  30  36
HETATM   36  N3  UNL     1      21.786  29.305 -36.838  1.00  0.00    -0.234 N 
ATOM     37  H32 UNL     1      21.438  29.256 -35.880  1.00  0.00     0.174 HD
ATOM     38  H31 UNL     1      21.145  29.659 -37.548  1.00  0.00     0.174 HD
ENDBRANCH  30  36
ENDBRANCH  17  22
ENDBRANCH  12  14
ENDBRANCH   1  12
BRANCH   2  39
HETATM   39  C14 UNL     1      28.709  25.001 -44.564  1.00  0.00     0.393 C 
BRANCH  39  40
HETATM   40  O4  UNL     1      27.816  24.387 -43.720  1.00  0.00    -0.364 OA
ATOM     41  H4  UNL     1      27.548  23.513 -43.981  1.00  0.00     0.212 HD
ENDBRANCH  39  40
BRANCH  39  42
HETATM   42  N8  UNL     1      28.955  24.030 -45.659  1.00  0.00    -0.013 N 
ATOM     43  H82 UNL     1      29.812  23.497 -45.514  1.00  0.00     0.283 HD
ATOM     44  H81 UNL     1      28.294  23.253 -45.639  1.00  0.00     0.283 HD
BRANCH  42  45
HETATM   45  C15 UNL     1      28.950  24.715 -46.928  1.00  0.00     0.353 C 
BRANCH  45  46
HETATM   46  O5  UNL     1      28.322  23.832 -47.843  1.00  0.00    -0.368 OA
ATOM     47  H5  UNL     1      27.645  24.342 -48.274  1.00  0.00     0.212 HD
ENDBRANCH  45  46
BRANCH  45  48
HETATM   48  C16 UNL     1      30.358  24.883 -47.456  1.00  0.00     0.198 C 
BRANCH  48  49
HETATM   49  O6  UNL     1      31.031  23.695 -47.091  1.00  0.00    -0.389 OA
ATOM     50  H6  UNL     1      30.416  22.995 -47.276  1.00  0.00     0.210 HD
ENDBRANCH  48  49
BRANCH  48  51
HETATM   51  C17 UNL     1      30.423  24.915 -48.970  1.00  0.00     0.200 C 
BRANCH  51  52
HETATM   52  O7  UNL     1      30.730  23.668 -49.471  1.00  0.00    -0.398 OA
ATOM     53  H7  UNL     1      31.079  23.108 -48.788  1.00  0.00     0.209 HD
ENDBRANCH  51  52
ENDBRANCH  48  51
ENDBRANCH  45  48
ENDBRANCH  42  45
ENDBRANCH  39  42
ENDBRANCH   2  39
BRANCH   5  54
HETATM   54  N10 UNL     1      33.271  23.838 -43.686  1.00  0.00    -0.234 N 
ATOM     55 2H10 UNL     1      33.272  23.018 -43.080  1.00  0.00     0.174 HD
ATOM     56 1H10 UNL     1      34.056  23.939 -44.330  1.00  0.00     0.174 HD
ENDBRANCH   5  54
TORSDOF 14
ENDMDL
MODEL 5
REMARK VINA RESULT: -6.923928856      3.835      9.515
REMARK  14 active torsions:
REMARK  status: ('A' for Active; 'I' for Inactive)
REMARK    1  A    between atoms: N1_2  and  C2_3 
REMARK    2  A    between atoms: N1_2  and  N7_28 
REMARK    3  A    between atoms: C5_6  and  C6_7 
REMARK    4  A    between atoms: C10_15  and  N3_16 
REMARK    5  A    between atoms: C13_29  and  C14_30 
REMARK    6  A    between atoms: C14_30  and  O4_31 
REMARK    7  A    between atoms: C14_30  and  N8_33 
REMARK    8  A    between atoms: N8_33  and  C15_36 
REMARK    9  A    between atoms: C15_36  and  O5_37 
REMARK   10  A    between atoms: C15_36  and  C16_39 
REMARK   11  A    between atoms: C16_39  and  O6_40 
REMARK   12  A    between atoms: C16_39  and  C17_42 
REMARK   13  A    between atoms: C17_42  and  O7_43 
REMARK   14  A    between atoms: C18_47  and  N10_48 
ROOT
HETATM    1  N7  UNL     1      29.217  27.491 -41.922  1.00  0.00    -0.065 N 
HETATM    2  C13 UNL     1      28.094  26.859 -42.266  1.00  0.00     0.194 A 
HETATM    3  N9  UNL     1      26.987  27.231 -41.598  1.00  0.00    -0.173 N 
ATOM      4  H9  UNL     1      26.118  26.758 -41.847  1.00  0.00     0.185 HD
HETATM    5  C18 UNL     1      26.918  28.155 -40.647  1.00  0.00     0.692 A 
HETATM    6  N11 UNL     1      28.064  28.779 -40.317  1.00  0.00    -0.021 N 
ATOM      7  H11 UNL     1      28.052  29.495 -39.591  1.00  0.00     0.203 HD
HETATM    8  C19 UNL     1      29.247  28.474 -40.935  1.00  0.00     0.713 A 
HETATM    9  N12 UNL     1      30.312  28.988 -40.700  1.00  0.00    -0.232 N 
ATOM     10 1H12 UNL     1      30.334  29.708 -39.978  1.00  0.00     0.174 HD
ATOM     11 2H12 UNL     1      31.193  28.761 -41.161  1.00  0.00     0.174 HD
ENDROOT
BRANCH   1  12
HETATM   12  N1  UNL     1      30.435  27.235 -42.543  1.00  0.00    -0.257 N 
HETATM   13  C1  UNL     1      31.579  26.733 -41.808  1.00  0.00     0.181 C 
BRANCH  12  14
HETATM   14  C2  UNL     1      30.661  27.490 -43.914  1.00  0.00     0.137 A 
HETATM   15  C3  UNL     1      30.097  28.571 -44.498  1.00  0.00     0.054 A 
HETATM   16  C4  UNL     1      30.281  28.815 -45.835  1.00  0.00     0.036 A 
HETATM   17  C5  UNL     1      31.045  27.950 -46.575  1.00  0.00     0.059 A 
HETATM   18  N5  UNL     1      31.590  26.888 -45.957  1.00  0.00    -0.298 N 
HETATM   19  N6  UNL     1      31.402  26.658 -44.641  1.00  0.00    -0.284 N 
ATOM     20  H5  UNL     1      32.162  26.238 -46.498  1.00  0.00     0.187 HD
ATOM     21  H6  UNL     1      31.829  25.842 -44.202  1.00  0.00     0.188 HD
BRANCH  17  22
HETATM   22  C6  UNL     1      31.139  28.096 -48.015  1.00  0.00     0.018 A 
HETATM   23  C7  UNL     1      31.868  29.194 -48.504  1.00  0.00     0.097 A 
HETATM   24  C8  UNL     1      31.957  29.369 -49.847  1.00  0.00     0.290 A 
HETATM   25  O1  UNL     1      32.586  30.322 -50.366  1.00  0.00    -0.260 OA
HETATM   26  O2  UNL     1      31.370  28.531 -50.685  1.00  0.00    -0.257 OA
HETATM   27  C9  UNL     1      30.684  27.503 -50.307  1.00  0.00     0.183 A 
HETATM   28  N2  UNL     1      30.115  26.703 -51.213  1.00  0.00    -0.169 N 
HETATM   29  C12 UNL     1      30.545  27.251 -48.928  1.00  0.00     0.097 A 
HETATM   30  C10 UNL     1      29.377  25.623 -50.837  1.00  0.00     0.680 A 
ATOM     31  H2  UNL     1      30.236  26.905 -52.205  1.00  0.00     0.186 HD
HETATM   32  N4  UNL     1      29.248  25.396 -49.500  1.00  0.00    -0.155 N 
HETATM   33  C11 UNL     1      29.806  26.176 -48.568  1.00  0.00     0.275 A 
ATOM     34  H4  UNL     1      28.697  24.593 -49.195  1.00  0.00     0.187 HD
HETATM   35  O3  UNL     1      29.628  25.895 -47.341  1.00  0.00    -0.267 OA
BRANCH  30  36
HETATM   36  N3  UNL     1      28.850  24.897 -51.664  1.00  0.00    -0.234 N 
ATOM     37  H32 UNL     1      29.071  23.903 -51.724  1.00  0.00     0.174 HD
ATOM     38  H31 UNL     1      28.161  25.260 -52.323  1.00  0.00     0.174 HD
ENDBRANCH  30  36
ENDBRANCH  17  22
ENDBRANCH  12  14
ENDBRANCH   1  12
BRANCH   2  39
HETATM   39  C14 UNL     1      28.071  25.811 -43.309  1.00  0.00     0.393 C 
BRANCH  39  40
HETATM   40  O4  UNL     1      27.142  25.997 -44.304  1.00  0.00    -0.364 OA
ATOM     41  H4  UNL     1      27.497  26.054 -45.183  1.00  0.00     0.212 HD
ENDBRANCH  39  40
BRANCH  39  42
HETATM   42  N8  UNL     1      27.678  24.553 -42.627  1.00  0.00    -0.013 N 
ATOM     43  H82 UNL     1      27.799  24.609 -41.616  1.00  0.00     0.283 HD
ATOM     44  H81 UNL     1      26.668  24.404 -42.646  1.00  0.00     0.283 HD
BRANCH  42  45
HETATM   45  C15 UNL     1      28.400  23.443 -43.200  1.00  0.00     0.353 C 
BRANCH  45  46
HETATM   46  O5  UNL     1      28.810  22.641 -42.104  1.00  0.00    -0.368 OA
ATOM     47  H5  UNL     1      29.694  22.357 -42.305  1.00  0.00     0.212 HD
ENDBRANCH  45  46
BRANCH  45  48
HETATM   48  C16 UNL     1      29.689  23.912 -43.839  1.00  0.00     0.198 C 
BRANCH  48  49
HETATM   49  O6  UNL     1      30.717  23.401 -43.013  1.00  0.00    -0.389 OA
ATOM     50  H6  UNL     1      31.328  24.119 -42.907  1.00  0.00     0.210 HD
ENDBRANCH  48  49
BRANCH  48  51
HETATM   51  C17 UNL     1      29.938  23.287 -45.198  1.00  0.00     0.200 C 
BRANCH  51  52
HETATM   52  O7  UNL     1      28.749  23.055 -45.853  1.00  0.00    -0.398 OA
ATOM     53  H7  UNL     1      28.014  23.139 -45.256  1.00  0.00     0.209 HD
ENDBRANCH  51  52
ENDBRANCH  48  51
ENDBRANCH  45  48
ENDBRANCH  42  45
ENDBRANCH  39  42
ENDBRANCH   2  39
BRANCH   5  54
HETATM   54  N10 UNL     1      25.855  28.499 -40.022  1.00  0.00    -0.234 N 
ATOM     55 2H10 UNL     1      25.318  27.763 -39.564  1.00  0.00     0.174 HD
ATOM     56 1H10 UNL     1      25.499  29.451 -39.941  1.00  0.00     0.174 HD
ENDBRANCH   5  54
TORSDOF 14
ENDMDL
