MODEL 1
REMARK VINA RESULT: -6.603729157      0.000      0.000
REMARK  17 active torsions:
REMARK  status: ('A' for Active; 'I' for Inactive)
REMARK    1  A    between atoms: O1_2  and  C2_3 
REMARK       I    between atoms: C2_3  and  N1_5 
REMARK    2  A    between atoms: N1_5  and  C3_7 
REMARK    3  A    between atoms: C4_8  and  O3_9 
REMARK    4  A    between atoms: C5_11  and  N2_12 
REMARK    5  A    between atoms: C8_15  and  C9_16 
REMARK    6  A    between atoms: C11_21  and  C12_22 
REMARK    7  A    between atoms: C12_22  and  O7_23 
REMARK    8  A    between atoms: C12_22  and  O8_25 
REMARK    9  A    between atoms: C13_27  and  C14_28 
REMARK   10  A    between atoms: C14_28  and  O9_29 
REMARK   11  A    between atoms: C14_28  and  O10_31 
REMARK   12  A    between atoms: N3_36  and  N4_37 
REMARK   13  A    between atoms: C16_40  and  N5_41 
REMARK   14  A    between atoms: N5_41  and  C17_43 
REMARK   15  A    between atoms: C17_43  and  O13_44 
REMARK   16  A    between atoms: C17_43  and  C18_46 
REMARK   17  A    between atoms: C18_46  and  O14_47 
ROOT
HETATM    1  C3  UNL     1      31.137  27.332 -49.015  1.00  0.00     0.119 A 
HETATM    2  C4  UNL     1      31.125  27.022 -47.684  1.00  0.00     0.131 A 
HETATM    3  C5  UNL     1      30.265  26.037 -47.241  1.00  0.00     0.162 A 
HETATM    4  C15 UNL     1      29.471  25.422 -48.158  1.00  0.00     0.299 A 
HETATM    5  O12 UNL     1      28.697  24.532 -47.744  1.00  0.00    -0.263 OA
HETATM    6  N3  UNL     1      29.467  25.715 -49.495  1.00  0.00    -0.206 N 
HETATM    7  C16 UNL     1      30.302  26.672 -49.925  1.00  0.00     0.158 A 
ENDROOT
BRANCH   3   8
HETATM    8  N2  UNL     1      30.240  25.702 -45.855  1.00  0.00    -0.249 N 
HETATM    9  C6  UNL     1      29.477  26.503 -44.888  1.00  0.00     0.171 C 
HETATM   10  C7  UNL     1      29.719  25.634 -43.619  1.00  0.00     0.046 C 
HETATM   11  C8  UNL     1      29.447  26.469 -42.405  1.00  0.00     0.170 C 
HETATM   12  C11 UNL     1      28.528  24.897 -43.337  1.00  0.00     0.125 C 
HETATM   13  C13 UNL     1      31.052  25.221 -43.949  1.00  0.00     0.219 C 
HETATM   14  C10 UNL     1      28.010  26.125 -42.607  1.00  0.00     0.152 C 
HETATM   15  O6  UNL     1      26.957  26.625 -42.309  1.00  0.00    -0.296 OA
HETATM   16  O11 UNL     1      30.871  24.666 -45.238  1.00  0.00    -0.266 OA
BRANCH  11  17
HETATM   17  C9  UNL     1      29.753  27.914 -42.516  1.00  0.00     0.185 C 
HETATM   18  O4  UNL     1      30.959  28.309 -42.425  1.00  0.00    -0.647 OA
HETATM   19  O5  UNL     1      28.798  28.895 -42.717  1.00  0.00    -0.647 OA
ENDBRANCH  11  17
BRANCH  12  20
HETATM   20  C12 UNL     1      28.366  23.732 -42.460  1.00  0.00     0.266 C 
BRANCH  20  21
HETATM   21  O7  UNL     1      27.072  23.229 -42.337  1.00  0.00    -0.371 OA
ATOM     22  H7  UNL     1      26.974  22.449 -41.803  1.00  0.00     0.212 HD
ENDBRANCH  20  21
BRANCH  20  23
HETATM   23  O8  UNL     1      29.292  22.708 -42.691  1.00  0.00    -0.371 OA
ATOM     24  H8  UNL     1      29.047  22.111 -43.388  1.00  0.00     0.212 HD
ENDBRANCH  20  23
ENDBRANCH  12  20
BRANCH  13  25
HETATM   25  C14 UNL     1      31.962  24.519 -43.064  1.00  0.00     0.286 C 
BRANCH  25  26
HETATM   26  O9  UNL     1      32.888  23.825 -43.897  1.00  0.00    -0.369 OA
ATOM     27  H9  UNL     1      32.820  22.905 -43.671  1.00  0.00     0.212 HD
ENDBRANCH  25  26
BRANCH  25  28
HETATM   28  O10 UNL     1      32.768  25.487 -42.420  1.00  0.00    -0.369 OA
ATOM     29  H10 UNL     1      33.538  25.627 -42.960  1.00  0.00     0.212 HD
ENDBRANCH  25  28
ENDBRANCH  13  25
ENDBRANCH   3   8
BRANCH   2  30
HETATM   30  O3  UNL     1      31.978  27.708 -46.803  1.00  0.00    -0.356 OA
ATOM     31  H3  UNL     1      31.754  28.587 -46.520  1.00  0.00     0.218 HD
ENDBRANCH   2  30
BRANCH   1  32
HETATM   32  N1  UNL     1      32.025  28.347 -49.467  1.00  0.00    -0.297 N 
HETATM   33  C2  UNL     1      31.806  29.723 -49.210  1.00  0.00     0.364 C 
HETATM   34  O2  UNL     1      30.794  30.073 -48.561  1.00  0.00    -0.238 OA
ATOM     35  H1  UNL     1      32.852  28.074 -49.997  1.00  0.00     0.171 HD
BRANCH  33  36
HETATM   36  O1  UNL     1      32.687  30.680 -49.662  1.00  0.00    -0.309 OA
HETATM   37  C1  UNL     1      33.583  30.417 -50.734  1.00  0.00     0.215 C 
ENDBRANCH  33  36
ENDBRANCH   1  32
BRANCH   6  38
HETATM   38  N4  UNL     1      28.583  25.010 -50.286  1.00  0.00    -0.334 N 
ATOM     39  H42 UNL     1      27.730  25.387 -50.701  1.00  0.00     0.177 HD
ATOM     40  H41 UNL     1      28.796  24.027 -50.454  1.00  0.00     0.177 HD
ENDBRANCH   6  38
BRANCH   7  41
HETATM   41  N5  UNL     1      30.366  27.065 -51.266  1.00  0.00    -0.345 N 
ATOM     42  H5  UNL     1      29.598  27.656 -51.581  1.00  0.00     0.163 HD
BRANCH  41  43
HETATM   43  C17 UNL     1      31.343  26.763 -52.258  1.00  0.00     0.242 C 
BRANCH  43  44
HETATM   44  O13 UNL     1      30.904  27.072 -53.569  1.00  0.00    -0.375 OA
ATOM     45  H13 UNL     1      29.977  26.907 -53.694  1.00  0.00     0.212 HD
ENDBRANCH  43  44
BRANCH  43  46
HETATM   46  C18 UNL     1      31.600  25.237 -52.330  1.00  0.00     0.217 C 
BRANCH  46  47
HETATM   47  O14 UNL     1      30.451  24.569 -52.701  1.00  0.00    -0.397 OA
ATOM     48  H14 UNL     1      30.215  24.781 -53.597  1.00  0.00     0.209 HD
ENDBRANCH  46  47
ENDBRANCH  43  46
ENDBRANCH  41  43
ENDBRANCH   7  41
TORSDOF 17
ENDMDL
MODEL 2
REMARK VINA RESULT: -6.434100787      0.946      1.280
REMARK  17 active torsions:
REMARK  status: ('A' for Active; 'I' for Inactive)
REMARK    1  A    between atoms: O1_2  and  C2_3 
REMARK       I    between atoms: C2_3  and  N1_5 
REMARK    2  A    between atoms: N1_5  and  C3_7 
REMARK    3  A    between atoms: C4_8  and  O3_9 
REMARK    4  A    between atoms: C5_11  and  N2_12 
REMARK    5  A    between atoms: C8_15  and  C9_16 
REMARK    6  A    between atoms: C11_21  and  C12_22 
REMARK    7  A    between atoms: C12_22  and  O7_23 
REMARK    8  A    between atoms: C12_22  and  O8_25 
REMARK    9  A    between atoms: C13_27  and  C14_28 
REMARK   10  A    between atoms: C14_28  and  O9_29 
REMARK   11  A    between atoms: C14_28  and  O10_31 
REMARK   12  A    between atoms: N3_36  and  N4_37 
REMARK   13  A    between atoms: C16_40  and  N5_41 
REMARK   14  A    between atoms: N5_41  and  C17_43 
REMARK   15  A    between atoms: C17_43  and  O13_44 
REMARK   16  A    between atoms: C17_43  and  C18_46 
REMARK   17  A    between atoms: C18_46  and  O14_47 
ROOT
HETATM    1  C3  UNL     1      31.303  27.126 -49.209  1.00  0.00     0.119 A 
HETATM    2  C4  UNL     1      31.201  26.962 -47.856  1.00  0.00     0.131 A 
HETATM    3  C5  UNL     1      30.262  26.076 -47.364  1.00  0.00     0.162 A 
HETATM    4  C15 UNL     1      29.484  25.410 -48.258  1.00  0.00     0.299 A 
HETATM    5  O12 UNL     1      28.638  24.611 -47.800  1.00  0.00    -0.263 OA
HETATM    6  N3  UNL     1      29.568  25.558 -49.616  1.00  0.00    -0.206 N 
HETATM    7  C16 UNL     1      30.480  26.418 -50.093  1.00  0.00     0.158 A 
ENDROOT
BRANCH   3   8
HETATM    8  N2  UNL     1      30.144  25.894 -45.956  1.00  0.00    -0.249 N 
HETATM    9  C6  UNL     1      29.727  26.992 -45.074  1.00  0.00     0.171 C 
HETATM   10  C7  UNL     1      29.669  26.208 -43.731  1.00  0.00     0.046 C 
HETATM   11  C8  UNL     1      29.728  27.188 -42.598  1.00  0.00     0.170 C 
HETATM   12  C11 UNL     1      28.299  25.965 -43.404  1.00  0.00     0.125 C 
HETATM   13  C13 UNL     1      30.766  25.326 -44.002  1.00  0.00     0.219 C 
HETATM   14  C10 UNL     1      28.259  27.356 -42.791  1.00  0.00     0.152 C 
HETATM   15  O6  UNL     1      27.454  28.217 -42.555  1.00  0.00    -0.296 OA
HETATM   16  O11 UNL     1      30.380  24.760 -45.241  1.00  0.00    -0.266 OA
BRANCH  11  17
HETATM   17  C9  UNL     1      30.520  28.417 -42.830  1.00  0.00     0.185 C 
HETATM   18  O4  UNL     1      31.787  28.379 -42.714  1.00  0.00    -0.647 OA
HETATM   19  O5  UNL     1      29.972  29.640 -43.173  1.00  0.00    -0.647 OA
ENDBRANCH  11  17
BRANCH  12  20
HETATM   20  C12 UNL     1      27.752  25.012 -42.431  1.00  0.00     0.266 C 
BRANCH  20  21
HETATM   21  O7  UNL     1      26.660  25.453 -41.685  1.00  0.00    -0.371 OA
ATOM     22  H7  UNL     1      25.804  25.319 -42.076  1.00  0.00     0.212 HD
ENDBRANCH  20  21
BRANCH  20  23
HETATM   23  O8  UNL     1      27.534  23.729 -42.946  1.00  0.00    -0.371 OA
ATOM     24  H8  UNL     1      26.637  23.426 -42.871  1.00  0.00     0.212 HD
ENDBRANCH  20  23
ENDBRANCH  12  20
BRANCH  13  25
HETATM   25  C14 UNL     1      31.385  24.429 -43.046  1.00  0.00     0.286 C 
BRANCH  25  26
HETATM   26  O9  UNL     1      30.523  23.298 -42.931  1.00  0.00    -0.369 OA
ATOM     27  H9  UNL     1      31.067  22.528 -43.057  1.00  0.00     0.212 HD
ENDBRANCH  25  26
BRANCH  25  28
HETATM   28  O10 UNL     1      32.546  23.890 -43.649  1.00  0.00    -0.369 OA
ATOM     29  H10 UNL     1      32.923  23.264 -43.042  1.00  0.00     0.212 HD
ENDBRANCH  25  28
ENDBRANCH  13  25
ENDBRANCH   3   8
BRANCH   2  30
HETATM   30  O3  UNL     1      32.046  27.692 -47.002  1.00  0.00    -0.356 OA
ATOM     31  H3  UNL     1      31.796  27.823 -46.094  1.00  0.00     0.218 HD
ENDBRANCH   2  30
BRANCH   1  32
HETATM   32  N1  UNL     1      32.271  28.039 -49.710  1.00  0.00    -0.297 N 
HETATM   33  C2  UNL     1      32.004  29.420 -49.881  1.00  0.00     0.364 C 
HETATM   34  O2  UNL     1      30.873  29.867 -49.584  1.00  0.00    -0.238 OA
ATOM     35  H1  UNL     1      33.196  27.686 -49.956  1.00  0.00     0.171 HD
BRANCH  33  36
HETATM   36  O1  UNL     1      32.966  30.276 -50.369  1.00  0.00    -0.309 OA
HETATM   37  C1  UNL     1      33.640  30.015 -51.593  1.00  0.00     0.215 C 
ENDBRANCH  33  36
ENDBRANCH   1  32
BRANCH   6  38
HETATM   38  N4  UNL     1      28.688  24.820 -50.381  1.00  0.00    -0.334 N 
ATOM     39  H42 UNL     1      27.671  24.905 -50.359  1.00  0.00     0.177 HD
ATOM     40  H41 UNL     1      29.091  24.124 -51.007  1.00  0.00     0.177 HD
ENDBRANCH   6  38
BRANCH   7  41
HETATM   41  N5  UNL     1      30.638  26.661 -51.462  1.00  0.00    -0.345 N 
ATOM     42  H5  UNL     1      30.233  27.535 -51.795  1.00  0.00     0.163 HD
BRANCH  41  43
HETATM   43  C17 UNL     1      31.280  25.873 -52.459  1.00  0.00     0.242 C 
BRANCH  43  44
HETATM   44  O13 UNL     1      30.567  24.687 -52.761  1.00  0.00    -0.375 OA
ATOM     45  H13 UNL     1      31.105  24.036 -53.196  1.00  0.00     0.212 HD
ENDBRANCH  43  44
BRANCH  43  46
HETATM   46  C18 UNL     1      32.639  25.335 -51.944  1.00  0.00     0.217 C 
BRANCH  46  47
HETATM   47  O14 UNL     1      33.570  26.351 -51.882  1.00  0.00    -0.397 OA
ATOM     48  H14 UNL     1      33.882  26.466 -50.992  1.00  0.00     0.209 HD
ENDBRANCH  46  47
ENDBRANCH  43  46
ENDBRANCH  41  43
ENDBRANCH   7  41
TORSDOF 17
ENDMDL
MODEL 3
REMARK VINA RESULT: -6.221822774      4.851      8.025
REMARK  17 active torsions:
REMARK  status: ('A' for Active; 'I' for Inactive)
REMARK    1  A    between atoms: O1_2  and  C2_3 
REMARK       I    between atoms: C2_3  and  N1_5 
REMARK    2  A    between atoms: N1_5  and  C3_7 
REMARK    3  A    between atoms: C4_8  and  O3_9 
REMARK    4  A    between atoms: C5_11  and  N2_12 
REMARK    5  A    between atoms: C8_15  and  C9_16 
REMARK    6  A    between atoms: C11_21  and  C12_22 
REMARK    7  A    between atoms: C12_22  and  O7_23 
REMARK    8  A    between atoms: C12_22  and  O8_25 
REMARK    9  A    between atoms: C13_27  and  C14_28 
REMARK   10  A    between atoms: C14_28  and  O9_29 
REMARK   11  A    between atoms: C14_28  and  O10_31 
REMARK   12  A    between atoms: N3_36  and  N4_37 
REMARK   13  A    between atoms: C16_40  and  N5_41 
REMARK   14  A    between atoms: N5_41  and  C17_43 
REMARK   15  A    between atoms: C17_43  and  O13_44 
REMARK   16  A    between atoms: C17_43  and  C18_46 
REMARK   17  A    between atoms: C18_46  and  O14_47 
ROOT
HETATM    1  C3  UNL     1      28.043  26.767 -42.903  1.00  0.00     0.119 A 
HETATM    2  C4  UNL     1      27.529  26.798 -41.638  1.00  0.00     0.131 A 
HETATM    3  C5  UNL     1      27.870  27.848 -40.808  1.00  0.00     0.162 A 
HETATM    4  C15 UNL     1      28.705  28.803 -41.298  1.00  0.00     0.299 A 
HETATM    5  O12 UNL     1      29.006  29.748 -40.537  1.00  0.00    -0.263 OA
HETATM    6  N3  UNL     1      29.231  28.793 -42.562  1.00  0.00    -0.206 N 
HETATM    7  C16 UNL     1      28.900  27.774 -43.366  1.00  0.00     0.158 A 
ENDROOT
BRANCH   3   8
HETATM    8  N2  UNL     1      27.342  27.894 -39.485  1.00  0.00    -0.249 N 
HETATM    9  C6  UNL     1      27.507  29.080 -38.635  1.00  0.00     0.171 C 
HETATM   10  C7  UNL     1      26.665  28.614 -37.412  1.00  0.00     0.046 C 
HETATM   11  C8  UNL     1      27.055  29.433 -36.219  1.00  0.00     0.170 C 
HETATM   12  C11 UNL     1      25.413  29.302 -37.432  1.00  0.00     0.125 C 
HETATM   13  C13 UNL     1      27.001  27.222 -37.495  1.00  0.00     0.219 C 
HETATM   14  C10 UNL     1      26.104  30.461 -36.731  1.00  0.00     0.152 C 
HETATM   15  O6  UNL     1      25.982  31.651 -36.616  1.00  0.00    -0.296 OA
HETATM   16  O11 UNL     1      26.648  26.921 -38.832  1.00  0.00    -0.266 OA
BRANCH  11  17
HETATM   17  C9  UNL     1      28.466  29.880 -36.158  1.00  0.00     0.185 C 
HETATM   18  O4  UNL     1      29.361  29.077 -35.740  1.00  0.00    -0.647 OA
HETATM   19  O5  UNL     1      28.896  31.140 -36.531  1.00  0.00    -0.647 OA
ENDBRANCH  11  17
BRANCH  12  20
HETATM   20  C12 UNL     1      24.186  28.979 -36.695  1.00  0.00     0.266 C 
BRANCH  20  21
HETATM   21  O7  UNL     1      23.260  30.011 -36.557  1.00  0.00    -0.371 OA
ATOM     22  H7  UNL     1      22.501  29.973 -37.127  1.00  0.00     0.212 HD
ENDBRANCH  20  21
BRANCH  20  23
HETATM   23  O8  UNL     1      23.568  27.790 -37.103  1.00  0.00    -0.371 OA
ATOM     24  H8  UNL     1      23.085  27.346 -36.416  1.00  0.00     0.212 HD
ENDBRANCH  20  23
ENDBRANCH  12  20
BRANCH  13  25
HETATM   25  C14 UNL     1      26.686  26.217 -36.500  1.00  0.00     0.286 C 
BRANCH  25  26
HETATM   26  O9  UNL     1      25.576  25.477 -37.005  1.00  0.00    -0.369 OA
ATOM     27  H9  UNL     1      25.593  24.632 -36.572  1.00  0.00     0.212 HD
ENDBRANCH  25  26
BRANCH  25  28
HETATM   28  O10 UNL     1      27.734  25.267 -36.500  1.00  0.00    -0.369 OA
ATOM     29  H10 UNL     1      27.594  24.682 -35.764  1.00  0.00     0.212 HD
ENDBRANCH  25  28
ENDBRANCH  13  25
ENDBRANCH   3   8
BRANCH   2  30
HETATM   30  O3  UNL     1      26.672  25.768 -41.210  1.00  0.00    -0.356 OA
ATOM     31  H3  UNL     1      26.516  25.641 -40.281  1.00  0.00     0.218 HD
ENDBRANCH   2  30
BRANCH   1  32
HETATM   32  N1  UNL     1      27.688  25.684 -43.754  1.00  0.00    -0.297 N 
HETATM   33  C2  UNL     1      28.462  24.501 -43.848  1.00  0.00     0.364 C 
HETATM   34  O2  UNL     1      29.503  24.393 -43.162  1.00  0.00    -0.238 OA
ATOM     35  H1  UNL     1      26.842  25.762 -44.318  1.00  0.00     0.171 HD
BRANCH  33  36
HETATM   36  O1  UNL     1      28.087  23.471 -44.682  1.00  0.00    -0.309 OA
HETATM   37  C1  UNL     1      28.760  23.229 -45.911  1.00  0.00     0.215 C 
ENDBRANCH  33  36
ENDBRANCH   1  32
BRANCH   6  38
HETATM   38  N4  UNL     1      30.080  29.830 -42.892  1.00  0.00    -0.334 N 
ATOM     39  H42 UNL     1      29.942  30.484 -43.663  1.00  0.00     0.177 HD
ATOM     40  H41 UNL     1      30.921  29.938 -42.325  1.00  0.00     0.177 HD
ENDBRANCH   6  38
BRANCH   7  41
HETATM   41  N5  UNL     1      29.395  27.654 -44.669  1.00  0.00    -0.345 N 
ATOM     42  H5  UNL     1      28.783  28.018 -45.399  1.00  0.00     0.163 HD
BRANCH  41  43
HETATM   43  C17 UNL     1      30.624  27.100 -45.130  1.00  0.00     0.242 C 
BRANCH  43  44
HETATM   44  O13 UNL     1      31.410  26.566 -44.080  1.00  0.00    -0.375 OA
ATOM     45  H13 UNL     1      32.212  26.161 -44.391  1.00  0.00     0.212 HD
ENDBRANCH  43  44
BRANCH  43  46
HETATM   46  C18 UNL     1      31.537  28.204 -45.718  1.00  0.00     0.217 C 
BRANCH  46  47
HETATM   47  O14 UNL     1      30.843  29.389 -45.851  1.00  0.00    -0.397 OA
ATOM     48  H14 UNL     1      31.419  30.082 -46.155  1.00  0.00     0.209 HD
ENDBRANCH  46  47
ENDBRANCH  43  46
ENDBRANCH  41  43
ENDBRANCH   7  41
TORSDOF 17
ENDMDL
MODEL 4
REMARK VINA RESULT: -6.136603109      2.056      4.289
REMARK  17 active torsions:
REMARK  status: ('A' for Active; 'I' for Inactive)
REMARK    1  A    between atoms: O1_2  and  C2_3 
REMARK       I    between atoms: C2_3  and  N1_5 
REMARK    2  A    between atoms: N1_5  and  C3_7 
REMARK    3  A    between atoms: C4_8  and  O3_9 
REMARK    4  A    between atoms: C5_11  and  N2_12 
REMARK    5  A    between atoms: C8_15  and  C9_16 
REMARK    6  A    between atoms: C11_21  and  C12_22 
REMARK    7  A    between atoms: C12_22  and  O7_23 
REMARK    8  A    between atoms: C12_22  and  O8_25 
REMARK    9  A    between atoms: C13_27  and  C14_28 
REMARK   10  A    between atoms: C14_28  and  O9_29 
REMARK   11  A    between atoms: C14_28  and  O10_31 
REMARK   12  A    between atoms: N3_36  and  N4_37 
REMARK   13  A    between atoms: C16_40  and  N5_41 
REMARK   14  A    between atoms: N5_41  and  C17_43 
REMARK   15  A    between atoms: C17_43  and  O13_44 
REMARK   16  A    between atoms: C17_43  and  C18_46 
REMARK   17  A    between atoms: C18_46  and  O14_47 
ROOT
HETATM    1  C3  UNL     1      31.229  24.631 -49.081  1.00  0.00     0.119 A 
HETATM    2  C4  UNL     1      30.856  24.613 -47.767  1.00  0.00     0.131 A 
HETATM    3  C5  UNL     1      30.677  25.816 -47.111  1.00  0.00     0.162 A 
HETATM    4  C15 UNL     1      30.883  26.962 -47.813  1.00  0.00     0.299 A 
HETATM    5  O12 UNL     1      30.717  28.044 -47.209  1.00  0.00    -0.263 OA
HETATM    6  N3  UNL     1      31.256  27.004 -49.130  1.00  0.00    -0.206 N 
HETATM    7  C16 UNL     1      31.429  25.837 -49.765  1.00  0.00     0.158 A 
ENDROOT
BRANCH   3   8
HETATM    8  N2  UNL     1      30.288  25.813 -45.740  1.00  0.00    -0.249 N 
HETATM    9  C6  UNL     1      31.190  26.301 -44.687  1.00  0.00     0.171 C 
HETATM   10  C7  UNL     1      30.227  26.170 -43.472  1.00  0.00     0.046 C 
HETATM   11  C8  UNL     1      31.040  26.153 -42.213  1.00  0.00     0.170 C 
HETATM   12  C11 UNL     1      29.762  27.473 -43.115  1.00  0.00     0.125 C 
HETATM   13  C13 UNL     1      29.543  24.993 -43.924  1.00  0.00     0.219 C 
HETATM   14  C10 UNL     1      31.037  27.642 -42.305  1.00  0.00     0.152 C 
HETATM   15  O6  UNL     1      31.744  28.529 -41.905  1.00  0.00    -0.296 OA
HETATM   16  O11 UNL     1      29.107  25.391 -45.211  1.00  0.00    -0.266 OA
BRANCH  11  17
HETATM   17  C9  UNL     1      32.384  25.537 -42.303  1.00  0.00     0.185 C 
HETATM   18  O4  UNL     1      32.491  24.269 -42.339  1.00  0.00    -0.647 OA
HETATM   19  O5  UNL     1      33.565  26.255 -42.352  1.00  0.00    -0.647 OA
ENDBRANCH  11  17
BRANCH  12  20
HETATM   20  C12 UNL     1      28.621  27.830 -42.265  1.00  0.00     0.266 C 
BRANCH  20  21
HETATM   21  O7  UNL     1      28.604  29.134 -41.772  1.00  0.00    -0.371 OA
ATOM     22  H7  UNL     1      27.842  29.378 -41.260  1.00  0.00     0.212 HD
ENDBRANCH  20  21
BRANCH  20  23
HETATM   23  O8  UNL     1      27.376  27.468 -42.795  1.00  0.00    -0.371 OA
ATOM     24  H8  UNL     1      26.981  28.131 -43.349  1.00  0.00     0.212 HD
ENDBRANCH  20  23
ENDBRANCH  12  20
BRANCH  13  25
HETATM   25  C14 UNL     1      28.612  24.204 -43.141  1.00  0.00     0.286 C 
BRANCH  25  26
HETATM   26  O9  UNL     1      27.624  23.720 -44.048  1.00  0.00    -0.369 OA
ATOM     27  H9  UNL     1      26.894  23.418 -43.519  1.00  0.00     0.212 HD
ENDBRANCH  25  26
BRANCH  25  28
HETATM   28  O10 UNL     1      29.282  23.026 -42.734  1.00  0.00    -0.369 OA
ATOM     29  H10 UNL     1      29.562  23.149 -41.834  1.00  0.00     0.212 HD
ENDBRANCH  25  28
ENDBRANCH  13  25
ENDBRANCH   3   8
BRANCH   2  30
HETATM   30  O3  UNL     1      30.665  23.382 -47.115  1.00  0.00    -0.356 OA
ATOM     31  H3  UNL     1      31.070  23.231 -46.269  1.00  0.00     0.218 HD
ENDBRANCH   2  30
BRANCH   1  32
HETATM   32  N1  UNL     1      31.411  23.390 -49.751  1.00  0.00    -0.297 N 
HETATM   33  C2  UNL     1      32.586  22.611 -49.611  1.00  0.00     0.364 C 
HETATM   34  O2  UNL     1      33.509  23.021 -48.870  1.00  0.00    -0.238 OA
ATOM     35  H1  UNL     1      30.666  23.047 -50.358  1.00  0.00     0.171 HD
BRANCH  33  36
HETATM   36  O1  UNL     1      32.728  21.413 -50.275  1.00  0.00    -0.309 OA
HETATM   37  C1  UNL     1      33.255  20.263 -49.627  1.00  0.00     0.215 C 
ENDBRANCH  33  36
ENDBRANCH   1  32
BRANCH   6  38
HETATM   38  N4  UNL     1      31.442  28.253 -49.686  1.00  0.00    -0.334 N 
ATOM     39  H42 UNL     1      32.341  28.725 -49.792  1.00  0.00     0.177 HD
ATOM     40  H41 UNL     1      30.608  28.748 -50.002  1.00  0.00     0.177 HD
ENDBRANCH   6  38
BRANCH   7  41
HETATM   41  N5  UNL     1      31.828  25.763 -51.104  1.00  0.00    -0.345 N 
ATOM     42  H5  UNL     1      32.836  25.761 -51.255  1.00  0.00     0.163 HD
BRANCH  41  43
HETATM   43  C17 UNL     1      31.038  25.690 -52.288  1.00  0.00     0.242 C 
BRANCH  43  44
HETATM   44  O13 UNL     1      29.958  24.781 -52.169  1.00  0.00    -0.375 OA
ATOM     45  H13 UNL     1      29.116  25.187 -52.341  1.00  0.00     0.212 HD
ENDBRANCH  43  44
BRANCH  43  46
HETATM   46  C18 UNL     1      31.860  25.098 -53.460  1.00  0.00     0.217 C 
BRANCH  46  47
HETATM   47  O14 UNL     1      31.102  24.194 -54.175  1.00  0.00    -0.397 OA
ATOM     48  H14 UNL     1      31.251  24.296 -55.108  1.00  0.00     0.209 HD
ENDBRANCH  46  47
ENDBRANCH  43  46
ENDBRANCH  41  43
ENDBRANCH   7  41
TORSDOF 17
ENDMDL
MODEL 5
REMARK VINA RESULT: -6.128852530      3.883      6.153
REMARK  17 active torsions:
REMARK  status: ('A' for Active; 'I' for Inactive)
REMARK    1  A    between atoms: O1_2  and  C2_3 
REMARK       I    between atoms: C2_3  and  N1_5 
REMARK    2  A    between atoms: N1_5  and  C3_7 
REMARK    3  A    between atoms: C4_8  and  O3_9 
REMARK    4  A    between atoms: C5_11  and  N2_12 
REMARK    5  A    between atoms: C8_15  and  C9_16 
REMARK    6  A    between atoms: C11_21  and  C12_22 
REMARK    7  A    between atoms: C12_22  and  O7_23 
REMARK    8  A    between atoms: C12_22  and  O8_25 
REMARK    9  A    between atoms: C13_27  and  C14_28 
REMARK   10  A    between atoms: C14_28  and  O9_29 
REMARK   11  A    between atoms: C14_28  and  O10_31 
REMARK   12  A    between atoms: N3_36  and  N4_37 
REMARK   13  A    between atoms: C16_40  and  N5_41 
REMARK   14  A    between atoms: N5_41  and  C17_43 
REMARK   15  A    between atoms: C17_43  and  O13_44 
REMARK   16  A    between atoms: C17_43  and  C18_46 
REMARK   17  A    between atoms: C18_46  and  O14_47 
ROOT
HETATM    1  C3  UNL     1      29.811  27.260 -43.879  1.00  0.00     0.119 A 
HETATM    2  C4  UNL     1      29.557  27.729 -42.621  1.00  0.00     0.131 A 
HETATM    3  C5  UNL     1      28.584  27.106 -41.864  1.00  0.00     0.162 A 
HETATM    4  C15 UNL     1      27.925  26.052 -42.414  1.00  0.00     0.299 A 
HETATM    5  O12 UNL     1      27.047  25.497 -41.719  1.00  0.00    -0.263 OA
HETATM    6  N3  UNL     1      28.162  25.565 -43.671  1.00  0.00    -0.206 N 
HETATM    7  C16 UNL     1      29.107  26.169 -44.405  1.00  0.00     0.158 A 
ENDROOT
BRANCH   3   8
HETATM    8  N2  UNL     1      28.308  27.584 -40.550  1.00  0.00    -0.249 N 
HETATM    9  C6  UNL     1      27.309  28.634 -40.311  1.00  0.00     0.171 C 
HETATM   10  C7  UNL     1      27.357  28.658 -38.756  1.00  0.00     0.046 C 
HETATM   11  C8  UNL     1      26.786  29.957 -38.276  1.00  0.00     0.170 C 
HETATM   12  C11 UNL     1      26.193  27.999 -38.253  1.00  0.00     0.125 C 
HETATM   13  C13 UNL     1      28.758  28.373 -38.626  1.00  0.00     0.219 C 
HETATM   14  C10 UNL     1      25.448  29.313 -38.420  1.00  0.00     0.152 C 
HETATM   15  O6  UNL     1      24.323  29.701 -38.591  1.00  0.00    -0.296 OA
HETATM   16  O11 UNL     1      28.880  27.183 -39.382  1.00  0.00    -0.266 OA
BRANCH  11  17
HETATM   17  C9  UNL     1      26.997  31.134 -39.150  1.00  0.00     0.185 C 
HETATM   18  O4  UNL     1      28.050  31.837 -39.013  1.00  0.00    -0.647 OA
HETATM   19  O5  UNL     1      26.111  31.539 -40.132  1.00  0.00    -0.647 OA
ENDBRANCH  11  17
BRANCH  12  20
HETATM   20  C12 UNL     1      25.948  27.495 -36.897  1.00  0.00     0.266 C 
BRANCH  20  21
HETATM   21  O7  UNL     1      24.619  27.475 -36.478  1.00  0.00    -0.371 OA
ATOM     22  H7  UNL     1      24.468  27.628 -35.553  1.00  0.00     0.212 HD
ENDBRANCH  20  21
BRANCH  20  23
HETATM   23  O8  UNL     1      26.592  26.285 -36.610  1.00  0.00    -0.371 OA
ATOM     24  H8  UNL     1      26.243  25.828 -35.854  1.00  0.00     0.212 HD
ENDBRANCH  20  23
ENDBRANCH  12  20
BRANCH  13  25
HETATM   25  C14 UNL     1      29.522  28.441 -37.396  1.00  0.00     0.286 C 
BRANCH  25  26
HETATM   26  O9  UNL     1      29.475  27.139 -36.814  1.00  0.00    -0.369 OA
ATOM     27  H9  UNL     1      30.188  27.096 -36.187  1.00  0.00     0.212 HD
ENDBRANCH  25  26
BRANCH  25  28
HETATM   28  O10 UNL     1      30.885  28.590 -37.744  1.00  0.00    -0.369 OA
ATOM     29  H10 UNL     1      31.196  29.399 -37.355  1.00  0.00     0.212 HD
ENDBRANCH  25  28
ENDBRANCH  13  25
ENDBRANCH   3   8
BRANCH   2  30
HETATM   30  O3  UNL     1      30.285  28.827 -42.129  1.00  0.00    -0.356 OA
ATOM     31  H3  UNL     1      30.925  28.695 -41.439  1.00  0.00     0.218 HD
ENDBRANCH   2  30
BRANCH   1  32
HETATM   32  N1  UNL     1      30.814  27.904 -44.654  1.00  0.00    -0.297 N 
HETATM   33  C2  UNL     1      30.628  29.183 -45.234  1.00  0.00     0.364 C 
HETATM   34  O2  UNL     1      29.540  29.781 -45.066  1.00  0.00    -0.238 OA
ATOM     35  H1  UNL     1      31.703  27.426 -44.798  1.00  0.00     0.171 HD
BRANCH  33  36
HETATM   36  O1  UNL     1      31.622  29.778 -45.978  1.00  0.00    -0.309 OA
HETATM   37  C1  UNL     1      31.430  30.102 -47.349  1.00  0.00     0.215 C 
ENDBRANCH  33  36
ENDBRANCH   1  32
BRANCH   6  38
HETATM   38  N4  UNL     1      27.388  24.499 -44.084  1.00  0.00    -0.334 N 
ATOM     39  H42 UNL     1      26.599  24.556 -44.728  1.00  0.00     0.177 HD
ATOM     40  H41 UNL     1      27.620  23.583 -43.699  1.00  0.00     0.177 HD
ENDBRANCH   6  38
BRANCH   7  41
HETATM   41  N5  UNL     1      29.417  25.766 -45.709  1.00  0.00    -0.345 N 
ATOM     42  H5  UNL     1      29.191  26.444 -46.436  1.00  0.00     0.163 HD
BRANCH  41  43
HETATM   43  C17 UNL     1      30.002  24.553 -46.173  1.00  0.00     0.242 C 
BRANCH  43  44
HETATM   44  O13 UNL     1      29.034  23.581 -46.528  1.00  0.00    -0.375 OA
ATOM     45  H13 UNL     1      29.374  22.694 -46.492  1.00  0.00     0.212 HD
ENDBRANCH  43  44
BRANCH  43  46
HETATM   46  C18 UNL     1      30.792  23.854 -45.038  1.00  0.00     0.217 C 
BRANCH  46  47
HETATM   47  O14 UNL     1      30.018  22.885 -44.434  1.00  0.00    -0.397 OA
ATOM     48  H14 UNL     1      29.598  22.337 -45.087  1.00  0.00     0.209 HD
ENDBRANCH  46  47
ENDBRANCH  43  46
ENDBRANCH  41  43
ENDBRANCH   7  41
TORSDOF 17
ENDMDL
