MODEL 1
REMARK VINA RESULT: -6.603585348      0.000      0.000
REMARK  17 active torsions:
REMARK  status: ('A' for Active; 'I' for Inactive)
REMARK    1  A    between atoms: C2_2  and  C3_4 
REMARK    2  A    between atoms: C3_4  and  C4_5 
REMARK    3  A    between atoms: C3_4  and  N1_8 
REMARK    4  A    between atoms: C4_5  and  O2_6 
REMARK    5  A    between atoms: N1_8  and  C5_10 
REMARK    6  A    between atoms: C5_10  and  C6_11 
REMARK    7  A    between atoms: C6_11  and  O3_12 
REMARK    8  A    between atoms: C6_11  and  O4_14 
REMARK    9  A    between atoms: O4_14  and  C7_15 
REMARK   10  A    between atoms: C8_16  and  N2_17 
REMARK   11  A    between atoms: C10_22  and  N3_23 
REMARK   12  A    between atoms: C11_27  and  O5_28 
REMARK   13  A    between atoms: C12_30  and  O6_31 
REMARK   14  A    between atoms: O6_31  and  C13_32 
REMARK   15  A    between atoms: C15_39  and  C16_40 
REMARK   16  A    between atoms: C17_42  and  N6_43 
REMARK   17  A    between atoms: C18_48  and  O7_49 
ROOT
HETATM    1  C7  UNL     1      30.917  25.112 -45.538  1.00  0.00     0.187 C 
HETATM    2  C8  UNL     1      32.471  24.750 -45.598  1.00  0.00     0.217 C 
HETATM    3  C9  UNL     1      32.906  24.305 -44.251  1.00  0.00     0.071 C 
HETATM    4  C10 UNL     1      32.614  25.223 -43.117  1.00  0.00     0.216 C 
HETATM    5  C11 UNL     1      31.154  25.607 -43.139  1.00  0.00     0.180 C 
HETATM    6  C12 UNL     1      30.880  26.182 -44.522  1.00  0.00     0.192 C 
ENDROOT
BRANCH   6   7
HETATM    7  O6  UNL     1      29.910  27.141 -44.546  1.00  0.00    -0.324 OA
BRANCH   7   8
HETATM    8  C13 UNL     1      29.082  27.461 -43.521  1.00  0.00     0.168 A 
HETATM    9  N4  UNL     1      28.973  28.499 -42.786  1.00  0.00    -0.336 N 
HETATM   10  C14 UNL     1      27.916  28.150 -41.939  1.00  0.00     0.344 A 
ATOM     11  H4  UNL     1      29.517  29.362 -42.810  1.00  0.00     0.164 HD
HETATM   12  N5  UNL     1      28.081  27.814 -40.558  1.00  0.00    -0.024 N 
HETATM   13  C19 UNL     1      27.979  26.870 -42.761  1.00  0.00     0.123 A 
HETATM   14  C15 UNL     1      27.093  26.804 -40.160  1.00  0.00     0.345 C 
ATOM     15  H52 UNL     1      29.035  27.517 -40.349  1.00  0.00     0.282 HD
ATOM     16  H51 UNL     1      28.046  28.638 -39.959  1.00  0.00     0.282 HD
HETATM   17  N8  UNL     1      26.289  26.371 -41.317  1.00  0.00    -0.102 NA
HETATM   18  N9  UNL     1      27.100  25.988 -42.431  1.00  0.00    -0.298 N 
ATOM     19  H9  UNL     1      26.992  25.098 -42.918  1.00  0.00     0.182 HD
BRANCH  14  20
HETATM   20  C16 UNL     1      26.144  27.367 -39.159  1.00  0.00     0.085 A 
HETATM   21  S1  UNL     1      25.916  27.038 -37.503  1.00  0.00    -0.051 SA
HETATM   22  C17 UNL     1      24.631  28.115 -37.206  1.00  0.00     0.144 A 
HETATM   23  N7  UNL     1      24.430  28.685 -38.392  1.00  0.00    -0.317 N 
HETATM   24  C18 UNL     1      25.191  28.318 -39.400  1.00  0.00     0.159 A 
ATOM     25  H7  UNL     1      23.704  29.391 -38.516  1.00  0.00     0.170 HD
BRANCH  22  26
HETATM   26  N6  UNL     1      23.977  28.346 -36.083  1.00  0.00    -0.380 N 
ATOM     27  H62 UNL     1      24.229  28.998 -35.341  1.00  0.00     0.158 HD
ATOM     28  H61 UNL     1      23.110  27.930 -35.743  1.00  0.00     0.158 HD
ENDBRANCH  22  26
BRANCH  24  29
HETATM   29  O7  UNL     1      25.023  28.894 -40.700  1.00  0.00    -0.345 OA
ATOM     30  H7  UNL     1      24.664  29.767 -40.812  1.00  0.00     0.219 HD
ENDBRANCH  24  29
ENDBRANCH  14  20
ENDBRANCH   7   8
ENDBRANCH   6   7
BRANCH   1  31
HETATM   31  O4  UNL     1      30.287  23.941 -45.173  1.00  0.00    -0.347 OA
BRANCH  31  32
HETATM   32  C6  UNL     1      29.083  23.712 -45.882  1.00  0.00     0.297 C 
BRANCH  32  33
HETATM   33  C5  UNL     1      28.843  24.631 -46.998  1.00  0.00     0.116 C 
BRANCH  33  34
HETATM   34  N1  UNL     1      28.929  24.240 -48.314  1.00  0.00    -0.385 N 
ATOM     35  H1  UNL     1      28.318  23.467 -48.579  1.00  0.00     0.159 HD
BRANCH  34  36
HETATM   36  C3  UNL     1      29.716  24.737 -49.323  1.00  0.00     0.173 C 
BRANCH  36  37
HETATM   37  C2  UNL     1      30.796  25.680 -49.131  1.00  0.00     0.147 C 
HETATM   38  C1  UNL     1      30.443  27.158 -49.085  1.00  0.00     0.093 C 
HETATM   39  O1  UNL     1      31.956  25.434 -49.003  1.00  0.00    -0.296 OA
ENDBRANCH  36  37
BRANCH  36  40
HETATM   40  C4  UNL     1      28.818  25.315 -50.485  1.00  0.00     0.196 C 
BRANCH  40  41
HETATM   41  O2  UNL     1      29.147  24.672 -51.654  1.00  0.00    -0.398 OA
ATOM     42  H2  UNL     1      30.079  24.780 -51.807  1.00  0.00     0.209 HD
ENDBRANCH  40  41
ENDBRANCH  36  40
ENDBRANCH  34  36
ENDBRANCH  33  34
ENDBRANCH  32  33
BRANCH  32  43
HETATM   43  O3  UNL     1      28.111  24.061 -44.874  1.00  0.00    -0.366 OA
ATOM     44  H3  UNL     1      27.526  23.315 -44.813  1.00  0.00     0.213 HD
ENDBRANCH  32  43
ENDBRANCH  31  32
ENDBRANCH   1  31
BRANCH   5  45
HETATM   45  O5  UNL     1      30.427  24.456 -42.869  1.00  0.00    -0.391 OA
ATOM     46  H5  UNL     1      30.563  23.864 -43.599  1.00  0.00     0.210 HD
ENDBRANCH   5  45
BRANCH   2  47
HETATM   47  N2  UNL     1      33.144  25.889 -46.136  1.00  0.00    -0.072 N 
ATOM     48  H23 UNL     1      33.172  25.894 -47.155  1.00  0.00     0.274 HD
ATOM     49  H22 UNL     1      32.621  26.757 -46.017  1.00  0.00     0.274 HD
ATOM     50  H21 UNL     1      34.069  25.917 -45.709  1.00  0.00     0.274 HD
ENDBRANCH   2  47
BRANCH   4  51
HETATM   51  N3  UNL     1      32.972  24.540 -41.883  1.00  0.00    -0.072 N 
ATOM     52  H33 UNL     1      32.428  23.691 -41.729  1.00  0.00     0.274 HD
ATOM     53  H32 UNL     1      33.893  24.105 -41.925  1.00  0.00     0.274 HD
ATOM     54  H31 UNL     1      32.886  25.209 -41.117  1.00  0.00     0.274 HD
ENDBRANCH   4  51
TORSDOF 17
ENDMDL
MODEL 2
REMARK VINA RESULT: -6.508944117      1.077      1.121
REMARK  17 active torsions:
REMARK  status: ('A' for Active; 'I' for Inactive)
REMARK    1  A    between atoms: C2_2  and  C3_4 
REMARK    2  A    between atoms: C3_4  and  C4_5 
REMARK    3  A    between atoms: C3_4  and  N1_8 
REMARK    4  A    between atoms: C4_5  and  O2_6 
REMARK    5  A    between atoms: N1_8  and  C5_10 
REMARK    6  A    between atoms: C5_10  and  C6_11 
REMARK    7  A    between atoms: C6_11  and  O3_12 
REMARK    8  A    between atoms: C6_11  and  O4_14 
REMARK    9  A    between atoms: O4_14  and  C7_15 
REMARK   10  A    between atoms: C8_16  and  N2_17 
REMARK   11  A    between atoms: C10_22  and  N3_23 
REMARK   12  A    between atoms: C11_27  and  O5_28 
REMARK   13  A    between atoms: C12_30  and  O6_31 
REMARK   14  A    between atoms: O6_31  and  C13_32 
REMARK   15  A    between atoms: C15_39  and  C16_40 
REMARK   16  A    between atoms: C17_42  and  N6_43 
REMARK   17  A    between atoms: C18_48  and  O7_49 
ROOT
HETATM    1  C7  UNL     1      30.752  25.142 -45.420  1.00  0.00     0.187 C 
HETATM    2  C8  UNL     1      32.344  25.024 -45.429  1.00  0.00     0.217 C 
HETATM    3  C9  UNL     1      32.794  24.570 -44.090  1.00  0.00     0.071 C 
HETATM    4  C10 UNL     1      32.322  25.363 -42.923  1.00  0.00     0.216 C 
HETATM    5  C11 UNL     1      30.822  25.522 -42.989  1.00  0.00     0.180 C 
HETATM    6  C12 UNL     1      30.514  26.132 -44.351  1.00  0.00     0.192 C 
ENDROOT
BRANCH   6   7
HETATM    7  O6  UNL     1      29.410  26.933 -44.368  1.00  0.00    -0.324 OA
BRANCH   7   8
HETATM    8  C13 UNL     1      28.691  27.319 -43.284  1.00  0.00     0.168 A 
HETATM    9  N4  UNL     1      28.629  28.413 -42.629  1.00  0.00    -0.336 N 
HETATM   10  C14 UNL     1      27.686  28.112 -41.641  1.00  0.00     0.344 A 
ATOM     11  H4  UNL     1      29.138  29.283 -42.786  1.00  0.00     0.164 HD
HETATM   12  N5  UNL     1      28.016  27.900 -40.265  1.00  0.00    -0.024 N 
HETATM   13  C19 UNL     1      27.701  26.768 -42.357  1.00  0.00     0.123 A 
HETATM   14  C15 UNL     1      27.113  26.903 -39.675  1.00  0.00     0.345 C 
ATOM     15  H52 UNL     1      28.997  27.645 -40.143  1.00  0.00     0.282 HD
ATOM     16  H51 UNL     1      28.021  28.771 -39.736  1.00  0.00     0.282 HD
HETATM   17  N8  UNL     1      26.201  26.353 -40.693  1.00  0.00    -0.102 NA
HETATM   18  N9  UNL     1      26.895  25.896 -41.857  1.00  0.00    -0.298 N 
ATOM     19  H9  UNL     1      26.764  24.965 -42.254  1.00  0.00     0.182 HD
BRANCH  14  20
HETATM   20  C16 UNL     1      26.264  27.526 -38.622  1.00  0.00     0.085 A 
HETATM   21  S1  UNL     1      25.800  29.142 -38.349  1.00  0.00    -0.051 SA
HETATM   22  C17 UNL     1      24.873  28.905 -36.940  1.00  0.00     0.144 A 
HETATM   23  N7  UNL     1      24.957  27.592 -36.738  1.00  0.00    -0.317 N 
HETATM   24  C18 UNL     1      25.661  26.871 -37.583  1.00  0.00     0.159 A 
ATOM     25  H7  UNL     1      24.486  27.155 -35.945  1.00  0.00     0.170 HD
BRANCH  22  26
HETATM   26  N6  UNL     1      24.222  29.790 -36.209  1.00  0.00    -0.380 N 
ATOM     27  H62 UNL     1      24.298  30.806 -36.251  1.00  0.00     0.158 HD
ATOM     28  H61 UNL     1      23.530  29.638 -35.475  1.00  0.00     0.158 HD
ENDBRANCH  22  26
BRANCH  24  29
HETATM   29  O7  UNL     1      25.789  25.455 -37.419  1.00  0.00    -0.345 OA
ATOM     30  H7  UNL     1      25.046  24.915 -37.177  1.00  0.00     0.219 HD
ENDBRANCH  24  29
ENDBRANCH  14  20
ENDBRANCH   7   8
ENDBRANCH   6   7
BRANCH   1  31
HETATM   31  O4  UNL     1      30.297  23.870 -45.147  1.00  0.00    -0.347 OA
BRANCH  31  32
HETATM   32  C6  UNL     1      29.149  23.516 -45.897  1.00  0.00     0.297 C 
BRANCH  32  33
HETATM   33  C5  UNL     1      28.774  24.479 -46.937  1.00  0.00     0.116 C 
BRANCH  33  34
HETATM   34  N1  UNL     1      28.838  24.185 -48.280  1.00  0.00    -0.385 N 
ATOM     35  H1  UNL     1      28.172  23.484 -48.604  1.00  0.00     0.159 HD
BRANCH  34  36
HETATM   36  C3  UNL     1      29.668  24.697 -49.246  1.00  0.00     0.173 C 
BRANCH  36  37
HETATM   37  C2  UNL     1      30.751  25.621 -48.992  1.00  0.00     0.147 C 
HETATM   38  C1  UNL     1      30.417  27.102 -48.929  1.00  0.00     0.093 C 
HETATM   39  O1  UNL     1      31.902  25.356 -48.822  1.00  0.00    -0.296 OA
ENDBRANCH  36  37
BRANCH  36  40
HETATM   40  C4  UNL     1      28.820  25.315 -50.425  1.00  0.00     0.196 C 
BRANCH  40  41
HETATM   41  O2  UNL     1      29.150  24.664 -51.589  1.00  0.00    -0.398 OA
ATOM     42  H2  UNL     1      28.391  24.175 -51.888  1.00  0.00     0.209 HD
ENDBRANCH  40  41
ENDBRANCH  36  40
ENDBRANCH  34  36
ENDBRANCH  33  34
ENDBRANCH  32  33
BRANCH  32  43
HETATM   43  O3  UNL     1      28.128  23.621 -44.884  1.00  0.00    -0.366 OA
ATOM     44  H3  UNL     1      28.568  23.453 -44.058  1.00  0.00     0.213 HD
ENDBRANCH  32  43
ENDBRANCH  31  32
ENDBRANCH   1  31
BRANCH   5  45
HETATM   45  O5  UNL     1      30.272  24.260 -42.815  1.00  0.00    -0.391 OA
ATOM     46  H5  UNL     1      29.337  24.342 -42.960  1.00  0.00     0.210 HD
ENDBRANCH   5  45
BRANCH   2  47
HETATM   47  N2  UNL     1      32.854  26.282 -45.874  1.00  0.00    -0.072 N 
ATOM     48  H23 UNL     1      33.298  26.233 -46.791  1.00  0.00     0.274 HD
ATOM     49  H22 UNL     1      32.120  26.947 -46.121  1.00  0.00     0.274 HD
ATOM     50  H21 UNL     1      33.477  26.626 -45.145  1.00  0.00     0.274 HD
ENDBRANCH   2  47
BRANCH   4  51
HETATM   51  N3  UNL     1      32.736  24.669 -41.712  1.00  0.00    -0.072 N 
ATOM     52  H33 UNL     1      31.960  24.212 -41.234  1.00  0.00     0.274 HD
ATOM     53  H32 UNL     1      33.288  23.834 -41.905  1.00  0.00     0.274 HD
ATOM     54  H31 UNL     1      33.226  25.339 -41.118  1.00  0.00     0.274 HD
ENDBRANCH   4  51
TORSDOF 17
ENDMDL
MODEL 3
REMARK VINA RESULT: -6.447175113      1.027      1.481
REMARK  17 active torsions:
REMARK  status: ('A' for Active; 'I' for Inactive)
REMARK    1  A    between atoms: C2_2  and  C3_4 
REMARK    2  A    between atoms: C3_4  and  C4_5 
REMARK    3  A    between atoms: C3_4  and  N1_8 
REMARK    4  A    between atoms: C4_5  and  O2_6 
REMARK    5  A    between atoms: N1_8  and  C5_10 
REMARK    6  A    between atoms: C5_10  and  C6_11 
REMARK    7  A    between atoms: C6_11  and  O3_12 
REMARK    8  A    between atoms: C6_11  and  O4_14 
REMARK    9  A    between atoms: O4_14  and  C7_15 
REMARK   10  A    between atoms: C8_16  and  N2_17 
REMARK   11  A    between atoms: C10_22  and  N3_23 
REMARK   12  A    between atoms: C11_27  and  O5_28 
REMARK   13  A    between atoms: C12_30  and  O6_31 
REMARK   14  A    between atoms: O6_31  and  C13_32 
REMARK   15  A    between atoms: C15_39  and  C16_40 
REMARK   16  A    between atoms: C17_42  and  N6_43 
REMARK   17  A    between atoms: C18_48  and  O7_49 
ROOT
HETATM    1  C7  UNL     1      30.325  25.352 -45.378  1.00  0.00     0.187 C 
HETATM    2  C8  UNL     1      31.885  25.684 -45.453  1.00  0.00     0.217 C 
HETATM    3  C9  UNL     1      32.555  25.083 -44.273  1.00  0.00     0.071 C 
HETATM    4  C10 UNL     1      31.998  25.432 -42.939  1.00  0.00     0.216 C 
HETATM    5  C11 UNL     1      30.509  25.181 -42.929  1.00  0.00     0.180 C 
HETATM    6  C12 UNL     1      29.932  25.970 -44.096  1.00  0.00     0.192 C 
ENDROOT
BRANCH   6   7
HETATM    7  O6  UNL     1      28.659  26.417 -43.893  1.00  0.00    -0.324 OA
BRANCH   7   8
HETATM    8  C13 UNL     1      28.048  26.558 -42.691  1.00  0.00     0.168 A 
HETATM    9  N4  UNL     1      26.987  26.052 -42.193  1.00  0.00    -0.336 N 
HETATM   10  C14 UNL     1      26.956  26.627 -40.918  1.00  0.00     0.344 A 
ATOM     11  H4  UNL     1      26.330  25.396 -42.616  1.00  0.00     0.164 HD
HETATM   12  N5  UNL     1      26.037  27.653 -40.531  1.00  0.00    -0.024 N 
HETATM   13  C19 UNL     1      28.230  27.284 -41.433  1.00  0.00     0.123 A 
HETATM   14  C15 UNL     1      26.669  28.561 -39.565  1.00  0.00     0.345 C 
ATOM     15  H52 UNL     1      25.664  28.155 -41.337  1.00  0.00     0.282 HD
ATOM     16  H51 UNL     1      25.163  27.267 -40.176  1.00  0.00     0.282 HD
HETATM   17  N8  UNL     1      28.082  28.202 -39.353  1.00  0.00    -0.102 NA
HETATM   18  N9  UNL     1      28.800  28.066 -40.581  1.00  0.00    -0.298 N 
ATOM     19  H9  UNL     1      29.682  28.544 -40.767  1.00  0.00     0.182 HD
BRANCH  14  20
HETATM   20  C16 UNL     1      25.993  28.466 -38.240  1.00  0.00     0.085 A 
HETATM   21  S1  UNL     1      26.526  27.873 -36.735  1.00  0.00    -0.051 SA
HETATM   22  C17 UNL     1      25.104  28.143 -35.839  1.00  0.00     0.144 A 
HETATM   23  N7  UNL     1      24.277  28.680 -36.733  1.00  0.00    -0.317 N 
HETATM   24  C18 UNL     1      24.711  28.853 -37.963  1.00  0.00     0.159 A 
ATOM     25  H7  UNL     1      23.329  28.951 -36.471  1.00  0.00     0.170 HD
BRANCH  22  26
HETATM   26  N6  UNL     1      24.856  27.890 -34.567  1.00  0.00    -0.380 N 
ATOM     27  H62 UNL     1      25.161  27.082 -34.025  1.00  0.00     0.158 HD
ATOM     28  H61 UNL     1      24.325  28.437 -33.890  1.00  0.00     0.158 HD
ENDBRANCH  22  26
BRANCH  24  29
HETATM   29  O7  UNL     1      23.868  29.425 -38.969  1.00  0.00    -0.345 OA
ATOM     30  H7  UNL     1      24.106  30.229 -39.416  1.00  0.00     0.219 HD
ENDBRANCH  24  29
ENDBRANCH  14  20
ENDBRANCH   7   8
ENDBRANCH   6   7
BRANCH   1  31
HETATM   31  O4  UNL     1      30.247  23.976 -45.407  1.00  0.00    -0.347 OA
BRANCH  31  32
HETATM   32  C6  UNL     1      29.104  23.498 -46.095  1.00  0.00     0.297 C 
BRANCH  32  33
HETATM   33  C5  UNL     1      28.550  24.427 -47.083  1.00  0.00     0.116 C 
BRANCH  33  34
HETATM   34  N1  UNL     1      28.609  24.193 -48.438  1.00  0.00    -0.385 N 
ATOM     35  H1  UNL     1      27.873  23.593 -48.809  1.00  0.00     0.159 HD
BRANCH  34  36
HETATM   36  C3  UNL     1      29.515  24.650 -49.363  1.00  0.00     0.173 C 
BRANCH  36  37
HETATM   37  C2  UNL     1      30.638  25.508 -49.057  1.00  0.00     0.147 C 
HETATM   38  C1  UNL     1      30.376  27.001 -48.940  1.00  0.00     0.093 C 
HETATM   39  O1  UNL     1      31.772  25.180 -48.882  1.00  0.00    -0.296 OA
ENDBRANCH  36  37
BRANCH  36  40
HETATM   40  C4  UNL     1      28.764  25.314 -50.583  1.00  0.00     0.196 C 
BRANCH  40  41
HETATM   41  O2  UNL     1      29.183  24.702 -51.740  1.00  0.00    -0.398 OA
ATOM     42  H2  UNL     1      29.787  25.283 -52.188  1.00  0.00     0.209 HD
ENDBRANCH  40  41
ENDBRANCH  36  40
ENDBRANCH  34  36
ENDBRANCH  33  34
ENDBRANCH  32  33
BRANCH  32  43
HETATM   43  O3  UNL     1      28.145  23.456 -45.018  1.00  0.00    -0.366 OA
ATOM     44  H3  UNL     1      28.418  24.130 -44.406  1.00  0.00     0.213 HD
ENDBRANCH  32  43
ENDBRANCH  31  32
ENDBRANCH   1  31
BRANCH   5  45
HETATM   45  O5  UNL     1      30.328  23.810 -43.050  1.00  0.00    -0.391 OA
ATOM     46  H5  UNL     1      31.191  23.419 -43.099  1.00  0.00     0.210 HD
ENDBRANCH   5  45
BRANCH   2  47
HETATM   47  N2  UNL     1      32.004  27.100 -45.595  1.00  0.00    -0.072 N 
ATOM     48  H23 UNL     1      31.110  27.563 -45.754  1.00  0.00     0.274 HD
ATOM     49  H22 UNL     1      32.241  27.571 -44.722  1.00  0.00     0.274 HD
ATOM     50  H21 UNL     1      32.681  27.269 -46.338  1.00  0.00     0.274 HD
ENDBRANCH   2  47
BRANCH   4  51
HETATM   51  N3  UNL     1      32.685  24.626 -41.940  1.00  0.00    -0.072 N 
ATOM     52  H33 UNL     1      32.930  23.697 -42.283  1.00  0.00     0.274 HD
ATOM     53  H32 UNL     1      33.632  24.954 -41.751  1.00  0.00     0.274 HD
ATOM     54  H31 UNL     1      32.103  24.598 -41.104  1.00  0.00     0.274 HD
ENDBRANCH   4  51
TORSDOF 17
ENDMDL
MODEL 4
REMARK VINA RESULT: -6.296430680      2.488      5.594
REMARK  17 active torsions:
REMARK  status: ('A' for Active; 'I' for Inactive)
REMARK    1  A    between atoms: C2_2  and  C3_4 
REMARK    2  A    between atoms: C3_4  and  C4_5 
REMARK    3  A    between atoms: C3_4  and  N1_8 
REMARK    4  A    between atoms: C4_5  and  O2_6 
REMARK    5  A    between atoms: N1_8  and  C5_10 
REMARK    6  A    between atoms: C5_10  and  C6_11 
REMARK    7  A    between atoms: C6_11  and  O3_12 
REMARK    8  A    between atoms: C6_11  and  O4_14 
REMARK    9  A    between atoms: O4_14  and  C7_15 
REMARK   10  A    between atoms: C8_16  and  N2_17 
REMARK   11  A    between atoms: C10_22  and  N3_23 
REMARK   12  A    between atoms: C11_27  and  O5_28 
REMARK   13  A    between atoms: C12_30  and  O6_31 
REMARK   14  A    between atoms: O6_31  and  C13_32 
REMARK   15  A    between atoms: C15_39  and  C16_40 
REMARK   16  A    between atoms: C17_42  and  N6_43 
REMARK   17  A    between atoms: C18_48  and  O7_49 
ROOT
HETATM    1  C7  UNL     1      29.984  24.858 -43.805  1.00  0.00     0.187 C 
HETATM    2  C8  UNL     1      29.139  23.871 -44.732  1.00  0.00     0.217 C 
HETATM    3  C9  UNL     1      29.583  24.044 -46.138  1.00  0.00     0.071 C 
HETATM    4  C10 UNL     1      29.567  25.430 -46.677  1.00  0.00     0.216 C 
HETATM    5  C11 UNL     1      30.308  26.350 -45.736  1.00  0.00     0.180 C 
HETATM    6  C12 UNL     1      29.656  26.182 -44.370  1.00  0.00     0.192 C 
ENDROOT
BRANCH   6   7
HETATM    7  O6  UNL     1      29.687  27.304 -43.594  1.00  0.00    -0.324 OA
BRANCH   7   8
HETATM    8  C13 UNL     1      28.780  27.638 -42.642  1.00  0.00     0.168 A 
HETATM    9  N4  UNL     1      28.579  28.705 -41.972  1.00  0.00    -0.336 N 
HETATM   10  C14 UNL     1      27.484  28.353 -41.177  1.00  0.00     0.344 A 
ATOM     11  H4  UNL     1      29.088  29.589 -42.007  1.00  0.00     0.164 HD
HETATM   12  N5  UNL     1      27.571  28.095 -39.773  1.00  0.00    -0.024 N 
HETATM   13  C19 UNL     1      27.654  27.037 -41.925  1.00  0.00     0.123 A 
HETATM   14  C15 UNL     1      26.600  27.063 -39.386  1.00  0.00     0.345 C 
ATOM     15  H52 UNL     1      28.520  27.852 -39.487  1.00  0.00     0.282 HD
ATOM     16  H51 UNL     1      27.462  28.946 -39.222  1.00  0.00     0.282 HD
HETATM   17  N8  UNL     1      25.894  26.536 -40.567  1.00  0.00    -0.102 NA
HETATM   18  N9  UNL     1      26.792  26.134 -41.604  1.00  0.00    -0.298 N 
ATOM     19  H9  UNL     1      26.754  25.217 -42.049  1.00  0.00     0.182 HD
BRANCH  14  20
HETATM   20  C16 UNL     1      25.565  27.633 -38.479  1.00  0.00     0.085 A 
HETATM   21  S1  UNL     1      24.512  28.960 -38.653  1.00  0.00    -0.051 SA
HETATM   22  C17 UNL     1      23.732  28.865 -37.142  1.00  0.00     0.144 A 
HETATM   23  N7  UNL     1      24.313  27.814 -36.565  1.00  0.00    -0.317 N 
HETATM   24  C18 UNL     1      25.249  27.173 -37.230  1.00  0.00     0.159 A 
ATOM     25  H7  UNL     1      24.037  27.514 -35.630  1.00  0.00     0.170 HD
BRANCH  22  26
HETATM   26  N6  UNL     1      22.783  29.633 -36.641  1.00  0.00    -0.380 N 
ATOM     27  H62 UNL     1      21.781  29.579 -36.825  1.00  0.00     0.158 HD
ATOM     28  H61 UNL     1      22.859  30.411 -35.987  1.00  0.00     0.158 HD
ENDBRANCH  22  26
BRANCH  24  29
HETATM   29  O7  UNL     1      25.910  26.037 -36.663  1.00  0.00    -0.345 OA
ATOM     30  H7  UNL     1      26.512  26.127 -35.934  1.00  0.00     0.219 HD
ENDBRANCH  24  29
ENDBRANCH  14  20
ENDBRANCH   7   8
ENDBRANCH   6   7
BRANCH   1  31
HETATM   31  O4  UNL     1      31.297  24.467 -43.964  1.00  0.00    -0.347 OA
BRANCH  31  32
HETATM   32  C6  UNL     1      31.980  24.295 -42.735  1.00  0.00     0.297 C 
BRANCH  32  33
HETATM   33  C5  UNL     1      32.367  25.541 -42.068  1.00  0.00     0.116 C 
BRANCH  33  34
HETATM   34  N1  UNL     1      32.686  25.599 -40.730  1.00  0.00    -0.385 N 
ATOM     35  H1  UNL     1      32.917  24.704 -40.299  1.00  0.00     0.159 HD
BRANCH  34  36
HETATM   36  C3  UNL     1      32.738  26.685 -39.892  1.00  0.00     0.173 C 
BRANCH  36  37
HETATM   37  C2  UNL     1      32.459  26.640 -38.474  1.00  0.00     0.147 C 
HETATM   38  C1  UNL     1      33.386  27.408 -37.546  1.00  0.00     0.093 C 
HETATM   39  O1  UNL     1      31.569  26.060 -37.930  1.00  0.00    -0.296 OA
ENDBRANCH  36  37
BRANCH  36  40
HETATM   40  C4  UNL     1      31.879  27.872 -40.480  1.00  0.00     0.196 C 
BRANCH  40  41
HETATM   41  O2  UNL     1      30.685  27.925 -39.801  1.00  0.00    -0.398 OA
ATOM     42  H2  UNL     1      29.984  28.052 -40.431  1.00  0.00     0.209 HD
ENDBRANCH  40  41
ENDBRANCH  36  40
ENDBRANCH  34  36
ENDBRANCH  33  34
ENDBRANCH  32  33
BRANCH  32  43
HETATM   43  O3  UNL     1      33.211  23.701 -43.197  1.00  0.00    -0.366 OA
ATOM     44  H3  UNL     1      33.906  24.182 -42.764  1.00  0.00     0.213 HD
ENDBRANCH  32  43
ENDBRANCH  31  32
ENDBRANCH   1  31
BRANCH   5  45
HETATM   45  O5  UNL     1      31.641  25.968 -45.759  1.00  0.00    -0.391 OA
ATOM     46  H5  UNL     1      32.104  26.606 -46.288  1.00  0.00     0.210 HD
ENDBRANCH   5  45
BRANCH   2  47
HETATM   47  N2  UNL     1      27.759  24.131 -44.469  1.00  0.00    -0.072 N 
ATOM     48  H23 UNL     1      27.528  24.097 -43.476  1.00  0.00     0.274 HD
ATOM     49  H22 UNL     1      27.496  25.103 -44.631  1.00  0.00     0.274 HD
ATOM     50  H21 UNL     1      27.220  23.471 -45.029  1.00  0.00     0.274 HD
ENDBRANCH   2  47
BRANCH   4  51
HETATM   51  N3  UNL     1      30.181  25.405 -47.997  1.00  0.00    -0.072 N 
ATOM     52  H33 UNL     1      31.172  25.165 -47.968  1.00  0.00     0.274 HD
ATOM     53  H32 UNL     1      29.867  24.618 -48.564  1.00  0.00     0.274 HD
ATOM     54  H31 UNL     1      30.006  26.306 -48.442  1.00  0.00     0.274 HD
ENDBRANCH   4  51
TORSDOF 17
ENDMDL
MODEL 5
REMARK VINA RESULT: -6.255167570      1.731      2.080
REMARK  17 active torsions:
REMARK  status: ('A' for Active; 'I' for Inactive)
REMARK    1  A    between atoms: C2_2  and  C3_4 
REMARK    2  A    between atoms: C3_4  and  C4_5 
REMARK    3  A    between atoms: C3_4  and  N1_8 
REMARK    4  A    between atoms: C4_5  and  O2_6 
REMARK    5  A    between atoms: N1_8  and  C5_10 
REMARK    6  A    between atoms: C5_10  and  C6_11 
REMARK    7  A    between atoms: C6_11  and  O3_12 
REMARK    8  A    between atoms: C6_11  and  O4_14 
REMARK    9  A    between atoms: O4_14  and  C7_15 
REMARK   10  A    between atoms: C8_16  and  N2_17 
REMARK   11  A    between atoms: C10_22  and  N3_23 
REMARK   12  A    between atoms: C11_27  and  O5_28 
REMARK   13  A    between atoms: C12_30  and  O6_31 
REMARK   14  A    between atoms: O6_31  and  C13_32 
REMARK   15  A    between atoms: C15_39  and  C16_40 
REMARK   16  A    between atoms: C17_42  and  N6_43 
REMARK   17  A    between atoms: C18_48  and  O7_49 
ROOT
HETATM    1  C7  UNL     1      31.048  26.087 -45.443  1.00  0.00     0.187 C 
HETATM    2  C8  UNL     1      32.482  26.639 -45.010  1.00  0.00     0.217 C 
HETATM    3  C9  UNL     1      33.092  25.677 -44.059  1.00  0.00     0.071 C 
HETATM    4  C10 UNL     1      32.280  25.308 -42.869  1.00  0.00     0.216 C 
HETATM    5  C11 UNL     1      30.905  24.866 -43.311  1.00  0.00     0.180 C 
HETATM    6  C12 UNL     1      30.338  26.002 -44.152  1.00  0.00     0.192 C 
ENDROOT
BRANCH   6   7
HETATM    7  O6  UNL     1      28.980  26.122 -44.087  1.00  0.00    -0.324 OA
BRANCH   7   8
HETATM    8  C13 UNL     1      28.248  26.273 -42.955  1.00  0.00     0.168 A 
HETATM    9  N4  UNL     1      27.039  25.990 -42.660  1.00  0.00    -0.336 N 
HETATM   10  C14 UNL     1      26.955  26.410 -41.329  1.00  0.00     0.344 A 
ATOM     11  H4  UNL     1      26.319  25.566 -43.245  1.00  0.00     0.164 HD
HETATM   12  N5  UNL     1      26.248  27.580 -40.907  1.00  0.00    -0.024 N 
HETATM   13  C19 UNL     1      28.406  26.788 -41.594  1.00  0.00     0.123 A 
HETATM   14  C15 UNL     1      26.921  28.192 -39.755  1.00  0.00     0.345 C 
ATOM     15  H52 UNL     1      26.120  28.244 -41.671  1.00  0.00     0.282 HD
ATOM     16  H51 UNL     1      25.266  27.382 -40.714  1.00  0.00     0.282 HD
HETATM   17  N8  UNL     1      28.170  27.477 -39.435  1.00  0.00    -0.102 NA
HETATM   18  N9  UNL     1      29.009  27.307 -40.580  1.00  0.00    -0.298 N 
ATOM     19  H9  UNL     1      29.994  27.572 -40.593  1.00  0.00     0.182 HD
BRANCH  14  20
HETATM   20  C16 UNL     1      26.056  28.119 -38.544  1.00  0.00     0.085 A 
HETATM   21  S1  UNL     1      25.254  29.326 -37.650  1.00  0.00    -0.051 SA
HETATM   22  C17 UNL     1      24.551  28.334 -36.458  1.00  0.00     0.144 A 
HETATM   23  N7  UNL     1      24.961  27.113 -36.797  1.00  0.00    -0.317 N 
HETATM   24  C18 UNL     1      25.729  26.982 -37.857  1.00  0.00     0.159 A 
ATOM     25  H7  UNL     1      24.686  26.299 -36.248  1.00  0.00     0.170 HD
BRANCH  22  26
HETATM   26  N6  UNL     1      23.784  28.668 -35.437  1.00  0.00    -0.380 N 
ATOM     27  H62 UNL     1      23.632  29.601 -35.056  1.00  0.00     0.158 HD
ATOM     28  H61 UNL     1      23.206  28.075 -34.842  1.00  0.00     0.158 HD
ENDBRANCH  22  26
BRANCH  24  29
HETATM   29  O7  UNL     1      26.202  25.696 -38.272  1.00  0.00    -0.345 OA
ATOM     30  H7  UNL     1      25.875  24.897 -37.877  1.00  0.00     0.219 HD
ENDBRANCH  24  29
ENDBRANCH  14  20
ENDBRANCH   7   8
ENDBRANCH   6   7
BRANCH   1  31
HETATM   31  O4  UNL     1      31.296  24.874 -46.051  1.00  0.00    -0.347 OA
BRANCH  31  32
HETATM   32  C6  UNL     1      30.608  24.716 -47.279  1.00  0.00     0.297 C 
BRANCH  32  33
HETATM   33  C5  UNL     1      30.037  25.950 -47.826  1.00  0.00     0.116 C 
BRANCH  33  34
HETATM   34  N1  UNL     1      29.532  26.032 -49.104  1.00  0.00    -0.385 N 
ATOM     35  H1  UNL     1      28.519  25.947 -49.178  1.00  0.00     0.159 HD
BRANCH  34  36
HETATM   36  C3  UNL     1      30.194  26.211 -50.294  1.00  0.00     0.173 C 
BRANCH  36  37
HETATM   37  C2  UNL     1      30.119  27.408 -51.101  1.00  0.00     0.147 C 
HETATM   38  C1  UNL     1      30.736  28.679 -50.541  1.00  0.00     0.093 C 
HETATM   39  O1  UNL     1      29.621  27.522 -52.179  1.00  0.00    -0.296 OA
ENDBRANCH  36  37
BRANCH  36  40
HETATM   40  C4  UNL     1      29.914  24.998 -51.264  1.00  0.00     0.196 C 
BRANCH  40  41
HETATM   41  O2  UNL     1      28.582  25.008 -51.603  1.00  0.00    -0.398 OA
ATOM     42  H2  UNL     1      28.295  24.111 -51.732  1.00  0.00     0.209 HD
ENDBRANCH  40  41
ENDBRANCH  36  40
ENDBRANCH  34  36
ENDBRANCH  33  34
ENDBRANCH  32  33
BRANCH  32  43
HETATM   43  O3  UNL     1      29.483  23.921 -46.852  1.00  0.00    -0.366 OA
ATOM     44  H3  UNL     1      29.810  23.368 -46.153  1.00  0.00     0.213 HD
ENDBRANCH  32  43
ENDBRANCH  31  32
ENDBRANCH   1  31
BRANCH   5  45
HETATM   45  O5  UNL     1      31.066  23.685 -44.021  1.00  0.00    -0.391 OA
ATOM     46  H5  UNL     1      31.258  23.924 -44.919  1.00  0.00     0.210 HD
ENDBRANCH   5  45
BRANCH   2  47
HETATM   47  N2  UNL     1      32.288  27.969 -44.528  1.00  0.00    -0.072 N 
ATOM     48  H23 UNL     1      31.321  28.285 -44.600  1.00  0.00     0.274 HD
ATOM     49  H22 UNL     1      32.374  28.044 -43.514  1.00  0.00     0.274 HD
ATOM     50  H21 UNL     1      32.944  28.567 -45.031  1.00  0.00     0.274 HD
ENDBRANCH   2  47
BRANCH   4  51
HETATM   51  N3  UNL     1      32.981  24.249 -42.158  1.00  0.00    -0.072 N 
ATOM     52  H33 UNL     1      33.467  23.606 -42.784  1.00  0.00     0.274 HD
ATOM     53  H32 UNL     1      33.799  24.588 -41.651  1.00  0.00     0.274 HD
ATOM     54  H31 UNL     1      32.309  23.778 -41.552  1.00  0.00     0.274 HD
ENDBRANCH   4  51
TORSDOF 17
ENDMDL
