MODEL 1
REMARK VINA RESULT: -6.884819285      0.000      0.000
REMARK  12 active torsions:
REMARK  status: ('A' for Active; 'I' for Inactive)
REMARK    1  A    between atoms: S1_2  and  C2_3 
REMARK    2  A    between atoms: C3_4  and  C4_5 
REMARK    3  A    between atoms: C4_5  and  O1_6 
REMARK    4  A    between atoms: C4_5  and  C5_8 
REMARK    5  A    between atoms: N2_12  and  C7_14 
REMARK    6  A    between atoms: C11_24  and  N6_25 
REMARK       I    between atoms: N6_25  and  C12_27 
REMARK    7  A    between atoms: N8_30  and  N9_31 
REMARK    8  A    between atoms: N9_31  and  N10_33 
REMARK    9  A    between atoms: C13_37  and  C14_38 
REMARK   10  A    between atoms: C14_38  and  O4_39 
REMARK   11  A    between atoms: C14_38  and  O5_41 
REMARK   12  A    between atoms: C16_44  and  N11_45 
REMARK       I    between atoms: N11_45  and  C17_47 
REMARK       I    between atoms: C17_47  and  N12_48 
REMARK       I    between atoms: C17_47  and  N13_52 
ROOT
HETATM    1  C5  UNL     1      27.727  27.561 -35.942  1.00  0.00     0.144 A 
HETATM    2  N1  UNL     1      27.876  28.488 -34.991  1.00  0.00    -0.328 N 
ATOM      3  H1  UNL     1      28.779  28.593 -34.529  1.00  0.00     0.169 HD
HETATM    4  C6  UNL     1      26.847  29.290 -34.631  1.00  0.00     0.126 A 
HETATM    5  N2  UNL     1      27.020  30.157 -33.723  1.00  0.00    -0.177 N 
ATOM      6  H2  UNL     1      27.934  30.237 -33.279  1.00  0.00     0.186 HD
HETATM    7  C10 UNL     1      25.617  29.147 -35.261  1.00  0.00     0.099 A 
HETATM    8  C11 UNL     1      25.462  28.202 -36.232  1.00  0.00     0.137 A 
HETATM    9  N8  UNL     1      26.545  27.426 -36.546  1.00  0.00    -0.210 N 
ENDROOT
BRANCH   1  10
HETATM   10  C4  UNL     1      28.901  26.715 -36.290  1.00  0.00     0.246 C 
BRANCH  10  11
HETATM   11  C3  UNL     1      29.444  27.113 -37.625  1.00  0.00     0.108 A 
HETATM   12  C2  UNL     1      30.791  27.351 -37.804  1.00  0.00     0.059 A 
HETATM   13  C16 UNL     1      31.289  27.721 -39.045  1.00  0.00     0.052 A 
HETATM   14  C15 UNL     1      30.373  27.832 -40.072  1.00  0.00     0.068 A 
HETATM   15  C13 UNL     1      29.029  27.585 -39.851  1.00  0.00     0.110 A 
HETATM   16  O3  UNL     1      28.632  27.240 -38.650  1.00  0.00    -0.310 OA
BRANCH  12  17
HETATM   17  S1  UNL     1      31.930  27.188 -36.436  1.00  0.00    -0.130 SA
HETATM   18  C1  UNL     1      31.873  28.724 -35.477  1.00  0.00     0.095 C 
ENDBRANCH  12  17
BRANCH  13  19
HETATM   19  N11 UNL     1      32.535  27.928 -39.155  1.00  0.00    -0.340 N 
HETATM   20  C17 UNL     1      33.416  27.270 -40.078  1.00  0.00     0.480 C 
HETATM   21  N12 UNL     1      33.533  25.841 -39.810  1.00  0.00    -0.033 N 
HETATM   22  N13 UNL     1      34.743  27.832 -39.907  1.00  0.00    -0.033 N 
ATOM     23 3H12 UNL     1      33.815  25.669 -38.845  1.00  0.00     0.278 HD
ATOM     24 2H12 UNL     1      32.616  25.393 -39.793  1.00  0.00     0.278 HD
ATOM     25 1H12 UNL     1      34.159  25.374 -40.466  1.00  0.00     0.278 HD
ATOM     26 3H13 UNL     1      34.757  28.848 -40.002  1.00  0.00     0.278 HD
ATOM     27 2H13 UNL     1      35.072  27.782 -38.943  1.00  0.00     0.278 HD
ATOM     28 1H13 UNL     1      35.369  27.365 -40.563  1.00  0.00     0.278 HD
ATOM     29  H11 UNL     1      32.949  28.622 -38.533  1.00  0.00     0.163 HD
ENDBRANCH  13  19
BRANCH  15  30
HETATM   30  C14 UNL     1      28.029  27.702 -40.949  1.00  0.00     0.312 C 
BRANCH  30  31
HETATM   31  O4  UNL     1      26.991  26.781 -40.812  1.00  0.00    -0.365 OA
ATOM     32  H4  UNL     1      26.859  26.525 -39.907  1.00  0.00     0.213 HD
ENDBRANCH  30  31
BRANCH  30  33
HETATM   33  O5  UNL     1      27.534  28.991 -41.065  1.00  0.00    -0.365 OA
ATOM     34  H5  UNL     1      28.204  29.606 -41.336  1.00  0.00     0.213 HD
ENDBRANCH  30  33
ENDBRANCH  15  30
ENDBRANCH  10  11
BRANCH  10  35
HETATM   35  O1  UNL     1      28.429  25.407 -36.443  1.00  0.00    -0.381 OA
ATOM     36  H1  UNL     1      27.558  25.399 -36.064  1.00  0.00     0.211 HD
ENDBRANCH  10  35
ENDBRANCH   1  10
BRANCH   9  37
HETATM   37  N9  UNL     1      26.360  26.465 -37.546  1.00  0.00    -0.239 N 
ATOM     38  H9  UNL     1      26.663  26.682 -38.495  1.00  0.00     0.208 HD
BRANCH  37  39
HETATM   39  N10 UNL     1      25.776  25.220 -37.296  1.00  0.00    -0.330 N 
ATOM     40 2H10 UNL     1      26.384  24.401 -37.306  1.00  0.00     0.178 HD
ATOM     41 1H10 UNL     1      24.780  25.106 -37.108  1.00  0.00     0.178 HD
ENDBRANCH  37  39
ENDBRANCH   9  37
BRANCH   8  42
HETATM   42  N6  UNL     1      24.239  28.023 -36.896  1.00  0.00    -0.295 N 
HETATM   43  C12 UNL     1      23.210  28.923 -37.082  1.00  0.00     0.334 C 
HETATM   44  N7  UNL     1      23.084  30.268 -36.668  1.00  0.00    -0.040 NA
HETATM   45  O2  UNL     1      22.180  28.487 -37.741  1.00  0.00    -0.251 OA
ATOM     46  H6  UNL     1      24.091  27.098 -37.298  1.00  0.00     0.171 HD
ENDBRANCH   8  42
BRANCH   5  47
HETATM   47  C7  UNL     1      25.985  31.010 -33.316  1.00  0.00     0.681 C 
HETATM   48  N3  UNL     1      25.892  32.233 -33.711  1.00  0.00    -0.188 N 
HETATM   49  C8  UNL     1      24.866  33.151 -33.334  1.00  0.00     0.195 C 
ATOM     50  H3  UNL     1      26.613  32.573 -34.347  1.00  0.00     0.185 HD
HETATM   51  N4  UNL     1      23.959  32.674 -32.342  1.00  0.00    -0.369 N 
HETATM   52  C9  UNL     1      23.734  31.262 -32.352  1.00  0.00     0.262 C 
ATOM     53  H4  UNL     1      23.504  33.296 -31.673  1.00  0.00     0.161 HD
HETATM   54  N5  UNL     1      24.974  30.530 -32.424  1.00  0.00    -0.210 N 
ATOM     55  H5  UNL     1      25.127  29.697 -31.857  1.00  0.00     0.179 HD
ENDBRANCH   5  47
TORSDOF 12
ENDMDL
MODEL 2
REMARK VINA RESULT: -6.872003059      3.228      8.543
REMARK  12 active torsions:
REMARK  status: ('A' for Active; 'I' for Inactive)
REMARK    1  A    between atoms: S1_2  and  C2_3 
REMARK    2  A    between atoms: C3_4  and  C4_5 
REMARK    3  A    between atoms: C4_5  and  O1_6 
REMARK    4  A    between atoms: C4_5  and  C5_8 
REMARK    5  A    between atoms: N2_12  and  C7_14 
REMARK    6  A    between atoms: C11_24  and  N6_25 
REMARK       I    between atoms: N6_25  and  C12_27 
REMARK    7  A    between atoms: N8_30  and  N9_31 
REMARK    8  A    between atoms: N9_31  and  N10_33 
REMARK    9  A    between atoms: C13_37  and  C14_38 
REMARK   10  A    between atoms: C14_38  and  O4_39 
REMARK   11  A    between atoms: C14_38  and  O5_41 
REMARK   12  A    between atoms: C16_44  and  N11_45 
REMARK       I    between atoms: N11_45  and  C17_47 
REMARK       I    between atoms: C17_47  and  N12_48 
REMARK       I    between atoms: C17_47  and  N13_52 
ROOT
HETATM    1  C5  UNL     1      28.412  27.494 -41.023  1.00  0.00     0.144 A 
HETATM    2  N1  UNL     1      29.283  27.586 -40.014  1.00  0.00    -0.328 N 
ATOM      3  H1  UNL     1      28.954  27.874 -39.092  1.00  0.00     0.169 HD
HETATM    4  C6  UNL     1      30.593  27.304 -40.196  1.00  0.00     0.126 A 
HETATM    5  N2  UNL     1      31.394  27.403 -39.218  1.00  0.00    -0.177 N 
ATOM      6  H2  UNL     1      31.036  27.694 -38.309  1.00  0.00     0.186 HD
HETATM    7  C10 UNL     1      31.040  26.912 -41.451  1.00  0.00     0.099 A 
HETATM    8  C11 UNL     1      30.153  26.817 -42.483  1.00  0.00     0.137 A 
HETATM    9  N8  UNL     1      28.843  27.118 -42.228  1.00  0.00    -0.210 N 
ENDROOT
BRANCH   1  10
HETATM   10  C4  UNL     1      26.984  27.818 -40.753  1.00  0.00     0.246 C 
BRANCH  10  11
HETATM   11  C3  UNL     1      26.759  27.961 -39.282  1.00  0.00     0.108 A 
HETATM   12  C2  UNL     1      26.565  29.200 -38.708  1.00  0.00     0.059 A 
HETATM   13  C16 UNL     1      26.358  29.326 -37.341  1.00  0.00     0.052 A 
HETATM   14  C15 UNL     1      26.356  28.159 -36.605  1.00  0.00     0.068 A 
HETATM   15  C13 UNL     1      26.555  26.934 -37.219  1.00  0.00     0.110 A 
HETATM   16  O3  UNL     1      26.745  26.894 -38.516  1.00  0.00    -0.310 OA
BRANCH  12  17
HETATM   17  S1  UNL     1      26.576  30.677 -39.714  1.00  0.00    -0.130 SA
HETATM   18  C1  UNL     1      28.287  31.259 -39.832  1.00  0.00     0.095 C 
ENDBRANCH  12  17
BRANCH  13  19
HETATM   19  N11 UNL     1      26.184  30.489 -36.865  1.00  0.00    -0.340 N 
HETATM   20  C17 UNL     1      25.497  30.801 -35.644  1.00  0.00     0.480 C 
HETATM   21  N12 UNL     1      24.080  30.459 -35.704  1.00  0.00    -0.033 N 
HETATM   22  N13 UNL     1      25.568  32.236 -35.446  1.00  0.00    -0.033 N 
ATOM     23 3H12 UNL     1      23.627  30.900 -36.504  1.00  0.00     0.278 HD
ATOM     24 2H12 UNL     1      23.947  29.480 -35.961  1.00  0.00     0.278 HD
ATOM     25 1H12 UNL     1      23.591  30.681 -34.836  1.00  0.00     0.278 HD
ATOM     26 3H13 UNL     1      26.524  32.591 -35.463  1.00  0.00     0.278 HD
ATOM     27 2H13 UNL     1      25.214  32.763 -36.245  1.00  0.00     0.278 HD
ATOM     28 1H13 UNL     1      25.079  32.458 -34.578  1.00  0.00     0.278 HD
ATOM     29  H11 UNL     1      26.566  31.271 -37.396  1.00  0.00     0.163 HD
ENDBRANCH  13  19
BRANCH  15  30
HETATM   30  C14 UNL     1      26.556  25.666 -36.437  1.00  0.00     0.312 C 
BRANCH  30  31
HETATM   31  O4  UNL     1      25.557  24.790 -36.859  1.00  0.00    -0.365 OA
ATOM     32  H4  UNL     1      25.681  24.516 -37.760  1.00  0.00     0.213 HD
ENDBRANCH  30  31
BRANCH  30  33
HETATM   33  O5  UNL     1      27.796  25.047 -36.454  1.00  0.00    -0.365 OA
ATOM     34  H5  UNL     1      28.181  25.000 -35.587  1.00  0.00     0.213 HD
ENDBRANCH  30  33
ENDBRANCH  15  30
ENDBRANCH  10  11
BRANCH  10  35
HETATM   35  O1  UNL     1      26.232  26.707 -41.149  1.00  0.00    -0.381 OA
ATOM     36  H1  UNL     1      25.834  26.945 -41.978  1.00  0.00     0.211 HD
ENDBRANCH  10  35
ENDBRANCH   1  10
BRANCH   9  37
HETATM   37  N9  UNL     1      27.954  27.012 -43.304  1.00  0.00    -0.239 N 
ATOM     38  H9  UNL     1      27.747  27.847 -43.851  1.00  0.00     0.208 HD
BRANCH  37  39
HETATM   39  N10 UNL     1      27.339  25.808 -43.658  1.00  0.00    -0.330 N 
ATOM     40 2H10 UNL     1      26.322  25.799 -43.732  1.00  0.00     0.178 HD
ATOM     41 1H10 UNL     1      27.865  24.953 -43.840  1.00  0.00     0.178 HD
ENDBRANCH  37  39
ENDBRANCH   9  37
BRANCH   8  42
HETATM   42  N6  UNL     1      30.559  26.424 -43.768  1.00  0.00    -0.295 N 
HETATM   43  C12 UNL     1      30.872  25.163 -44.234  1.00  0.00     0.334 C 
HETATM   44  N7  UNL     1      30.876  23.916 -43.569  1.00  0.00    -0.040 NA
HETATM   45  O2  UNL     1      31.222  25.085 -45.482  1.00  0.00    -0.251 OA
ATOM     46  H6  UNL     1      30.632  27.176 -44.453  1.00  0.00     0.171 HD
ENDBRANCH   8  42
BRANCH   5  47
HETATM   47  C7  UNL     1      32.760  27.122 -39.357  1.00  0.00     0.681 C 
HETATM   48  N3  UNL     1      33.249  25.941 -39.193  1.00  0.00    -0.188 N 
HETATM   49  C8  UNL     1      34.627  25.589 -39.319  1.00  0.00     0.195 C 
ATOM     50  H3  UNL     1      32.596  25.195 -38.953  1.00  0.00     0.185 HD
HETATM   51  N4  UNL     1      35.517  26.684 -39.522  1.00  0.00    -0.369 N 
HETATM   52  C9  UNL     1      34.961  27.798 -40.226  1.00  0.00     0.262 C 
ATOM     53  H4  UNL     1      36.482  26.674 -39.189  1.00  0.00     0.161 HD
HETATM   54  N5  UNL     1      33.674  28.169 -39.694  1.00  0.00    -0.210 N 
ATOM     55  H5  UNL     1      33.423  29.149 -39.561  1.00  0.00     0.179 HD
ENDBRANCH   5  47
TORSDOF 12
ENDMDL
MODEL 3
REMARK VINA RESULT: -6.847164854      7.473     10.745
REMARK  12 active torsions:
REMARK  status: ('A' for Active; 'I' for Inactive)
REMARK    1  A    between atoms: S1_2  and  C2_3 
REMARK    2  A    between atoms: C3_4  and  C4_5 
REMARK    3  A    between atoms: C4_5  and  O1_6 
REMARK    4  A    between atoms: C4_5  and  C5_8 
REMARK    5  A    between atoms: N2_12  and  C7_14 
REMARK    6  A    between atoms: C11_24  and  N6_25 
REMARK       I    between atoms: N6_25  and  C12_27 
REMARK    7  A    between atoms: N8_30  and  N9_31 
REMARK    8  A    between atoms: N9_31  and  N10_33 
REMARK    9  A    between atoms: C13_37  and  C14_38 
REMARK   10  A    between atoms: C14_38  and  O4_39 
REMARK   11  A    between atoms: C14_38  and  O5_41 
REMARK   12  A    between atoms: C16_44  and  N11_45 
REMARK       I    between atoms: N11_45  and  C17_47 
REMARK       I    between atoms: C17_47  and  N12_48 
REMARK       I    between atoms: C17_47  and  N13_52 
ROOT
HETATM    1  C5  UNL     1      29.819  25.062 -45.655  1.00  0.00     0.144 A 
HETATM    2  N1  UNL     1      28.785  25.738 -45.145  1.00  0.00    -0.328 N 
ATOM      3  H1  UNL     1      28.025  26.032 -45.758  1.00  0.00     0.169 HD
HETATM    4  C6  UNL     1      28.730  26.036 -43.826  1.00  0.00     0.126 A 
HETATM    5  N2  UNL     1      27.736  26.680 -43.373  1.00  0.00    -0.177 N 
ATOM      6  H2  UNL     1      26.993  26.962 -44.012  1.00  0.00     0.186 HD
HETATM    7  C10 UNL     1      29.764  25.634 -42.991  1.00  0.00     0.099 A 
HETATM    8  C11 UNL     1      30.821  24.945 -43.509  1.00  0.00     0.137 A 
HETATM    9  N8  UNL     1      30.811  24.677 -44.851  1.00  0.00    -0.210 N 
ENDROOT
BRANCH   1  10
HETATM   10  C4  UNL     1      29.814  24.766 -47.114  1.00  0.00     0.246 C 
BRANCH  10  11
HETATM   11  C3  UNL     1      30.315  25.949 -47.881  1.00  0.00     0.108 A 
HETATM   12  C2  UNL     1      30.584  25.860 -49.230  1.00  0.00     0.059 A 
HETATM   13  C16 UNL     1      31.049  26.961 -49.936  1.00  0.00     0.052 A 
HETATM   14  C15 UNL     1      31.220  28.128 -49.220  1.00  0.00     0.068 A 
HETATM   15  C13 UNL     1      30.938  28.176 -47.865  1.00  0.00     0.110 A 
HETATM   16  O3  UNL     1      30.503  27.094 -47.266  1.00  0.00    -0.310 OA
BRANCH  12  17
HETATM   17  S1  UNL     1      30.341  24.320 -50.104  1.00  0.00    -0.130 SA
HETATM   18  C1  UNL     1      31.880  23.371 -50.001  1.00  0.00     0.095 C 
ENDBRANCH  12  17
BRANCH  13  19
HETATM   19  N11 UNL     1      31.281  26.825 -51.176  1.00  0.00    -0.340 N 
HETATM   20  C17 UNL     1      30.592  27.504 -52.236  1.00  0.00     0.480 C 
HETATM   21  N12 UNL     1      29.185  27.126 -52.314  1.00  0.00    -0.033 N 
HETATM   22  N13 UNL     1      31.198  27.100 -53.492  1.00  0.00    -0.033 N 
ATOM     23 3H12 UNL     1      29.079  26.115 -52.393  1.00  0.00     0.278 HD
ATOM     24 2H12 UNL     1      28.716  27.269 -51.419  1.00  0.00     0.278 HD
ATOM     25 1H12 UNL     1      28.696  27.608 -53.068  1.00  0.00     0.278 HD
ATOM     26 3H13 UNL     1      32.206  27.256 -53.512  1.00  0.00     0.278 HD
ATOM     27 2H13 UNL     1      31.214  26.088 -53.615  1.00  0.00     0.278 HD
ATOM     28 1H13 UNL     1      30.708  27.582 -54.246  1.00  0.00     0.278 HD
ATOM     29  H11 UNL     1      32.022  26.178 -51.442  1.00  0.00     0.163 HD
ENDBRANCH  13  19
BRANCH  15  30
HETATM   30  C14 UNL     1      31.119  29.429 -47.079  1.00  0.00     0.312 C 
BRANCH  30  31
HETATM   31  O4  UNL     1      30.738  30.559 -47.802  1.00  0.00    -0.365 OA
ATOM     32  H4  UNL     1      30.950  31.363 -47.343  1.00  0.00     0.213 HD
ENDBRANCH  30  31
BRANCH  30  33
HETATM   33  O5  UNL     1      30.462  29.376 -45.861  1.00  0.00    -0.365 OA
ATOM     34  H5  UNL     1      29.595  29.762 -45.908  1.00  0.00     0.213 HD
ENDBRANCH  30  33
ENDBRANCH  15  30
ENDBRANCH  10  11
BRANCH  10  35
HETATM   35  O1  UNL     1      28.478  24.602 -47.493  1.00  0.00    -0.381 OA
ATOM     36  H1  UNL     1      28.001  24.426 -46.690  1.00  0.00     0.211 HD
ENDBRANCH  10  35
ENDBRANCH   1  10
BRANCH   9  37
HETATM   37  N9  UNL     1      31.906  23.969 -45.357  1.00  0.00    -0.239 N 
ATOM     38  H9  UNL     1      31.921  22.954 -45.255  1.00  0.00     0.208 HD
BRANCH  37  39
HETATM   39  N10 UNL     1      32.979  24.595 -45.998  1.00  0.00    -0.330 N 
ATOM     40 2H10 UNL     1      33.007  25.615 -45.987  1.00  0.00     0.178 HD
ATOM     41 1H10 UNL     1      33.720  24.075 -46.467  1.00  0.00     0.178 HD
ENDBRANCH  37  39
ENDBRANCH   9  37
BRANCH   8  42
HETATM   42  N6  UNL     1      31.887  24.518 -42.704  1.00  0.00    -0.295 N 
HETATM   43  C12 UNL     1      33.172  25.016 -42.623  1.00  0.00     0.334 C 
HETATM   44  N7  UNL     1      33.783  26.087 -43.315  1.00  0.00    -0.040 NA
HETATM   45  O2  UNL     1      33.964  24.423 -41.784  1.00  0.00    -0.251 OA
ATOM     46  H6  UNL     1      31.684  23.728 -42.091  1.00  0.00     0.171 HD
ENDBRANCH   8  42
BRANCH   5  47
HETATM   47  C7  UNL     1      27.634  27.014 -42.016  1.00  0.00     0.681 C 
HETATM   48  N3  UNL     1      28.405  27.878 -41.450  1.00  0.00    -0.188 N 
HETATM   49  C8  UNL     1      28.354  28.261 -40.076  1.00  0.00     0.195 C 
ATOM     50  H3  UNL     1      29.111  28.326 -42.034  1.00  0.00     0.185 HD
HETATM   51  N4  UNL     1      27.444  27.513 -39.271  1.00  0.00    -0.369 N 
HETATM   52  C9  UNL     1      26.289  27.022 -39.955  1.00  0.00     0.262 C 
ATOM     53  H4  UNL     1      27.607  27.342 -38.278  1.00  0.00     0.161 HD
HETATM   54  N5  UNL     1      26.643  26.385 -41.199  1.00  0.00    -0.210 N 
ATOM     55  H5  UNL     1      26.201  25.512 -41.487  1.00  0.00     0.179 HD
ENDBRANCH   5  47
TORSDOF 12
ENDMDL
MODEL 4
REMARK VINA RESULT: -6.714496273      7.498     10.270
REMARK  12 active torsions:
REMARK  status: ('A' for Active; 'I' for Inactive)
REMARK    1  A    between atoms: S1_2  and  C2_3 
REMARK    2  A    between atoms: C3_4  and  C4_5 
REMARK    3  A    between atoms: C4_5  and  O1_6 
REMARK    4  A    between atoms: C4_5  and  C5_8 
REMARK    5  A    between atoms: N2_12  and  C7_14 
REMARK    6  A    between atoms: C11_24  and  N6_25 
REMARK       I    between atoms: N6_25  and  C12_27 
REMARK    7  A    between atoms: N8_30  and  N9_31 
REMARK    8  A    between atoms: N9_31  and  N10_33 
REMARK    9  A    between atoms: C13_37  and  C14_38 
REMARK   10  A    between atoms: C14_38  and  O4_39 
REMARK   11  A    between atoms: C14_38  and  O5_41 
REMARK   12  A    between atoms: C16_44  and  N11_45 
REMARK       I    between atoms: N11_45  and  C17_47 
REMARK       I    between atoms: C17_47  and  N12_48 
REMARK       I    between atoms: C17_47  and  N13_52 
ROOT
HETATM    1  C5  UNL     1      31.084  28.513 -45.311  1.00  0.00     0.144 A 
HETATM    2  N1  UNL     1      30.772  29.602 -46.020  1.00  0.00    -0.328 N 
ATOM      3  H1  UNL     1      31.048  29.658 -47.001  1.00  0.00     0.169 HD
HETATM    4  C6  UNL     1      30.095  30.630 -45.458  1.00  0.00     0.126 A 
HETATM    5  N2  UNL     1      29.817  31.650 -46.158  1.00  0.00    -0.177 N 
ATOM      6  H2  UNL     1      30.107  31.677 -47.134  1.00  0.00     0.186 HD
HETATM    7  C10 UNL     1      29.719  30.552 -44.123  1.00  0.00     0.099 A 
HETATM    8  C11 UNL     1      30.036  29.441 -43.397  1.00  0.00     0.137 A 
HETATM    9  N8  UNL     1      30.722  28.440 -44.029  1.00  0.00    -0.210 N 
ENDROOT
BRANCH   1  10
HETATM   10  C4  UNL     1      31.828  27.418 -45.992  1.00  0.00     0.246 C 
BRANCH  10  11
HETATM   11  C3  UNL     1      30.868  26.426 -46.569  1.00  0.00     0.108 A 
HETATM   12  C2  UNL     1      30.540  26.450 -47.909  1.00  0.00     0.059 A 
HETATM   13  C16 UNL     1      29.649  25.527 -48.439  1.00  0.00     0.052 A 
HETATM   14  C15 UNL     1      29.121  24.602 -47.561  1.00  0.00     0.068 A 
HETATM   15  C13 UNL     1      29.476  24.612 -46.223  1.00  0.00     0.110 A 
HETATM   16  O3  UNL     1      30.325  25.515 -45.795  1.00  0.00    -0.310 OA
BRANCH  12  17
HETATM   17  S1  UNL     1      31.258  27.672 -48.997  1.00  0.00    -0.130 SA
HETATM   18  C1  UNL     1      32.799  26.992 -49.661  1.00  0.00     0.095 C 
ENDBRANCH  12  17
BRANCH  13  19
HETATM   19  N11 UNL     1      29.382  25.593 -49.677  1.00  0.00    -0.340 N 
HETATM   20  C17 UNL     1      29.492  24.514 -50.616  1.00  0.00     0.480 C 
HETATM   21  N12 UNL     1      30.871  24.071 -50.792  1.00  0.00    -0.033 N 
HETATM   22  N13 UNL     1      29.046  24.999 -51.909  1.00  0.00    -0.033 N 
ATOM     23 3H12 UNL     1      31.477  24.848 -51.052  1.00  0.00     0.278 HD
ATOM     24 2H12 UNL     1      31.295  23.825 -49.897  1.00  0.00     0.278 HD
ATOM     25 1H12 UNL     1      30.949  23.304 -51.460  1.00  0.00     0.278 HD
ATOM     26 3H13 UNL     1      28.109  25.402 -51.878  1.00  0.00     0.278 HD
ATOM     27 2H13 UNL     1      29.544  25.837 -52.209  1.00  0.00     0.278 HD
ATOM     28 1H13 UNL     1      29.124  24.232 -52.577  1.00  0.00     0.278 HD
ATOM     29  H11 UNL     1      29.061  26.491 -50.037  1.00  0.00     0.163 HD
ENDBRANCH  13  19
BRANCH  15  30
HETATM   30  C14 UNL     1      28.914  23.620 -45.264  1.00  0.00     0.312 C 
BRANCH  30  31
HETATM   31  O4  UNL     1      28.664  22.390 -45.871  1.00  0.00    -0.365 OA
ATOM     32  H4  UNL     1      28.172  21.807 -45.306  1.00  0.00     0.213 HD
ENDBRANCH  30  31
BRANCH  30  33
HETATM   33  O5  UNL     1      29.718  23.465 -44.147  1.00  0.00    -0.365 OA
ATOM     34  H5  UNL     1      29.208  23.351 -43.355  1.00  0.00     0.213 HD
ENDBRANCH  30  33
ENDBRANCH  15  30
ENDBRANCH  10  11
BRANCH  10  35
HETATM   35  O1  UNL     1      32.539  26.731 -45.003  1.00  0.00    -0.381 OA
ATOM     36  H1  UNL     1      33.303  27.264 -44.815  1.00  0.00     0.211 HD
ENDBRANCH  10  35
ENDBRANCH   1  10
BRANCH   9  37
HETATM   37  N9  UNL     1      31.034  27.312 -43.262  1.00  0.00    -0.239 N 
ATOM     38  H9  UNL     1      31.961  27.247 -42.843  1.00  0.00     0.208 HD
BRANCH  37  39
HETATM   39  N10 UNL     1      30.125  26.272 -43.047  1.00  0.00    -0.330 N 
ATOM     40 2H10 UNL     1      29.385  26.140 -43.735  1.00  0.00     0.178 HD
ATOM     41 1H10 UNL     1      30.179  25.653 -42.238  1.00  0.00     0.178 HD
ENDBRANCH  37  39
ENDBRANCH   9  37
BRANCH   8  42
HETATM   42  N6  UNL     1      29.676  29.318 -42.047  1.00  0.00    -0.295 N 
HETATM   43  C12 UNL     1      28.537  28.764 -41.496  1.00  0.00     0.334 C 
HETATM   44  N7  UNL     1      27.418  28.167 -42.118  1.00  0.00    -0.040 NA
HETATM   45  O2  UNL     1      28.460  28.784 -40.201  1.00  0.00    -0.251 OA
ATOM     46  H6  UNL     1      30.350  29.690 -41.378  1.00  0.00     0.171 HD
ENDBRANCH   8  42
BRANCH   5  47
HETATM   47  C7  UNL     1      29.118  32.740 -45.620  1.00  0.00     0.681 C 
HETATM   48  N3  UNL     1      27.868  32.950 -45.853  1.00  0.00    -0.188 N 
HETATM   49  C8  UNL     1      27.101  34.038 -45.338  1.00  0.00     0.195 C 
ATOM     50  H3  UNL     1      27.387  32.282 -46.455  1.00  0.00     0.185 HD
HETATM   51  N4  UNL     1      27.844  35.016 -44.614  1.00  0.00    -0.369 N 
HETATM   52  C9  UNL     1      28.994  34.519 -43.925  1.00  0.00     0.262 C 
ATOM     53  H4  UNL     1      27.575  36.000 -44.589  1.00  0.00     0.161 HD
HETATM   54  N5  UNL     1      29.795  33.675 -44.775  1.00  0.00    -0.210 N 
ATOM     55  H5  UNL     1      30.813  33.742 -44.775  1.00  0.00     0.179 HD
ENDBRANCH   5  47
TORSDOF 12
ENDMDL
MODEL 5
REMARK VINA RESULT: -6.645355479      6.832      9.626
REMARK  12 active torsions:
REMARK  status: ('A' for Active; 'I' for Inactive)
REMARK    1  A    between atoms: S1_2  and  C2_3 
REMARK    2  A    between atoms: C3_4  and  C4_5 
REMARK    3  A    between atoms: C4_5  and  O1_6 
REMARK    4  A    between atoms: C4_5  and  C5_8 
REMARK    5  A    between atoms: N2_12  and  C7_14 
REMARK    6  A    between atoms: C11_24  and  N6_25 
REMARK       I    between atoms: N6_25  and  C12_27 
REMARK    7  A    between atoms: N8_30  and  N9_31 
REMARK    8  A    between atoms: N9_31  and  N10_33 
REMARK    9  A    between atoms: C13_37  and  C14_38 
REMARK   10  A    between atoms: C14_38  and  O4_39 
REMARK   11  A    between atoms: C14_38  and  O5_41 
REMARK   12  A    between atoms: C16_44  and  N11_45 
REMARK       I    between atoms: N11_45  and  C17_47 
REMARK       I    between atoms: C17_47  and  N12_48 
REMARK       I    between atoms: C17_47  and  N13_52 
ROOT
HETATM    1  C5  UNL     1      30.771  28.196 -44.666  1.00  0.00     0.144 A 
HETATM    2  N1  UNL     1      30.049  27.386 -43.884  1.00  0.00    -0.328 N 
ATOM      3  H1  UNL     1      30.003  26.391 -44.100  1.00  0.00     0.169 HD
HETATM    4  C6  UNL     1      29.378  27.868 -42.812  1.00  0.00     0.126 A 
HETATM    5  N2  UNL     1      28.701  27.074 -42.092  1.00  0.00    -0.177 N 
ATOM      6  H2  UNL     1      28.673  26.084 -42.334  1.00  0.00     0.186 HD
HETATM    7  C10 UNL     1      29.442  29.224 -42.519  1.00  0.00     0.099 A 
HETATM    8  C11 UNL     1      30.178  30.052 -43.315  1.00  0.00     0.137 A 
HETATM    9  N8  UNL     1      30.830  29.498 -44.382  1.00  0.00    -0.210 N 
ENDROOT
BRANCH   1  10
HETATM   10  C4  UNL     1      31.484  27.599 -45.828  1.00  0.00     0.246 C 
BRANCH  10  11
HETATM   11  C3  UNL     1      30.649  26.525 -46.448  1.00  0.00     0.108 A 
HETATM   12  C2  UNL     1      30.348  26.546 -47.794  1.00  0.00     0.059 A 
HETATM   13  C16 UNL     1      29.571  25.546 -48.364  1.00  0.00     0.052 A 
HETATM   14  C15 UNL     1      29.128  24.549 -47.519  1.00  0.00     0.068 A 
HETATM   15  C13 UNL     1      29.452  24.565 -46.173  1.00  0.00     0.110 A 
HETATM   16  O3  UNL     1      30.190  25.543 -45.706  1.00  0.00    -0.310 OA
BRANCH  12  17
HETATM   17  S1  UNL     1      30.952  27.864 -48.839  1.00  0.00    -0.130 SA
HETATM   18  C1  UNL     1      32.547  27.346 -49.523  1.00  0.00     0.095 C 
ENDBRANCH  12  17
BRANCH  13  19
HETATM   19  N11 UNL     1      29.324  25.613 -49.606  1.00  0.00    -0.340 N 
HETATM   20  C17 UNL     1      29.443  24.532 -50.543  1.00  0.00     0.480 C 
HETATM   21  N12 UNL     1      30.822  24.081 -50.697  1.00  0.00    -0.033 N 
HETATM   22  N13 UNL     1      29.020  25.020 -51.843  1.00  0.00    -0.033 N 
ATOM     23 3H12 UNL     1      31.436  24.855 -50.947  1.00  0.00     0.278 HD
ATOM     24 2H12 UNL     1      31.231  23.833 -49.795  1.00  0.00     0.278 HD
ATOM     25 1H12 UNL     1      30.906  23.313 -51.363  1.00  0.00     0.278 HD
ATOM     26 3H13 UNL     1      28.085  25.428 -51.827  1.00  0.00     0.278 HD
ATOM     27 2H13 UNL     1      29.528  25.854 -52.135  1.00  0.00     0.278 HD
ATOM     28 1H13 UNL     1      29.104  24.252 -52.509  1.00  0.00     0.278 HD
ATOM     29  H11 UNL     1      29.014  26.513 -49.971  1.00  0.00     0.163 HD
ENDBRANCH  13  19
BRANCH  15  30
HETATM   30  C14 UNL     1      28.981  23.496 -45.249  1.00  0.00     0.312 C 
BRANCH  30  31
HETATM   31  O4  UNL     1      27.810  23.858 -44.584  1.00  0.00    -0.365 OA
ATOM     32  H4  UNL     1      27.746  23.452 -43.728  1.00  0.00     0.213 HD
ENDBRANCH  30  31
BRANCH  30  33
HETATM   33  O5  UNL     1      28.825  22.282 -45.898  1.00  0.00    -0.365 OA
ATOM     34  H5  UNL     1      28.127  21.763 -45.517  1.00  0.00     0.213 HD
ENDBRANCH  30  33
ENDBRANCH  15  30
ENDBRANCH  10  11
BRANCH  10  35
HETATM   35  O1  UNL     1      32.620  26.957 -45.323  1.00  0.00    -0.381 OA
ATOM     36  H1  UNL     1      33.311  27.609 -45.330  1.00  0.00     0.211 HD
ENDBRANCH  10  35
ENDBRANCH   1  10
BRANCH   9  37
HETATM   37  N9  UNL     1      31.578  30.369 -45.182  1.00  0.00    -0.239 N 
ATOM     38  H9  UNL     1      32.486  30.686 -44.842  1.00  0.00     0.208 HD
BRANCH  37  39
HETATM   39  N10 UNL     1      31.132  30.821 -46.427  1.00  0.00    -0.330 N 
ATOM     40 2H10 UNL     1      30.606  31.695 -46.452  1.00  0.00     0.178 HD
ATOM     41 1H10 UNL     1      31.310  30.314 -47.293  1.00  0.00     0.178 HD
ENDBRANCH  37  39
ENDBRANCH   9  37
BRANCH   8  42
HETATM   42  N6  UNL     1      30.273  31.428 -43.056  1.00  0.00    -0.295 N 
HETATM   43  C12 UNL     1      29.711  32.484 -43.746  1.00  0.00     0.334 C 
HETATM   44  N7  UNL     1      28.889  32.493 -44.896  1.00  0.00    -0.040 NA
HETATM   45  O2  UNL     1      29.966  33.670 -43.283  1.00  0.00    -0.251 OA
ATOM     46  H6  UNL     1      30.834  31.684 -42.245  1.00  0.00     0.171 HD
ENDBRANCH   8  42
BRANCH   5  47
HETATM   47  C7  UNL     1      27.989  27.526 -40.972  1.00  0.00     0.681 C 
HETATM   48  N3  UNL     1      28.472  27.489 -39.778  1.00  0.00    -0.188 N 
HETATM   49  C8  UNL     1      27.801  27.931 -38.598  1.00  0.00     0.195 C 
ATOM     50  H3  UNL     1      29.414  27.112 -39.667  1.00  0.00     0.185 HD
HETATM   51  N4  UNL     1      26.443  28.323 -38.783  1.00  0.00    -0.369 N 
HETATM   52  C9  UNL     1      26.138  28.871 -40.068  1.00  0.00     0.262 C 
ATOM     53  H4  UNL     1      25.739  28.220 -38.051  1.00  0.00     0.161 HD
HETATM   54  N5  UNL     1      26.670  28.054 -41.130  1.00  0.00    -0.210 N 
ATOM     55  H5  UNL     1      26.122  27.859 -41.968  1.00  0.00     0.179 HD
ENDBRANCH   5  47
TORSDOF 12
ENDMDL
