MODEL 1
REMARK VINA RESULT: -5.184041435      0.000      0.000
REMARK  7 active torsions:
REMARK  status: ('A' for Active; 'I' for Inactive)
REMARK    1  A    between atoms: N1_2  and  N2_3 
REMARK    2  A    between atoms: N1_2  and  N3_6 
REMARK    3  A    between atoms: N4_8  and  C2_10 
REMARK    4  A    between atoms: C3_11  and  O1_12 
REMARK    5  A    between atoms: C5_18  and  C6_19 
REMARK    6  A    between atoms: C6_19  and  O3_21 
REMARK    7  A    between atoms: O3_21  and  C7_22 
ROOT
HETATM    1  C2  UNL     1      -4.579  23.705 -10.663  1.00  0.00     0.151 A 
HETATM    2  C3  UNL     1      -4.194  24.531  -9.629  1.00  0.00     0.174 A 
HETATM    3  N5  UNL     1      -3.222  24.046  -8.838  1.00  0.00    -0.329 N 
ATOM      4  H5  UNL     1      -2.895  24.613  -8.055  1.00  0.00     0.168 HD
HETATM    5  C4  UNL     1      -2.653  22.813  -9.048  1.00  0.00     0.091 A 
HETATM    6  S1  UNL     1      -1.431  21.929  -8.249  1.00  0.00    -0.065 SA
HETATM    7  C5  UNL     1      -1.418  20.531  -9.221  1.00  0.00     0.083 A 
HETATM    8  C8  UNL     1      -2.377  20.792 -10.155  1.00  0.00     0.043 A 
HETATM    9  C9  UNL     1      -3.020  21.979 -10.066  1.00  0.00     0.052 A 
HETATM   10  C10 UNL     1      -4.042  22.468 -10.912  1.00  0.00     0.217 A 
HETATM   11  O5  UNL     1      -4.475  21.801 -11.887  1.00  0.00    -0.285 OA
ENDROOT
BRANCH   1  12
HETATM   12  N4  UNL     1      -5.606  24.175 -11.527  1.00  0.00    -0.277 N 
HETATM   13  N3  UNL     1      -5.645  25.350 -11.982  1.00  0.00    -0.226 N 
ATOM     14  H3  UNL     1      -4.932  26.042 -11.753  1.00  0.00     0.210 HD
ATOM     15  H4  UNL     1      -6.348  23.529 -11.792  1.00  0.00     0.189 HD
BRANCH  13  16
HETATM   16  N1  UNL     1      -6.735  25.654 -12.828  1.00  0.00    -0.231 N 
HETATM   17  C1  UNL     1      -7.969  24.955 -12.652  1.00  0.00     0.201 C 
BRANCH  16  18
HETATM   18  N2  UNL     1      -6.507  26.639 -13.792  1.00  0.00    -0.328 N 
ATOM     19  H22 UNL     1      -6.464  26.317 -14.759  1.00  0.00     0.178 HD
ATOM     20  H21 UNL     1      -6.384  27.631 -13.593  1.00  0.00     0.178 HD
ENDBRANCH  16  18
ENDBRANCH  13  16
ENDBRANCH   1  12
BRANCH   2  21
HETATM   21  O1  UNL     1      -4.747  25.780  -9.390  1.00  0.00    -0.344 OA
ATOM     22  H1  UNL     1      -5.121  26.043  -8.558  1.00  0.00     0.219 HD
ENDBRANCH   2  21
BRANCH   7  23
HETATM   23  C6  UNL     1      -0.579  19.314  -9.104  1.00  0.00     0.308 C 
HETATM   24  O2  UNL     1      -1.050  18.308  -8.535  1.00  0.00    -0.258 OA
BRANCH  23  25
HETATM   25  O3  UNL     1       0.694  19.275  -9.605  1.00  0.00    -0.225 OA
BRANCH  25  26
HETATM   26  C7  UNL     1       1.538  20.373  -9.538  1.00  0.00     0.380 C 
HETATM   27  N6  UNL     1       1.330  21.501 -10.370  1.00  0.00    -0.032 NA
HETATM   28  O4  UNL     1       2.496  20.335  -8.710  1.00  0.00    -0.242 OA
ENDBRANCH  25  26
ENDBRANCH  23  25
ENDBRANCH   7  23
TORSDOF 7
ENDMDL
MODEL 2
REMARK VINA RESULT: -4.923042684      1.267      1.863
REMARK  7 active torsions:
REMARK  status: ('A' for Active; 'I' for Inactive)
REMARK    1  A    between atoms: N1_2  and  N2_3 
REMARK    2  A    between atoms: N1_2  and  N3_6 
REMARK    3  A    between atoms: N4_8  and  C2_10 
REMARK    4  A    between atoms: C3_11  and  O1_12 
REMARK    5  A    between atoms: C5_18  and  C6_19 
REMARK    6  A    between atoms: C6_19  and  O3_21 
REMARK    7  A    between atoms: O3_21  and  C7_22 
ROOT
HETATM    1  C2  UNL     1      -4.632  23.777 -10.786  1.00  0.00     0.151 A 
HETATM    2  C3  UNL     1      -4.302  24.697  -9.815  1.00  0.00     0.174 A 
HETATM    3  N5  UNL     1      -3.188  24.418  -9.115  1.00  0.00    -0.329 N 
ATOM      4  H5  UNL     1      -2.893  25.062  -8.381  1.00  0.00     0.168 HD
HETATM    5  C4  UNL     1      -2.435  23.294  -9.354  1.00  0.00     0.091 A 
HETATM    6  S1  UNL     1      -1.006  22.666  -8.663  1.00  0.00    -0.065 SA
HETATM    7  C5  UNL     1      -0.840  21.255  -9.600  1.00  0.00     0.083 A 
HETATM    8  C8  UNL     1      -1.915  21.310 -10.439  1.00  0.00     0.043 A 
HETATM    9  C9  UNL     1      -2.744  22.370 -10.311  1.00  0.00     0.052 A 
HETATM   10  C10 UNL     1      -3.913  22.642 -11.061  1.00  0.00     0.217 A 
HETATM   11  O5  UNL     1      -4.313  21.873 -11.973  1.00  0.00    -0.285 OA
ENDROOT
BRANCH   1  12
HETATM   12  N4  UNL     1      -5.803  24.029 -11.553  1.00  0.00    -0.277 N 
HETATM   13  N3  UNL     1      -5.982  25.084 -12.219  1.00  0.00    -0.226 N 
ATOM     14  H3  UNL     1      -5.286  25.829 -12.247  1.00  0.00     0.210 HD
ATOM     15  H4  UNL     1      -6.535  23.320 -11.564  1.00  0.00     0.189 HD
BRANCH  13  16
HETATM   16  N1  UNL     1      -7.202  25.175 -12.926  1.00  0.00    -0.231 N 
HETATM   17  C1  UNL     1      -8.345  24.471 -12.434  1.00  0.00     0.201 C 
BRANCH  16  18
HETATM   18  N2  UNL     1      -7.187  25.967 -14.076  1.00  0.00    -0.328 N 
ATOM     19  H22 UNL     1      -7.709  26.841 -14.023  1.00  0.00     0.178 HD
ATOM     20  H21 UNL     1      -6.699  25.730 -14.939  1.00  0.00     0.178 HD
ENDBRANCH  16  18
ENDBRANCH  13  16
ENDBRANCH   1  12
BRANCH   2  21
HETATM   21  O1  UNL     1      -5.040  25.839  -9.548  1.00  0.00    -0.344 OA
ATOM     22  H1  UNL     1      -4.739  26.546  -8.989  1.00  0.00     0.219 HD
ENDBRANCH   2  21
BRANCH   7  23
HETATM   23  C6  UNL     1       0.206  20.206  -9.542  1.00  0.00     0.308 C 
HETATM   24  O2  UNL     1       1.406  20.545  -9.613  1.00  0.00    -0.258 OA
BRANCH  23  25
HETATM   25  O3  UNL     1      -0.117  18.882  -9.414  1.00  0.00    -0.225 OA
BRANCH  25  26
HETATM   26  C7  UNL     1      -1.200  18.467  -8.655  1.00  0.00     0.380 C 
HETATM   27  N6  UNL     1      -2.431  19.167  -8.700  1.00  0.00    -0.032 NA
HETATM   28  O4  UNL     1      -1.053  17.443  -7.922  1.00  0.00    -0.242 OA
ENDBRANCH  25  26
ENDBRANCH  23  25
ENDBRANCH   7  23
TORSDOF 7
ENDMDL
MODEL 3
REMARK VINA RESULT: -4.554232582      2.763      7.327
REMARK  7 active torsions:
REMARK  status: ('A' for Active; 'I' for Inactive)
REMARK    1  A    between atoms: N1_2  and  N2_3 
REMARK    2  A    between atoms: N1_2  and  N3_6 
REMARK    3  A    between atoms: N4_8  and  C2_10 
REMARK    4  A    between atoms: C3_11  and  O1_12 
REMARK    5  A    between atoms: C5_18  and  C6_19 
REMARK    6  A    between atoms: C6_19  and  O3_21 
REMARK    7  A    between atoms: O3_21  and  C7_22 
ROOT
HETATM    1  C2  UNL     1      -2.175  21.964  -9.205  1.00  0.00     0.151 A 
HETATM    2  C3  UNL     1      -2.783  22.071  -7.973  1.00  0.00     0.174 A 
HETATM    3  N5  UNL     1      -4.067  22.468  -8.000  1.00  0.00    -0.329 N 
ATOM      4  H5  UNL     1      -4.570  22.567  -7.117  1.00  0.00     0.168 HD
HETATM    5  C4  UNL     1      -4.724  22.746  -9.174  1.00  0.00     0.091 A 
HETATM    6  S1  UNL     1      -6.310  23.257  -9.543  1.00  0.00    -0.065 SA
HETATM    7  C5  UNL     1      -6.192  23.331 -11.239  1.00  0.00     0.083 A 
HETATM    8  C8  UNL     1      -4.904  22.950 -11.478  1.00  0.00     0.043 A 
HETATM    9  C9  UNL     1      -4.140  22.646 -10.404  1.00  0.00     0.052 A 
HETATM   10  C10 UNL     1      -2.788  22.230 -10.401  1.00  0.00     0.217 A 
HETATM   11  O5  UNL     1      -2.130  22.097 -11.466  1.00  0.00    -0.285 OA
ENDROOT
BRANCH   1  12
HETATM   12  N4  UNL     1      -0.815  21.547  -9.227  1.00  0.00    -0.277 N 
HETATM   13  N3  UNL     1      -0.406  20.549  -9.880  1.00  0.00    -0.226 N 
ATOM     14  H3  UNL     1      -1.037  19.974 -10.438  1.00  0.00     0.210 HD
ATOM     15  H4  UNL     1      -0.136  22.083  -8.688  1.00  0.00     0.189 HD
BRANCH  13  16
HETATM   16  N1  UNL     1       0.977  20.273  -9.794  1.00  0.00    -0.231 N 
HETATM   17  C1  UNL     1       1.863  21.294  -9.329  1.00  0.00     0.201 C 
BRANCH  16  18
HETATM   18  N2  UNL     1       1.371  18.991 -10.181  1.00  0.00    -0.328 N 
ATOM     19  H22 UNL     1       1.658  18.886 -11.155  1.00  0.00     0.178 HD
ATOM     20  H21 UNL     1       1.389  18.177  -9.567  1.00  0.00     0.178 HD
ENDBRANCH  16  18
ENDBRANCH  13  16
ENDBRANCH   1  12
BRANCH   2  21
HETATM   21  O1  UNL     1      -2.149  21.799  -6.771  1.00  0.00    -0.344 OA
ATOM     22  H1  UNL     1      -2.233  22.338  -5.993  1.00  0.00     0.219 HD
ENDBRANCH   2  21
BRANCH   7  23
HETATM   23  C6  UNL     1      -7.220  23.711 -12.237  1.00  0.00     0.308 C 
HETATM   24  O2  UNL     1      -8.013  22.840 -12.649  1.00  0.00    -0.258 OA
BRANCH  23  25
HETATM   25  O3  UNL     1      -7.315  24.992 -12.711  1.00  0.00    -0.225 OA
BRANCH  25  26
HETATM   26  C7  UNL     1      -6.496  25.454 -13.729  1.00  0.00     0.380 C 
HETATM   27  N6  UNL     1      -6.339  26.842 -13.963  1.00  0.00    -0.032 NA
HETATM   28  O4  UNL     1      -5.893  24.596 -14.440  1.00  0.00    -0.242 OA
ENDBRANCH  25  26
ENDBRANCH  23  25
ENDBRANCH   7  23
TORSDOF 7
ENDMDL
MODEL 4
REMARK VINA RESULT: -4.352241643      2.923      7.413
REMARK  7 active torsions:
REMARK  status: ('A' for Active; 'I' for Inactive)
REMARK    1  A    between atoms: N1_2  and  N2_3 
REMARK    2  A    between atoms: N1_2  and  N3_6 
REMARK    3  A    between atoms: N4_8  and  C2_10 
REMARK    4  A    between atoms: C3_11  and  O1_12 
REMARK    5  A    between atoms: C5_18  and  C6_19 
REMARK    6  A    between atoms: C6_19  and  O3_21 
REMARK    7  A    between atoms: O3_21  and  C7_22 
ROOT
HETATM    1  C2  UNL     1      -2.614  22.466  -9.911  1.00  0.00     0.151 A 
HETATM    2  C3  UNL     1      -2.427  23.544  -9.075  1.00  0.00     0.174 A 
HETATM    3  N5  UNL     1      -3.347  24.518  -9.179  1.00  0.00    -0.329 N 
ATOM      4  H5  UNL     1      -3.260  25.343  -8.584  1.00  0.00     0.168 HD
HETATM    5  C4  UNL     1      -4.400  24.441 -10.058  1.00  0.00     0.091 A 
HETATM    6  S1  UNL     1      -5.706  25.477 -10.424  1.00  0.00    -0.065 SA
HETATM    7  C5  UNL     1      -6.473  24.545 -11.625  1.00  0.00     0.083 A 
HETATM    8  C8  UNL     1      -5.683  23.436 -11.710  1.00  0.00     0.043 A 
HETATM    9  C9  UNL     1      -4.605  23.381 -10.895  1.00  0.00     0.052 A 
HETATM   10  C10 UNL     1      -3.648  22.344 -10.804  1.00  0.00     0.217 A 
HETATM   11  O5  UNL     1      -3.716  21.310 -11.519  1.00  0.00    -0.285 OA
ENDROOT
BRANCH   1  12
HETATM   12  N4  UNL     1      -1.665  21.409  -9.838  1.00  0.00    -0.277 N 
HETATM   13  N3  UNL     1      -1.678  20.527  -8.938  1.00  0.00    -0.226 N 
ATOM     14  H3  UNL     1      -2.380  20.520  -8.199  1.00  0.00     0.210 HD
ATOM     15  H4  UNL     1      -0.937  21.364 -10.550  1.00  0.00     0.189 HD
BRANCH  13  16
HETATM   16  N1  UNL     1      -0.662  19.548  -9.012  1.00  0.00    -0.231 N 
HETATM   17  C1  UNL     1       0.638  19.926  -9.472  1.00  0.00     0.201 C 
BRANCH  16  18
HETATM   18  N2  UNL     1      -1.024  18.258  -8.618  1.00  0.00    -0.328 N 
ATOM     19  H22 UNL     1      -1.345  18.158  -7.655  1.00  0.00     0.178 HD
ATOM     20  H21 UNL     1      -0.987  17.434  -9.218  1.00  0.00     0.178 HD
ENDBRANCH  16  18
ENDBRANCH  13  16
ENDBRANCH   1  12
BRANCH   2  21
HETATM   21  O1  UNL     1      -1.376  23.654  -8.177  1.00  0.00    -0.344 OA
ATOM     22  H1  UNL     1      -0.945  24.473  -7.962  1.00  0.00     0.219 HD
ENDBRANCH   2  21
BRANCH   7  23
HETATM   23  C6  UNL     1      -7.700  24.840 -12.402  1.00  0.00     0.308 C 
HETATM   24  O2  UNL     1      -8.812  24.582 -11.898  1.00  0.00    -0.258 OA
BRANCH  23  25
HETATM   25  O3  UNL     1      -7.636  25.387 -13.656  1.00  0.00    -0.225 OA
BRANCH  25  26
HETATM   26  C7  UNL     1      -6.429  25.762 -14.226  1.00  0.00     0.380 C 
HETATM   27  N6  UNL     1      -6.042  27.123 -14.281  1.00  0.00    -0.032 NA
HETATM   28  O4  UNL     1      -5.686  24.848 -14.694  1.00  0.00    -0.242 OA
ENDBRANCH  25  26
ENDBRANCH  23  25
ENDBRANCH   7  23
TORSDOF 7
ENDMDL
MODEL 5
REMARK VINA RESULT: -4.197158027      2.793      7.294
REMARK  7 active torsions:
REMARK  status: ('A' for Active; 'I' for Inactive)
REMARK    1  A    between atoms: N1_2  and  N2_3 
REMARK    2  A    between atoms: N1_2  and  N3_6 
REMARK    3  A    between atoms: N4_8  and  C2_10 
REMARK    4  A    between atoms: C3_11  and  O1_12 
REMARK    5  A    between atoms: C5_18  and  C6_19 
REMARK    6  A    between atoms: C6_19  and  O3_21 
REMARK    7  A    between atoms: O3_21  and  C7_22 
ROOT
HETATM    1  C2  UNL     1      -2.556  22.616  -9.446  1.00  0.00     0.151 A 
HETATM    2  C3  UNL     1      -2.499  23.755  -8.673  1.00  0.00     0.174 A 
HETATM    3  N5  UNL     1      -3.466  24.658  -8.911  1.00  0.00    -0.329 N 
ATOM      4  H5  UNL     1      -3.476  25.523  -8.369  1.00  0.00     0.168 HD
HETATM    5  C4  UNL     1      -4.441  24.457  -9.858  1.00  0.00     0.091 A 
HETATM    6  S1  UNL     1      -5.773  25.380 -10.390  1.00  0.00    -0.065 SA
HETATM    7  C5  UNL     1      -6.386  24.326 -11.578  1.00  0.00     0.083 A 
HETATM    8  C8  UNL     1      -5.527  23.268 -11.529  1.00  0.00     0.043 A 
HETATM    9  C9  UNL     1      -4.514  23.336 -10.634  1.00  0.00     0.052 A 
HETATM   10  C10 UNL     1      -3.507  22.370 -10.402  1.00  0.00     0.217 A 
HETATM   11  O5  UNL     1      -3.457  21.291 -11.049  1.00  0.00    -0.285 OA
ENDROOT
BRANCH   1  12
HETATM   12  N4  UNL     1      -1.553  21.630  -9.231  1.00  0.00    -0.277 N 
HETATM   13  N3  UNL     1      -0.675  21.335 -10.086  1.00  0.00    -0.226 N 
ATOM     14  H3  UNL     1      -0.634  21.794 -10.996  1.00  0.00     0.210 HD
ATOM     15  H4  UNL     1      -1.544  21.137  -8.338  1.00  0.00     0.189 HD
BRANCH  13  16
HETATM   16  N1  UNL     1       0.247  20.333  -9.711  1.00  0.00    -0.231 N 
HETATM   17  C1  UNL     1      -0.230  19.011  -9.450  1.00  0.00     0.201 C 
BRANCH  16  18
HETATM   18  N2  UNL     1       1.583  20.730  -9.627  1.00  0.00    -0.328 N 
ATOM     19  H22 UNL     1       1.768  21.717  -9.805  1.00  0.00     0.178 HD
ATOM     20  H21 UNL     1       2.361  20.111  -9.403  1.00  0.00     0.178 HD
ENDBRANCH  16  18
ENDBRANCH  13  16
ENDBRANCH   1  12
BRANCH   2  21
HETATM   21  O1  UNL     1      -1.531  23.989  -7.709  1.00  0.00    -0.344 OA
ATOM     22  H1  UNL     1      -1.696  23.969  -6.774  1.00  0.00     0.219 HD
ENDBRANCH   2  21
BRANCH   7  23
HETATM   23  C6  UNL     1      -7.564  24.491 -12.463  1.00  0.00     0.308 C 
HETATM   24  O2  UNL     1      -8.552  23.747 -12.299  1.00  0.00    -0.258 OA
BRANCH  23  25
HETATM   25  O3  UNL     1      -7.587  25.439 -13.451  1.00  0.00    -0.225 OA
BRANCH  25  26
HETATM   26  C7  UNL     1      -6.448  25.771 -14.168  1.00  0.00     0.380 C 
HETATM   27  N6  UNL     1      -6.086  27.125 -14.372  1.00  0.00    -0.032 NA
HETATM   28  O4  UNL     1      -5.744  24.826 -14.632  1.00  0.00    -0.242 OA
ENDBRANCH  25  26
ENDBRANCH  23  25
ENDBRANCH   7  23
TORSDOF 7
ENDMDL
