MODEL 1
REMARK VINA RESULT: -2.860814439      0.000      0.000
REMARK  5 active torsions:
REMARK  status: ('A' for Active; 'I' for Inactive)
REMARK    1  A    between atoms: O1_2  and  C2_3 
REMARK    2  A    between atoms: C3_4  and  C4_5 
REMARK       I    between atoms: C4_5  and  N1_7 
REMARK    3  A    between atoms: N1_7  and  N2_9 
REMARK    4  A    between atoms: C6_15  and  C7_16 
REMARK    5  A    between atoms: C10_26  and  O3_27 
ROOT
HETATM    1  C2  UNL     1      -6.671  23.739 -11.394  1.00  0.00     0.129 A 
HETATM    2  C3  UNL     1      -6.567  22.421 -11.750  1.00  0.00     0.139 A 
HETATM    3  N3  UNL     1      -5.425  21.912 -11.207  1.00  0.00    -0.347 N 
ATOM      4  H3  UNL     1      -5.084  20.956 -11.301  1.00  0.00     0.166 HD
HETATM    5  C5  UNL     1      -4.842  22.888 -10.535  1.00  0.00     0.078 A 
HETATM    6  C6  UNL     1      -3.649  22.843  -9.811  1.00  0.00     0.064 A 
HETATM    7  C8  UNL     1      -3.186  23.972  -9.165  1.00  0.00     0.111 A 
HETATM    8  C9  UNL     1      -1.946  23.948  -8.406  1.00  0.00     0.105 C 
HETATM    9  N8  UNL     1      -0.969  23.927  -7.785  1.00  0.00    -0.191 NA
HETATM   10  C10 UNL     1      -3.947  25.118  -9.270  1.00  0.00     0.163 A 
HETATM   11  N9  UNL     1      -5.103  25.128  -9.981  1.00  0.00    -0.332 N 
ATOM     12  H9  UNL     1      -5.641  25.993 -10.036  1.00  0.00     0.168 HD
HETATM   13  C11 UNL     1      -5.559  24.047 -10.608  1.00  0.00     0.098 A 
ENDROOT
BRANCH   6  14
HETATM   14  C7  UNL     1      -2.861  21.632  -9.712  1.00  0.00     0.145 A 
HETATM   15  N4  UNL     1      -2.848  20.816  -8.647  1.00  0.00    -0.270 N 
HETATM   16  N5  UNL     1      -2.025  19.798  -8.875  1.00  0.00    -0.007 NA
ATOM     17  H4  UNL     1      -3.388  20.956  -7.793  1.00  0.00     0.185 HD
HETATM   18  N6  UNL     1      -1.512  19.964 -10.081  1.00  0.00    -0.007 NA
HETATM   19  N7  UNL     1      -2.019  21.078 -10.594  1.00  0.00    -0.270 N 
ATOM     20  H7  UNL     1      -1.800  21.455 -11.517  1.00  0.00     0.185 HD
ENDBRANCH   6  14
BRANCH  10  21
HETATM   21  O3  UNL     1      -3.512  26.269  -8.633  1.00  0.00    -0.345 OA
ATOM     22  H3  UNL     1      -4.010  26.599  -7.894  1.00  0.00     0.219 HD
ENDBRANCH  10  21
BRANCH   2  23
HETATM   23  C4  UNL     1      -7.466  21.597 -12.521  1.00  0.00     0.289 C 
HETATM   24  O2  UNL     1      -7.604  21.812 -13.769  1.00  0.00    -0.264 OA
HETATM   25  N1  UNL     1      -8.219  20.538 -11.963  1.00  0.00    -0.271 N 
ATOM     26  H1  UNL     1      -8.136  20.325 -10.969  1.00  0.00     0.189 HD
BRANCH  25  27
HETATM   27  N2  UNL     1      -9.089  19.769 -12.781  1.00  0.00    -0.342 N 
ATOM     28  H22 UNL     1      -9.318  20.112 -13.714  1.00  0.00     0.176 HD
ATOM     29  H21 UNL     1      -9.476  18.891 -12.437  1.00  0.00     0.176 HD
ENDBRANCH  25  27
ENDBRANCH   2  23
BRANCH   1  30
HETATM   30  O1  UNL     1      -7.640  24.674 -11.701  1.00  0.00    -0.351 OA
HETATM   31  C1  UNL     1      -7.610  25.397 -12.928  1.00  0.00     0.210 C 
ENDBRANCH   1  30
TORSDOF 5
ENDMDL
MODEL 2
REMARK VINA RESULT: -2.563977942      2.018      5.590
REMARK  5 active torsions:
REMARK  status: ('A' for Active; 'I' for Inactive)
REMARK    1  A    between atoms: O1_2  and  C2_3 
REMARK    2  A    between atoms: C3_4  and  C4_5 
REMARK       I    between atoms: C4_5  and  N1_7 
REMARK    3  A    between atoms: N1_7  and  N2_9 
REMARK    4  A    between atoms: C6_15  and  C7_16 
REMARK    5  A    between atoms: C10_26  and  O3_27 
ROOT
HETATM    1  C2  UNL     1      -2.896  23.329  -9.170  1.00  0.00     0.129 A 
HETATM    2  C3  UNL     1      -2.998  21.980  -9.387  1.00  0.00     0.139 A 
HETATM    3  N3  UNL     1      -4.135  21.740 -10.101  1.00  0.00    -0.347 N 
ATOM      4  H3  UNL     1      -4.473  20.829 -10.410  1.00  0.00     0.166 HD
HETATM    5  C5  UNL     1      -4.715  22.906 -10.318  1.00  0.00     0.078 A 
HETATM    6  C6  UNL     1      -5.903  23.162 -11.007  1.00  0.00     0.064 A 
HETATM    7  C8  UNL     1      -6.364  24.457 -11.137  1.00  0.00     0.111 A 
HETATM    8  C9  UNL     1      -7.598  24.747 -11.849  1.00  0.00     0.105 C 
HETATM    9  N8  UNL     1      -8.570  24.983 -12.432  1.00  0.00    -0.191 NA
HETATM   10  C10 UNL     1      -5.607  25.458 -10.564  1.00  0.00     0.163 A 
HETATM   11  N9  UNL     1      -4.457  25.176  -9.902  1.00  0.00    -0.332 N 
ATOM     12  H9  UNL     1      -3.923  25.942  -9.492  1.00  0.00     0.168 HD
HETATM   13  C11 UNL     1      -4.002  23.932  -9.770  1.00  0.00     0.098 A 
ENDROOT
BRANCH   6  14
HETATM   14  C7  UNL     1      -6.685  22.098 -11.601  1.00  0.00     0.145 A 
HETATM   15  N4  UNL     1      -7.609  21.375 -10.948  1.00  0.00    -0.270 N 
HETATM   16  N5  UNL     1      -8.143  20.483 -11.775  1.00  0.00    -0.007 NA
ATOM     17  H4  UNL     1      -7.861  21.493  -9.966  1.00  0.00     0.185 HD
HETATM   18  N6  UNL     1      -7.562  20.634 -12.952  1.00  0.00    -0.007 NA
HETATM   19  N7  UNL     1      -6.675  21.617 -12.850  1.00  0.00    -0.270 N 
ATOM     20  H7  UNL     1      -6.078  21.952 -13.606  1.00  0.00     0.185 HD
ENDBRANCH   6  14
BRANCH  10  21
HETATM   21  O3  UNL     1      -6.041  26.770 -10.677  1.00  0.00    -0.345 OA
ATOM     22  H3  UNL     1      -5.701  27.305 -11.385  1.00  0.00     0.219 HD
ENDBRANCH  10  21
BRANCH   2  23
HETATM   23  C4  UNL     1      -2.103  20.912  -9.015  1.00  0.00     0.289 C 
HETATM   24  O2  UNL     1      -1.631  20.870  -7.832  1.00  0.00    -0.264 OA
HETATM   25  N1  UNL     1      -1.710  19.885  -9.902  1.00  0.00    -0.271 N 
ATOM     26  H1  UNL     1      -2.067  19.875 -10.858  1.00  0.00     0.189 HD
BRANCH  25  27
HETATM   27  N2  UNL     1      -0.821  18.866  -9.470  1.00  0.00    -0.342 N 
ATOM     28  H22 UNL     1      -0.977  18.429  -8.562  1.00  0.00     0.176 HD
ATOM     29  H21 UNL     1      -0.040  18.578 -10.061  1.00  0.00     0.176 HD
ENDBRANCH  25  27
ENDBRANCH   2  23
BRANCH   1  30
HETATM   30  O1  UNL     1      -1.932  24.055  -8.498  1.00  0.00    -0.351 OA
HETATM   31  C1  UNL     1      -2.138  24.500  -7.161  1.00  0.00     0.210 C 
ENDBRANCH   1  30
TORSDOF 5
ENDMDL
MODEL 3
REMARK VINA RESULT: -2.056595638      2.725      4.109
REMARK  5 active torsions:
REMARK  status: ('A' for Active; 'I' for Inactive)
REMARK    1  A    between atoms: O1_2  and  C2_3 
REMARK    2  A    between atoms: C3_4  and  C4_5 
REMARK       I    between atoms: C4_5  and  N1_7 
REMARK    3  A    between atoms: N1_7  and  N2_9 
REMARK    4  A    between atoms: C6_15  and  C7_16 
REMARK    5  A    between atoms: C10_26  and  O3_27 
ROOT
HETATM    1  C2  UNL     1      -4.763  22.691 -12.064  1.00  0.00     0.129 A 
HETATM    2  C3  UNL     1      -5.495  23.625 -11.382  1.00  0.00     0.139 A 
HETATM    3  N3  UNL     1      -5.023  23.699 -10.105  1.00  0.00    -0.347 N 
ATOM      4  H3  UNL     1      -5.373  24.309  -9.365  1.00  0.00     0.166 HD
HETATM    5  C5  UNL     1      -4.029  22.837 -10.003  1.00  0.00     0.078 A 
HETATM    6  C6  UNL     1      -3.238  22.560  -8.886  1.00  0.00     0.064 A 
HETATM    7  C8  UNL     1      -2.233  21.617  -8.964  1.00  0.00     0.111 A 
HETATM    8  C9  UNL     1      -1.398  21.313  -7.813  1.00  0.00     0.105 C 
HETATM    9  N8  UNL     1      -0.719  21.083  -6.904  1.00  0.00    -0.191 NA
HETATM   10  C10 UNL     1      -2.056  20.979 -10.174  1.00  0.00     0.163 A 
HETATM   11  N9  UNL     1      -2.841  21.272 -11.242  1.00  0.00    -0.332 N 
ATOM     12  H9  UNL     1      -2.681  20.780 -12.121  1.00  0.00     0.168 HD
HETATM   13  C11 UNL     1      -3.814  22.178 -11.179  1.00  0.00     0.098 A 
ENDROOT
BRANCH   6  14
HETATM   14  C7  UNL     1      -3.438  23.239  -7.623  1.00  0.00     0.145 A 
HETATM   15  N4  UNL     1      -2.974  24.465  -7.333  1.00  0.00    -0.270 N 
HETATM   16  N5  UNL     1      -3.329  24.795  -6.096  1.00  0.00    -0.007 NA
ATOM     17  H4  UNL     1      -2.431  25.052  -7.967  1.00  0.00     0.185 HD
HETATM   18  N6  UNL     1      -4.016  23.784  -5.596  1.00  0.00    -0.007 NA
HETATM   19  N7  UNL     1      -4.086  22.835  -6.522  1.00  0.00    -0.270 N 
ATOM     20  H7  UNL     1      -4.558  21.938  -6.412  1.00  0.00     0.185 HD
ENDBRANCH   6  14
BRANCH  10  21
HETATM   21  O3  UNL     1      -1.055  20.027 -10.287  1.00  0.00    -0.345 OA
ATOM     22  H3  UNL     1      -0.151  20.298 -10.173  1.00  0.00     0.219 HD
ENDBRANCH  10  21
BRANCH   2  23
HETATM   23  C4  UNL     1      -6.569  24.474 -11.838  1.00  0.00     0.289 C 
HETATM   24  O2  UNL     1      -7.398  24.949 -10.995  1.00  0.00    -0.264 OA
HETATM   25  N1  UNL     1      -6.760  24.821 -13.195  1.00  0.00    -0.271 N 
ATOM     26  H1  UNL     1      -6.117  24.468 -13.905  1.00  0.00     0.189 HD
BRANCH  25  27
HETATM   27  N2  UNL     1      -7.842  25.658 -13.575  1.00  0.00    -0.342 N 
ATOM     28  H22 UNL     1      -7.679  26.661 -13.669  1.00  0.00     0.176 HD
ATOM     29  H21 UNL     1      -8.764  25.260 -13.750  1.00  0.00     0.176 HD
ENDBRANCH  25  27
ENDBRANCH   2  23
BRANCH   1  30
HETATM   30  O1  UNL     1      -4.863  22.259 -13.372  1.00  0.00    -0.351 OA
HETATM   31  C1  UNL     1      -3.711  21.866 -14.113  1.00  0.00     0.210 C 
ENDBRANCH   1  30
TORSDOF 5
ENDMDL
MODEL 4
REMARK VINA RESULT: 1.109318996      2.073      2.265
REMARK  5 active torsions:
REMARK  status: ('A' for Active; 'I' for Inactive)
REMARK    1  A    between atoms: O1_2  and  C2_3 
REMARK    2  A    between atoms: C3_4  and  C4_5 
REMARK       I    between atoms: C4_5  and  N1_7 
REMARK    3  A    between atoms: N1_7  and  N2_9 
REMARK    4  A    between atoms: C6_15  and  C7_16 
REMARK    5  A    between atoms: C10_26  and  O3_27 
ROOT
HETATM    1  C2  UNL     1      -5.217  24.354 -10.511  1.00  0.00     0.129 A 
HETATM    2  C3  UNL     1      -5.164  23.343 -11.433  1.00  0.00     0.139 A 
HETATM    3  N3  UNL     1      -4.293  22.394 -10.987  1.00  0.00    -0.347 N 
ATOM      4  H3  UNL     1      -4.049  21.525 -11.463  1.00  0.00     0.166 HD
HETATM    5  C5  UNL     1      -3.823  22.808  -9.825  1.00  0.00     0.078 A 
HETATM    6  C6  UNL     1      -2.903  22.169  -8.990  1.00  0.00     0.064 A 
HETATM    7  C8  UNL     1      -2.523  22.756  -7.799  1.00  0.00     0.111 A 
HETATM    8  C9  UNL     1      -1.567  22.109  -6.916  1.00  0.00     0.105 C 
HETATM    9  N8  UNL     1      -0.820  21.588  -6.200  1.00  0.00    -0.191 NA
HETATM   10  C10 UNL     1      -3.087  23.975  -7.486  1.00  0.00     0.163 A 
HETATM   11  N9  UNL     1      -3.979  24.569  -8.319  1.00  0.00    -0.332 N 
ATOM     12  H9  UNL     1      -4.377  25.471  -8.055  1.00  0.00     0.168 HD
HETATM   13  C11 UNL     1      -4.353  24.014  -9.470  1.00  0.00     0.098 A 
ENDROOT
BRANCH   6  14
HETATM   14  C7  UNL     1      -2.320  20.890  -9.335  1.00  0.00     0.145 A 
HETATM   15  N4  UNL     1      -2.371  19.795  -8.560  1.00  0.00    -0.270 N 
HETATM   16  N5  UNL     1      -1.742  18.792  -9.164  1.00  0.00    -0.007 NA
ATOM     17  H4  UNL     1      -2.824  19.741  -7.648  1.00  0.00     0.185 HD
HETATM   18  N6  UNL     1      -1.289  19.244 -10.319  1.00  0.00    -0.007 NA
HETATM   19  N7  UNL     1      -1.639  20.520 -10.427  1.00  0.00    -0.270 N 
ATOM     20  H7  UNL     1      -1.422  21.126 -11.219  1.00  0.00     0.185 HD
ENDBRANCH   6  14
BRANCH  10  21
HETATM   21  O3  UNL     1      -2.728  24.591  -6.298  1.00  0.00    -0.345 OA
ATOM     22  H3  UNL     1      -2.711  24.073  -5.501  1.00  0.00     0.219 HD
ENDBRANCH  10  21
BRANCH   2  23
HETATM   23  C4  UNL     1      -5.888  23.179 -12.670  1.00  0.00     0.289 C 
HETATM   24  O2  UNL     1      -6.533  22.102 -12.884  1.00  0.00    -0.264 OA
HETATM   25  N1  UNL     1      -5.927  24.165 -13.682  1.00  0.00    -0.271 N 
ATOM     26  H1  UNL     1      -5.430  25.047 -13.553  1.00  0.00     0.189 HD
BRANCH  25  27
HETATM   27  N2  UNL     1      -6.656  23.935 -14.879  1.00  0.00    -0.342 N 
ATOM     28  H22 UNL     1      -6.772  22.977 -15.209  1.00  0.00     0.176 HD
ATOM     29  H21 UNL     1      -7.056  24.717 -15.397  1.00  0.00     0.176 HD
ENDBRANCH  25  27
ENDBRANCH   2  23
BRANCH   1  30
HETATM   30  O1  UNL     1      -5.944  25.529 -10.514  1.00  0.00    -0.351 OA
HETATM   31  C1  UNL     1      -6.932  25.787 -11.507  1.00  0.00     0.210 C 
ENDBRANCH   1  30
TORSDOF 5
ENDMDL
