MODEL 1
REMARK VINA RESULT: -7.200412752      0.000      0.000
REMARK  3 active torsions:
REMARK  status: ('A' for Active; 'I' for Inactive)
REMARK    1  A    between atoms: N1_2  and  S1_5 
REMARK    2  A    between atoms: S1_5  and  C3_8 
REMARK    3  A    between atoms: C5_12  and  C6_13 
ROOT
HETATM    1  C1  UNL     1      -3.015  23.815  -5.788  1.00  0.00     0.183 C 
HETATM    2  N1  UNL     1      -3.200  22.895  -6.887  1.00  0.00    -0.212 N 
HETATM    3  C2  UNL     1      -4.226  21.947  -6.840  1.00  0.00     0.194 C 
HETATM    4  N2  UNL     1      -5.080  21.164  -6.805  1.00  0.00    -0.171 NA
ENDROOT
BRANCH   2   5
HETATM    5  S1  UNL     1      -2.151  22.996  -8.228  1.00  0.00     0.277 S 
HETATM    6  O1  UNL     1      -1.100  21.913  -8.072  1.00  0.00    -0.199 OA
HETATM    7  O2  UNL     1      -1.430  24.300  -8.313  1.00  0.00    -0.199 OA
BRANCH   5   8
HETATM    8  C3  UNL     1      -3.049  22.726  -9.752  1.00  0.00     0.137 A 
HETATM    9  C4  UNL     1      -2.581  21.816 -10.670  1.00  0.00     0.113 A 
HETATM   10  N3  UNL     1      -1.405  20.997 -10.583  1.00  0.00    -0.093 NA
HETATM   11  S2  UNL     1      -3.753  21.920 -11.914  1.00  0.00    -0.069 SA
HETATM   12  C5  UNL     1      -4.780  23.094 -11.242  1.00  0.00     0.065 A 
HETATM   13  C8  UNL     1      -4.177  23.382 -10.046  1.00  0.00     0.091 A 
HETATM   14  N7  UNL     1      -4.792  24.370  -9.178  1.00  0.00    -0.099 NA
BRANCH  12  15
HETATM   15  C6  UNL     1      -6.003  23.654 -11.806  1.00  0.00     0.121 A 
HETATM   16  N4  UNL     1      -6.271  24.967 -11.959  1.00  0.00    -0.237 N 
HETATM   17  O3  UNL     1      -7.448  25.126 -12.493  1.00  0.00    -0.155 OA
ATOM     18  H4  UNL     1      -5.643  25.726 -11.694  1.00  0.00     0.197 HD
HETATM   19  N5  UNL     1      -7.996  23.962 -12.710  1.00  0.00    -0.224 N 
HETATM   20  C7  UNL     1      -7.115  23.022 -12.290  1.00  0.00     0.151 A 
ATOM     21  H5  UNL     1      -8.916  23.791 -13.119  1.00  0.00     0.198 HD
HETATM   22  N6  UNL     1      -7.353  21.774 -12.365  1.00  0.00    -0.382 N 
ATOM     23  H62 UNL     1      -6.689  21.066 -12.049  1.00  0.00     0.157 HD
ATOM     24  H61 UNL     1      -8.182  21.302 -12.727  1.00  0.00     0.157 HD
ENDBRANCH  12  15
ENDBRANCH   5   8
ENDBRANCH   2   5
TORSDOF 3
ENDMDL
MODEL 2
REMARK VINA RESULT: -7.188847239      2.370      6.136
REMARK  3 active torsions:
REMARK  status: ('A' for Active; 'I' for Inactive)
REMARK    1  A    between atoms: N1_2  and  S1_5 
REMARK    2  A    between atoms: S1_5  and  C3_8 
REMARK    3  A    between atoms: C5_12  and  C6_13 
ROOT
HETATM    1  C1  UNL     1      -4.577  25.366  -9.935  1.00  0.00     0.183 C 
HETATM    2  N1  UNL     1      -5.475  24.570 -10.740  1.00  0.00    -0.212 N 
HETATM    3  C2  UNL     1      -6.170  25.159 -11.800  1.00  0.00     0.194 C 
HETATM    4  N2  UNL     1      -6.743  25.644 -12.684  1.00  0.00    -0.171 NA
ENDROOT
BRANCH   2   5
HETATM    5  S1  UNL     1      -5.663  22.916 -10.371  1.00  0.00     0.277 S 
HETATM    6  O1  UNL     1      -5.669  22.149 -11.681  1.00  0.00    -0.199 OA
HETATM    7  O2  UNL     1      -6.949  22.612  -9.678  1.00  0.00    -0.199 OA
BRANCH   5   8
HETATM    8  C3  UNL     1      -4.306  22.338  -9.359  1.00  0.00     0.137 A 
HETATM    9  C4  UNL     1      -4.450  22.272  -7.993  1.00  0.00     0.113 A 
HETATM   10  N3  UNL     1      -5.601  22.618  -7.208  1.00  0.00    -0.093 NA
HETATM   11  S2  UNL     1      -2.924  21.677  -7.496  1.00  0.00    -0.069 SA
HETATM   12  C5  UNL     1      -2.165  21.534  -9.009  1.00  0.00     0.065 A 
HETATM   13  C8  UNL     1      -3.133  21.961  -9.879  1.00  0.00     0.091 A 
HETATM   14  N7  UNL     1      -2.832  21.975 -11.300  1.00  0.00    -0.099 NA
BRANCH  12  15
HETATM   15  C6  UNL     1      -0.813  21.072  -9.301  1.00  0.00     0.121 A 
HETATM   16  N4  UNL     1       0.255  21.860  -9.541  1.00  0.00    -0.237 N 
HETATM   17  O3  UNL     1       1.310  21.131  -9.766  1.00  0.00    -0.155 OA
ATOM     18  H4  UNL     1       0.238  22.880  -9.546  1.00  0.00     0.197 HD
HETATM   19  N5  UNL     1       0.998  19.866  -9.690  1.00  0.00    -0.224 N 
HETATM   20  C7  UNL     1      -0.324  19.798  -9.400  1.00  0.00     0.151 A 
ATOM     21  H5  UNL     1       1.630  19.076  -9.823  1.00  0.00     0.198 HD
HETATM   22  N6  UNL     1      -0.941  18.694  -9.257  1.00  0.00    -0.382 N 
ATOM     23  H62 UNL     1      -1.937  18.644  -9.039  1.00  0.00     0.157 HD
ATOM     24  H61 UNL     1      -0.577  17.744  -9.330  1.00  0.00     0.157 HD
ENDBRANCH  12  15
ENDBRANCH   5   8
ENDBRANCH   2   5
TORSDOF 3
ENDMDL
MODEL 3
REMARK VINA RESULT: -6.948395934      1.733      3.090
REMARK  3 active torsions:
REMARK  status: ('A' for Active; 'I' for Inactive)
REMARK    1  A    between atoms: N1_2  and  S1_5 
REMARK    2  A    between atoms: S1_5  and  C3_8 
REMARK    3  A    between atoms: C5_12  and  C6_13 
ROOT
HETATM    1  C1  UNL     1      -2.070  19.799  -8.723  1.00  0.00     0.183 C 
HETATM    2  N1  UNL     1      -1.308  21.028  -8.756  1.00  0.00    -0.212 N 
HETATM    3  C2  UNL     1      -0.051  21.054  -9.364  1.00  0.00     0.194 C 
HETATM    4  N2  UNL     1       0.990  21.080  -9.875  1.00  0.00    -0.171 NA
ENDROOT
BRANCH   2   5
HETATM    5  S1  UNL     1      -1.975  22.427  -8.044  1.00  0.00     0.277 S 
HETATM    6  O1  UNL     1      -1.207  23.624  -8.574  1.00  0.00    -0.199 OA
HETATM    7  O2  UNL     1      -1.848  22.446  -6.557  1.00  0.00    -0.199 OA
BRANCH   5   8
HETATM    8  C3  UNL     1      -3.701  22.596  -8.484  1.00  0.00     0.137 A 
HETATM    9  C4  UNL     1      -4.675  22.255  -7.575  1.00  0.00     0.113 A 
HETATM   10  N3  UNL     1      -4.503  21.752  -6.242  1.00  0.00    -0.093 NA
HETATM   11  S2  UNL     1      -6.113  22.587  -8.443  1.00  0.00    -0.069 SA
HETATM   12  C5  UNL     1      -5.444  23.137  -9.905  1.00  0.00     0.065 A 
HETATM   13  C8  UNL     1      -4.096  23.048  -9.679  1.00  0.00     0.091 A 
HETATM   14  N7  UNL     1      -3.187  23.447 -10.738  1.00  0.00    -0.099 NA
BRANCH  12  15
HETATM   15  C6  UNL     1      -6.142  23.591 -11.103  1.00  0.00     0.121 A 
HETATM   16  N4  UNL     1      -6.167  24.857 -11.568  1.00  0.00    -0.237 N 
HETATM   17  O3  UNL     1      -6.878  24.922 -12.656  1.00  0.00    -0.155 OA
ATOM     18  H4  UNL     1      -5.697  25.650 -11.129  1.00  0.00     0.197 HD
HETATM   19  N5  UNL     1      -7.343  23.738 -12.952  1.00  0.00    -0.224 N 
HETATM   20  C7  UNL     1      -6.898  22.885 -11.997  1.00  0.00     0.151 A 
ATOM     21  H5  UNL     1      -7.931  23.500 -13.751  1.00  0.00     0.198 HD
HETATM   22  N6  UNL     1      -7.179  21.644 -11.998  1.00  0.00    -0.382 N 
ATOM     23  H62 UNL     1      -6.844  21.003 -11.280  1.00  0.00     0.157 HD
ATOM     24  H61 UNL     1      -7.743  21.118 -12.666  1.00  0.00     0.157 HD
ENDBRANCH  12  15
ENDBRANCH   5   8
ENDBRANCH   2   5
TORSDOF 3
ENDMDL
MODEL 4
REMARK VINA RESULT: -6.932107079      0.709      1.326
REMARK  3 active torsions:
REMARK  status: ('A' for Active; 'I' for Inactive)
REMARK    1  A    between atoms: N1_2  and  S1_5 
REMARK    2  A    between atoms: S1_5  and  C3_8 
REMARK    3  A    between atoms: C5_12  and  C6_13 
ROOT
HETATM    1  C1  UNL     1      -2.804  23.812  -5.838  1.00  0.00     0.183 C 
HETATM    2  N1  UNL     1      -3.075  22.868  -6.899  1.00  0.00    -0.212 N 
HETATM    3  C2  UNL     1      -4.131  21.962  -6.776  1.00  0.00     0.194 C 
HETATM    4  N2  UNL     1      -5.012  21.213  -6.679  1.00  0.00    -0.171 NA
ENDROOT
BRANCH   2   5
HETATM    5  S1  UNL     1      -2.086  22.889  -8.289  1.00  0.00     0.277 S 
HETATM    6  O1  UNL     1      -1.114  21.729  -8.180  1.00  0.00    -0.199 OA
HETATM    7  O2  UNL     1      -1.273  24.134  -8.412  1.00  0.00    -0.199 OA
BRANCH   5   8
HETATM    8  C3  UNL     1      -3.073  22.690  -9.767  1.00  0.00     0.137 A 
HETATM    9  C4  UNL     1      -2.666  21.819 -10.750  1.00  0.00     0.113 A 
HETATM   10  N3  UNL     1      -1.492  20.993 -10.768  1.00  0.00    -0.093 NA
HETATM   11  S2  UNL     1      -3.908  21.982 -11.917  1.00  0.00    -0.069 SA
HETATM   12  C5  UNL     1      -4.887  23.129 -11.135  1.00  0.00     0.065 A 
HETATM   13  C8  UNL     1      -4.212  23.362  -9.966  1.00  0.00     0.091 A 
HETATM   14  N7  UNL     1      -4.769  24.314  -9.021  1.00  0.00    -0.099 NA
BRANCH  12  15
HETATM   15  C6  UNL     1      -6.137  23.718 -11.602  1.00  0.00     0.121 A 
HETATM   16  N4  UNL     1      -7.148  23.052 -12.196  1.00  0.00    -0.237 N 
HETATM   17  O3  UNL     1      -8.116  23.872 -12.488  1.00  0.00    -0.155 OA
ATOM     18  H4  UNL     1      -7.153  22.050 -12.390  1.00  0.00     0.197 HD
HETATM   19  N5  UNL     1      -7.799  25.082 -12.112  1.00  0.00    -0.224 N 
HETATM   20  C7  UNL     1      -6.566  25.016 -11.554  1.00  0.00     0.151 A 
ATOM     21  H5  UNL     1      -8.372  25.920 -12.218  1.00  0.00     0.198 HD
HETATM   22  N6  UNL     1      -5.968  26.036 -11.084  1.00  0.00    -0.382 N 
ATOM     23  H62 UNL     1      -5.040  25.986 -10.664  1.00  0.00     0.157 HD
ATOM     24  H61 UNL     1      -6.289  27.005 -11.049  1.00  0.00     0.157 HD
ENDBRANCH  12  15
ENDBRANCH   5   8
ENDBRANCH   2   5
TORSDOF 3
ENDMDL
MODEL 5
REMARK VINA RESULT: -6.904575889      0.657      1.195
REMARK  3 active torsions:
REMARK  status: ('A' for Active; 'I' for Inactive)
REMARK    1  A    between atoms: N1_2  and  S1_5 
REMARK    2  A    between atoms: S1_5  and  C3_8 
REMARK    3  A    between atoms: C5_12  and  C6_13 
ROOT
HETATM    1  C1  UNL     1      -4.470  21.331  -6.898  1.00  0.00     0.183 C 
HETATM    2  N1  UNL     1      -3.626  22.503  -6.849  1.00  0.00    -0.212 N 
HETATM    3  C2  UNL     1      -3.779  23.432  -5.817  1.00  0.00     0.194 C 
HETATM    4  N2  UNL     1      -3.899  24.201  -4.957  1.00  0.00    -0.171 NA
ENDROOT
BRANCH   2   5
HETATM    5  S1  UNL     1      -2.452  22.721  -8.067  1.00  0.00     0.277 S 
HETATM    6  O1  UNL     1      -1.402  21.638  -7.894  1.00  0.00    -0.199 OA
HETATM    7  O2  UNL     1      -1.748  24.034  -7.976  1.00  0.00    -0.199 OA
BRANCH   5   8
HETATM    8  C3  UNL     1      -3.191  22.568  -9.689  1.00  0.00     0.137 A 
HETATM    9  C4  UNL     1      -2.594  21.776 -10.642  1.00  0.00     0.113 A 
HETATM   10  N3  UNL     1      -1.388  21.006 -10.521  1.00  0.00    -0.093 NA
HETATM   11  S2  UNL     1      -3.651  21.954 -11.976  1.00  0.00    -0.069 SA
HETATM   12  C5  UNL     1      -4.797  23.007 -11.296  1.00  0.00     0.065 A 
HETATM   13  C8  UNL     1      -4.321  23.199 -10.025  1.00  0.00     0.091 A 
HETATM   14  N7  UNL     1      -5.065  24.066  -9.129  1.00  0.00    -0.099 NA
BRANCH  12  15
HETATM   15  C6  UNL     1      -5.992  23.567 -11.918  1.00  0.00     0.121 A 
HETATM   16  N4  UNL     1      -6.203  24.871 -12.185  1.00  0.00    -0.237 N 
HETATM   17  O3  UNL     1      -7.369  25.033 -12.742  1.00  0.00    -0.155 OA
ATOM     18  H4  UNL     1      -5.545  25.624 -11.979  1.00  0.00     0.197 HD
HETATM   19  N5  UNL     1      -7.964  23.877 -12.865  1.00  0.00    -0.224 N 
HETATM   20  C7  UNL     1      -7.125  22.941 -12.358  1.00  0.00     0.151 A 
ATOM     21  H5  UNL     1      -8.887  23.710 -13.267  1.00  0.00     0.198 HD
HETATM   22  N6  UNL     1      -7.415  21.702 -12.329  1.00  0.00    -0.382 N 
ATOM     23  H62 UNL     1      -6.783  20.998 -11.947  1.00  0.00     0.157 HD
ATOM     24  H61 UNL     1      -8.261  21.236 -12.657  1.00  0.00     0.157 HD
ENDBRANCH  12  15
ENDBRANCH   5   8
ENDBRANCH   2   5
TORSDOF 3
ENDMDL
