MODEL 1
REMARK VINA RESULT: -5.032313670      0.000      0.000
REMARK  6 active torsions:
REMARK  status: ('A' for Active; 'I' for Inactive)
REMARK    1  A    between atoms: O1_2  and  C2_3 
REMARK    2  A    between atoms: C2_3  and  C3_5 
REMARK    3  A    between atoms: C5_9  and  C6_10 
REMARK       I    between atoms: C6_10  and  N2_12 
REMARK    4  A    between atoms: N2_12  and  N3_14 
REMARK    5  A    between atoms: C9_20  and  C10_21 
REMARK    6  A    between atoms: C10_21  and  O5_23 
ROOT
HETATM    1  C3  UNL     1      -3.041  23.835  -7.872  1.00  0.00     0.183 A 
HETATM    2  N1  UNL     1      -2.298  22.894  -8.458  1.00  0.00    -0.335 N 
ATOM      3  H1  UNL     1      -1.448  22.492  -8.061  1.00  0.00     0.168 HD
HETATM    4  C4  UNL     1      -2.829  22.548  -9.651  1.00  0.00     0.078 A 
HETATM    5  C5  UNL     1      -2.430  21.632 -10.615  1.00  0.00     0.064 A 
HETATM    6  C7  UNL     1      -3.223  21.535 -11.731  1.00  0.00     0.047 A 
HETATM    7  C8  UNL     1      -4.357  22.282 -11.926  1.00  0.00     0.066 A 
HETATM    8  N4  UNL     1      -5.163  22.164 -13.091  1.00  0.00    -0.101 NA
HETATM    9  C9  UNL     1      -4.738  23.199 -10.939  1.00  0.00     0.092 A 
HETATM   10  C12 UNL     1      -3.953  23.316  -9.799  1.00  0.00     0.080 A 
HETATM   11  N5  UNL     1      -4.056  24.089  -8.702  1.00  0.00    -0.335 N 
ATOM     12  H5  UNL     1      -4.798  24.767  -8.531  1.00  0.00     0.168 HD
ENDROOT
BRANCH   5  13
HETATM   13  C6  UNL     1      -1.229  20.839 -10.410  1.00  0.00     0.272 C 
HETATM   14  O3  UNL     1      -1.281  19.619 -10.167  1.00  0.00    -0.266 OA
HETATM   15  N2  UNL     1       0.028  21.481 -10.489  1.00  0.00    -0.272 N 
ATOM     16  H2  UNL     1       0.082  22.480 -10.686  1.00  0.00     0.189 HD
BRANCH  15  17
HETATM   17  N3  UNL     1       1.183  20.751 -10.298  1.00  0.00    -0.342 N 
ATOM     18  H32 UNL     1       1.304  20.233  -9.427  1.00  0.00     0.176 HD
ATOM     19  H31 UNL     1       1.899  20.737 -11.024  1.00  0.00     0.176 HD
ENDBRANCH  15  17
ENDBRANCH   5  13
BRANCH   1  20
HETATM   20  C2  UNL     1      -2.773  24.456  -6.564  1.00  0.00     0.327 C 
HETATM   21  O2  UNL     1      -2.097  25.514  -6.490  1.00  0.00    -0.256 OA
BRANCH  20  22
HETATM   22  O1  UNL     1      -3.250  23.897  -5.411  1.00  0.00    -0.320 OA
HETATM   23  C1  UNL     1      -3.984  22.694  -5.355  1.00  0.00     0.213 C 
ENDBRANCH  20  22
ENDBRANCH   1  20
BRANCH   9  24
HETATM   24  C10 UNL     1      -5.938  24.001 -11.126  1.00  0.00     0.297 C 
HETATM   25  O4  UNL     1      -6.978  23.639 -10.499  1.00  0.00    -0.259 OA
BRANCH  24  26
HETATM   26  O5  UNL     1      -6.049  25.112 -11.917  1.00  0.00    -0.322 OA
HETATM   27  C11 UNL     1      -6.790  25.155 -13.120  1.00  0.00     0.213 C 
ENDBRANCH  24  26
ENDBRANCH   9  24
TORSDOF 6
ENDMDL
MODEL 2
REMARK VINA RESULT: -4.989437492      1.817      6.025
REMARK  6 active torsions:
REMARK  status: ('A' for Active; 'I' for Inactive)
REMARK    1  A    between atoms: O1_2  and  C2_3 
REMARK    2  A    between atoms: C2_3  and  C3_5 
REMARK    3  A    between atoms: C5_9  and  C6_10 
REMARK       I    between atoms: C6_10  and  N2_12 
REMARK    4  A    between atoms: N2_12  and  N3_14 
REMARK    5  A    between atoms: C9_20  and  C10_21 
REMARK    6  A    between atoms: C10_21  and  O5_23 
ROOT
HETATM    1  C3  UNL     1      -4.870  23.501 -10.395  1.00  0.00     0.183 A 
HETATM    2  N1  UNL     1      -4.613  23.955  -9.167  1.00  0.00    -0.335 N 
ATOM      3  H1  UNL     1      -5.181  24.641  -8.670  1.00  0.00     0.168 HD
HETATM    4  C4  UNL     1      -3.495  23.379  -8.675  1.00  0.00     0.078 A 
HETATM    5  C5  UNL     1      -2.833  23.522  -7.463  1.00  0.00     0.064 A 
HETATM    6  C7  UNL     1      -1.701  22.765  -7.293  1.00  0.00     0.047 A 
HETATM    7  C8  UNL     1      -1.212  21.901  -8.240  1.00  0.00     0.066 A 
HETATM    8  N4  UNL     1      -0.038  21.127  -8.040  1.00  0.00    -0.101 NA
HETATM    9  C9  UNL     1      -1.899  21.774  -9.454  1.00  0.00     0.092 A 
HETATM   10  C12 UNL     1      -3.048  22.529  -9.652  1.00  0.00     0.080 A 
HETATM   11  N5  UNL     1      -3.903  22.625 -10.686  1.00  0.00    -0.335 N 
ATOM     12  H5  UNL     1      -3.826  22.106 -11.561  1.00  0.00     0.168 HD
ENDROOT
BRANCH   5  13
HETATM   13  C6  UNL     1      -3.348  24.436  -6.458  1.00  0.00     0.272 C 
HETATM   14  O3  UNL     1      -3.338  25.670  -6.626  1.00  0.00    -0.266 OA
HETATM   15  N2  UNL     1      -3.872  23.900  -5.259  1.00  0.00    -0.272 N 
ATOM     16  H2  UNL     1      -3.884  22.891  -5.111  1.00  0.00     0.189 HD
BRANCH  15  17
HETATM   17  N3  UNL     1      -4.367  24.747  -4.289  1.00  0.00    -0.342 N 
ATOM     18  H32 UNL     1      -4.273  24.486  -3.307  1.00  0.00     0.176 HD
ATOM     19  H31 UNL     1      -4.819  25.619  -4.562  1.00  0.00     0.176 HD
ENDBRANCH  15  17
ENDBRANCH   5  13
BRANCH   1  20
HETATM   20  C2  UNL     1      -6.004  23.902 -11.244  1.00  0.00     0.327 C 
HETATM   21  O2  UNL     1      -7.046  24.380 -10.728  1.00  0.00    -0.256 OA
BRANCH  20  22
HETATM   22  O1  UNL     1      -5.947  23.762 -12.603  1.00  0.00    -0.320 OA
HETATM   23  C1  UNL     1      -6.393  24.735 -13.522  1.00  0.00     0.213 C 
ENDBRANCH  20  22
ENDBRANCH   1  20
BRANCH   9  24
HETATM   24  C10 UNL     1      -1.398  20.863 -10.473  1.00  0.00     0.297 C 
HETATM   25  O4  UNL     1      -0.779  21.376 -11.452  1.00  0.00    -0.259 OA
BRANCH  24  26
HETATM   26  O5  UNL     1      -1.533  19.502 -10.473  1.00  0.00    -0.322 OA
HETATM   27  C11 UNL     1      -1.220  18.676  -9.370  1.00  0.00     0.213 C 
ENDBRANCH  24  26
ENDBRANCH   9  24
TORSDOF 6
ENDMDL
MODEL 3
REMARK VINA RESULT: -4.856487767      1.894      6.110
REMARK  6 active torsions:
REMARK  status: ('A' for Active; 'I' for Inactive)
REMARK    1  A    between atoms: O1_2  and  C2_3 
REMARK    2  A    between atoms: C2_3  and  C3_5 
REMARK    3  A    between atoms: C5_9  and  C6_10 
REMARK       I    between atoms: C6_10  and  N2_12 
REMARK    4  A    between atoms: N2_12  and  N3_14 
REMARK    5  A    between atoms: C9_20  and  C10_21 
REMARK    6  A    between atoms: C10_21  and  O5_23 
ROOT
HETATM    1  C3  UNL     1      -4.611  23.068 -10.549  1.00  0.00     0.183 A 
HETATM    2  N1  UNL     1      -4.420  23.605  -9.343  1.00  0.00    -0.335 N 
ATOM      3  H1  UNL     1      -4.992  24.346  -8.937  1.00  0.00     0.168 HD
HETATM    4  C4  UNL     1      -3.360  23.030  -8.733  1.00  0.00     0.078 A 
HETATM    5  C5  UNL     1      -2.776  23.241  -7.491  1.00  0.00     0.064 A 
HETATM    6  C7  UNL     1      -1.688  22.461  -7.187  1.00  0.00     0.047 A 
HETATM    7  C8  UNL     1      -1.172  21.512  -8.033  1.00  0.00     0.066 A 
HETATM    8  N4  UNL     1      -0.044  20.716  -7.696  1.00  0.00    -0.101 NA
HETATM    9  C9  UNL     1      -1.780  21.318  -9.279  1.00  0.00     0.092 A 
HETATM   10  C12 UNL     1      -2.883  22.094  -9.611  1.00  0.00     0.080 A 
HETATM   11  N5  UNL     1      -3.662  22.141 -10.707  1.00  0.00    -0.335 N 
ATOM     12  H5  UNL     1      -3.547  21.555 -11.534  1.00  0.00     0.168 HD
ENDROOT
BRANCH   5  13
HETATM   13  C6  UNL     1      -3.321  24.246  -6.594  1.00  0.00     0.272 C 
HETATM   14  O3  UNL     1      -3.358  25.452  -6.902  1.00  0.00    -0.266 OA
HETATM   15  N2  UNL     1      -3.821  23.832  -5.337  1.00  0.00    -0.272 N 
ATOM     16  H2  UNL     1      -3.795  22.847  -5.074  1.00  0.00     0.189 HD
BRANCH  15  17
HETATM   17  N3  UNL     1      -4.343  24.767  -4.467  1.00  0.00    -0.342 N 
ATOM     18  H32 UNL     1      -4.428  25.736  -4.772  1.00  0.00     0.176 HD
ATOM     19  H31 UNL     1      -4.638  24.480  -3.533  1.00  0.00     0.176 HD
ENDBRANCH  15  17
ENDBRANCH   5  13
BRANCH   1  20
HETATM   20  C2  UNL     1      -5.670  23.442 -11.502  1.00  0.00     0.327 C 
HETATM   21  O2  UNL     1      -6.252  22.560 -12.183  1.00  0.00    -0.256 OA
BRANCH  20  22
HETATM   22  O1  UNL     1      -6.037  24.749 -11.665  1.00  0.00    -0.320 OA
HETATM   23  C1  UNL     1      -6.447  25.313 -12.891  1.00  0.00     0.213 C 
ENDBRANCH  20  22
ENDBRANCH   1  20
BRANCH   9  24
HETATM   24  C10 UNL     1      -1.248  20.316 -10.192  1.00  0.00     0.297 C 
HETATM   25  O4  UNL     1      -2.013  19.356 -10.504  1.00  0.00    -0.259 OA
BRANCH  24  26
HETATM   26  O5  UNL     1       0.003  20.314 -10.745  1.00  0.00    -0.322 OA
HETATM   27  C11 UNL     1       1.113  19.639 -10.188  1.00  0.00     0.213 C 
ENDBRANCH  24  26
ENDBRANCH   9  24
TORSDOF 6
ENDMDL
MODEL 4
REMARK VINA RESULT: -4.749863630      2.077      4.639
REMARK  6 active torsions:
REMARK  status: ('A' for Active; 'I' for Inactive)
REMARK    1  A    between atoms: O1_2  and  C2_3 
REMARK    2  A    between atoms: C2_3  and  C3_5 
REMARK    3  A    between atoms: C5_9  and  C6_10 
REMARK       I    between atoms: C6_10  and  N2_12 
REMARK    4  A    between atoms: N2_12  and  N3_14 
REMARK    5  A    between atoms: C9_20  and  C10_21 
REMARK    6  A    between atoms: C10_21  and  O5_23 
ROOT
HETATM    1  C3  UNL     1      -1.904  20.769  -9.344  1.00  0.00     0.183 A 
HETATM    2  N1  UNL     1      -2.068  21.725  -8.428  1.00  0.00    -0.335 N 
ATOM      3  H1  UNL     1      -1.568  21.773  -7.541  1.00  0.00     0.168 HD
HETATM    4  C4  UNL     1      -2.991  22.620  -8.842  1.00  0.00     0.078 A 
HETATM    5  C5  UNL     1      -3.499  23.771  -8.251  1.00  0.00     0.064 A 
HETATM    6  C7  UNL     1      -4.447  24.457  -8.968  1.00  0.00     0.047 A 
HETATM    7  C8  UNL     1      -4.900  24.066 -10.203  1.00  0.00     0.066 A 
HETATM    8  N4  UNL     1      -5.882  24.794 -10.926  1.00  0.00    -0.101 NA
HETATM    9  C9  UNL     1      -4.372  22.902 -10.776  1.00  0.00     0.092 A 
HETATM   10  C12 UNL     1      -3.409  22.189 -10.072  1.00  0.00     0.080 A 
HETATM   11  N5  UNL     1      -2.732  21.061 -10.352  1.00  0.00    -0.335 N 
ATOM     12  H5  UNL     1      -2.834  20.511 -11.205  1.00  0.00     0.168 HD
ENDROOT
BRANCH   5  13
HETATM   13  C6  UNL     1      -3.021  24.187  -6.944  1.00  0.00     0.272 C 
HETATM   14  O3  UNL     1      -2.086  24.999  -6.814  1.00  0.00    -0.266 OA
HETATM   15  N2  UNL     1      -3.641  23.649  -5.793  1.00  0.00    -0.272 N 
ATOM     16  H2  UNL     1      -4.407  22.982  -5.888  1.00  0.00     0.189 HD
BRANCH  15  17
HETATM   17  N3  UNL     1      -3.206  24.028  -4.540  1.00  0.00    -0.342 N 
ATOM     18  H32 UNL     1      -3.594  23.565  -3.718  1.00  0.00     0.176 HD
ATOM     19  H31 UNL     1      -2.504  24.763  -4.449  1.00  0.00     0.176 HD
ENDBRANCH  15  17
ENDBRANCH   5  13
BRANCH   1  20
HETATM   20  C2  UNL     1      -0.982  19.625  -9.242  1.00  0.00     0.327 C 
HETATM   21  O2  UNL     1      -1.350  18.561  -8.681  1.00  0.00    -0.256 OA
BRANCH  20  22
HETATM   22  O1  UNL     1       0.285  19.696  -9.751  1.00  0.00    -0.320 OA
HETATM   23  C1  UNL     1       1.073  20.866  -9.759  1.00  0.00     0.213 C 
ENDBRANCH  20  22
ENDBRANCH   1  20
BRANCH   9  24
HETATM   24  C10 UNL     1      -4.837  22.470 -12.085  1.00  0.00     0.297 C 
HETATM   25  O4  UNL     1      -3.997  21.886 -12.833  1.00  0.00    -0.259 OA
BRANCH  24  26
HETATM   26  O5  UNL     1      -6.099  22.634 -12.587  1.00  0.00    -0.322 OA
HETATM   27  C11 UNL     1      -7.230  21.916 -12.134  1.00  0.00     0.213 C 
ENDBRANCH  24  26
ENDBRANCH   9  24
TORSDOF 6
ENDMDL
MODEL 5
REMARK VINA RESULT: -4.482185898      2.097      4.520
REMARK  6 active torsions:
REMARK  status: ('A' for Active; 'I' for Inactive)
REMARK    1  A    between atoms: O1_2  and  C2_3 
REMARK    2  A    between atoms: C2_3  and  C3_5 
REMARK    3  A    between atoms: C5_9  and  C6_10 
REMARK       I    between atoms: C6_10  and  N2_12 
REMARK    4  A    between atoms: N2_12  and  N3_14 
REMARK    5  A    between atoms: C9_20  and  C10_21 
REMARK    6  A    between atoms: C10_21  and  O5_23 
ROOT
HETATM    1  C3  UNL     1      -1.359  21.335  -9.804  1.00  0.00     0.183 A 
HETATM    2  N1  UNL     1      -1.678  22.146  -8.793  1.00  0.00    -0.335 N 
ATOM      3  H1  UNL     1      -1.129  22.258  -7.941  1.00  0.00     0.168 HD
HETATM    4  C4  UNL     1      -2.830  22.799  -9.059  1.00  0.00     0.078 A 
HETATM    5  C5  UNL     1      -3.558  23.732  -8.330  1.00  0.00     0.064 A 
HETATM    6  C7  UNL     1      -4.708  24.199  -8.915  1.00  0.00     0.047 A 
HETATM    7  C8  UNL     1      -5.155  23.795 -10.148  1.00  0.00     0.066 A 
HETATM    8  N4  UNL     1      -6.351  24.294 -10.732  1.00  0.00    -0.101 NA
HETATM    9  C9  UNL     1      -4.403  22.854 -10.861  1.00  0.00     0.092 A 
HETATM   10  C12 UNL     1      -3.233  22.365 -10.293  1.00  0.00     0.080 A 
HETATM   11  N5  UNL     1      -2.320  21.475 -10.722  1.00  0.00    -0.335 N 
ATOM     12  H5  UNL     1      -2.356  20.982 -11.614  1.00  0.00     0.168 HD
ENDROOT
BRANCH   5  13
HETATM   13  C6  UNL     1      -3.087  24.161  -7.025  1.00  0.00     0.272 C 
HETATM   14  O3  UNL     1      -2.130  24.949  -6.898  1.00  0.00    -0.266 OA
HETATM   15  N2  UNL     1      -3.738  23.665  -5.872  1.00  0.00    -0.272 N 
ATOM     16  H2  UNL     1      -4.522  23.019  -5.965  1.00  0.00     0.189 HD
BRANCH  15  17
HETATM   17  N3  UNL     1      -3.309  24.057  -4.621  1.00  0.00    -0.342 N 
ATOM     18  H32 UNL     1      -2.336  24.333  -4.494  1.00  0.00     0.176 HD
ATOM     19  H31 UNL     1      -3.966  24.066  -3.841  1.00  0.00     0.176 HD
ENDBRANCH  15  17
ENDBRANCH   5  13
BRANCH   1  20
HETATM   20  C2  UNL     1      -0.173  20.465  -9.871  1.00  0.00     0.327 C 
HETATM   21  O2  UNL     1       0.932  20.926 -10.257  1.00  0.00    -0.256 OA
BRANCH  20  22
HETATM   22  O1  UNL     1      -0.248  19.147  -9.517  1.00  0.00    -0.320 OA
HETATM   23  C1  UNL     1      -1.280  18.592  -8.731  1.00  0.00     0.213 C 
ENDBRANCH  20  22
ENDBRANCH   1  20
BRANCH   9  24
HETATM   24  C10 UNL     1      -4.859  22.412 -12.171  1.00  0.00     0.297 C 
HETATM   25  O4  UNL     1      -4.007  21.844 -12.917  1.00  0.00    -0.259 OA
BRANCH  24  26
HETATM   26  O5  UNL     1      -6.123  22.552 -12.674  1.00  0.00    -0.322 OA
HETATM   27  C11 UNL     1      -7.216  21.734 -12.305  1.00  0.00     0.213 C 
ENDBRANCH  24  26
ENDBRANCH   9  24
TORSDOF 6
ENDMDL
