MODEL 1
REMARK VINA RESULT: -6.982818274      0.000      0.000
REMARK  4 active torsions:
REMARK  status: ('A' for Active; 'I' for Inactive)
REMARK    1  A    between atoms: N1_1  and  C1_4 
REMARK    2  A    between atoms: C4_16  and  C5_17 
REMARK    3  A    between atoms: C5_17  and  S2_18 
REMARK    4  A    between atoms: S2_18  and  C6_19 
ROOT
HETATM    1  C1  UNL     1      -1.832  22.241  -9.878  1.00  0.00     0.117 A 
HETATM    2  N2  UNL     1      -0.846  21.397 -10.203  1.00  0.00    -0.322 N 
ATOM      3  H2  UNL     1      -0.568  21.275 -11.177  1.00  0.00     0.169 HD
HETATM    4  C2  UNL     1      -0.226  20.708  -9.219  1.00  0.00     0.158 A 
HETATM    5  S1  UNL     1       1.089  19.593  -9.724  1.00  0.00    -0.013 SA
HETATM    6  N3  UNL     1      -0.583  20.858  -7.920  1.00  0.00    -0.320 N 
ATOM      7  H3  UNL     1      -0.095  20.323  -7.201  1.00  0.00     0.169 HD
HETATM    8  C3  UNL     1      -1.577  21.706  -7.558  1.00  0.00     0.138 A 
HETATM    9  N4  UNL     1      -2.160  22.080  -6.410  1.00  0.00    -0.284 N 
ATOM     10  H4  UNL     1      -1.916  21.738  -5.481  1.00  0.00     0.188 HD
HETATM   11  N5  UNL     1      -3.108  22.970  -6.683  1.00  0.00    -0.301 N 
ATOM     12  H5  UNL     1      -3.705  23.417  -5.987  1.00  0.00     0.186 HD
HETATM   13  C4  UNL     1      -3.168  23.197  -8.008  1.00  0.00     0.053 A 
HETATM   14  C9  UNL     1      -2.198  22.398  -8.567  1.00  0.00     0.078 A 
ENDROOT
BRANCH  13  15
HETATM   15  C5  UNL     1      -4.097  24.115  -8.643  1.00  0.00     0.142 C 
BRANCH  15  16
HETATM   16  S2  UNL     1      -5.486  23.235  -9.405  1.00  0.00    -0.088 SA
BRANCH  16  17
HETATM   17  C6  UNL     1      -5.935  24.023 -10.960  1.00  0.00     0.147 A 
HETATM   18  N6  UNL     1      -6.420  23.458 -12.077  1.00  0.00    -0.318 N 
HETATM   19  C7  UNL     1      -6.625  24.422 -13.020  1.00  0.00     0.176 A 
ATOM     20  H6  UNL     1      -6.608  22.463 -12.201  1.00  0.00     0.169 HD
HETATM   21  N7  UNL     1      -7.043  24.677 -14.276  1.00  0.00    -0.222 N 
HETATM   22  C8  UNL     1      -6.247  25.621 -12.451  1.00  0.00     0.176 A 
HETATM   23  O1  UNL     1      -6.931  25.957 -14.472  1.00  0.00    -0.153 OA
ATOM     24  H7  UNL     1      -7.385  23.991 -14.949  1.00  0.00     0.198 HD
HETATM   25  N8  UNL     1      -6.464  26.547 -13.414  1.00  0.00    -0.222 N 
ATOM     26  H8  UNL     1      -6.288  27.547 -13.324  1.00  0.00     0.198 HD
HETATM   27  N9  UNL     1      -5.833  25.346 -11.200  1.00  0.00    -0.318 N 
ATOM     28  H9  UNL     1      -5.492  26.036 -10.531  1.00  0.00     0.169 HD
ENDBRANCH  16  17
ENDBRANCH  15  16
ENDBRANCH  13  15
BRANCH   1  29
HETATM   29  N1  UNL     1      -2.427  22.897 -10.785  1.00  0.00    -0.385 N 
ATOM     30  H12 UNL     1      -2.669  22.444 -11.666  1.00  0.00     0.157 HD
ATOM     31  H11 UNL     1      -2.666  23.877 -10.630  1.00  0.00     0.157 HD
ENDBRANCH   1  29
TORSDOF 4
ENDMDL
MODEL 2
REMARK VINA RESULT: -6.975340183      0.122      1.034
REMARK  4 active torsions:
REMARK  status: ('A' for Active; 'I' for Inactive)
REMARK    1  A    between atoms: N1_1  and  C1_4 
REMARK    2  A    between atoms: C4_16  and  C5_17 
REMARK    3  A    between atoms: C5_17  and  S2_18 
REMARK    4  A    between atoms: S2_18  and  C6_19 
ROOT
HETATM    1  C1  UNL     1      -1.776  22.287  -9.892  1.00  0.00     0.117 A 
HETATM    2  N2  UNL     1      -0.796  21.432 -10.206  1.00  0.00    -0.322 N 
ATOM      3  H2  UNL     1      -0.494  21.323 -11.174  1.00  0.00     0.169 HD
HETATM    4  C2  UNL     1      -0.214  20.715  -9.219  1.00  0.00     0.158 A 
HETATM    5  S1  UNL     1       1.094  19.586  -9.709  1.00  0.00    -0.013 SA
HETATM    6  N3  UNL     1      -0.604  20.848  -7.927  1.00  0.00    -0.320 N 
ATOM      7  H3  UNL     1      -0.145  20.291  -7.205  1.00  0.00     0.169 HD
HETATM    8  C3  UNL     1      -1.593  21.706  -7.576  1.00  0.00     0.138 A 
HETATM    9  N4  UNL     1      -2.201  22.070  -6.437  1.00  0.00    -0.284 N 
ATOM     10  H4  UNL     1      -1.988  21.706  -5.509  1.00  0.00     0.188 HD
HETATM   11  N5  UNL     1      -3.126  22.981  -6.719  1.00  0.00    -0.301 N 
ATOM     12  H5  UNL     1      -3.733  23.426  -6.031  1.00  0.00     0.186 HD
HETATM   13  C4  UNL     1      -3.146  23.233  -8.040  1.00  0.00     0.053 A 
HETATM   14  C9  UNL     1      -2.175  22.428  -8.588  1.00  0.00     0.078 A 
ENDROOT
BRANCH  13  15
HETATM   15  C5  UNL     1      -4.041  24.178  -8.683  1.00  0.00     0.142 C 
BRANCH  15  16
HETATM   16  S2  UNL     1      -5.434  23.338  -9.482  1.00  0.00    -0.088 SA
BRANCH  16  17
HETATM   17  C6  UNL     1      -5.870  24.186 -11.009  1.00  0.00     0.147 A 
HETATM   18  N6  UNL     1      -5.908  25.506 -11.255  1.00  0.00    -0.318 N 
HETATM   19  C7  UNL     1      -6.289  25.716 -12.547  1.00  0.00     0.176 A 
ATOM     20  H6  UNL     1      -5.685  26.237 -10.580  1.00  0.00     0.169 HD
HETATM   21  N7  UNL     1      -6.547  26.640 -13.493  1.00  0.00    -0.222 N 
HETATM   22  C8  UNL     1      -6.491  24.471 -13.109  1.00  0.00     0.176 A 
HETATM   23  O1  UNL     1      -6.888  26.006 -14.575  1.00  0.00    -0.153 OA
ATOM     24  H7  UNL     1      -6.485  27.652 -13.382  1.00  0.00     0.198 HD
HETATM   25  N8  UNL     1      -6.867  24.722 -14.384  1.00  0.00    -0.222 N 
ATOM     26  H8  UNL     1      -7.096  24.016 -15.084  1.00  0.00     0.198 HD
HETATM   27  N9  UNL     1      -6.229  23.563 -12.149  1.00  0.00    -0.318 N 
ATOM     28  H9  UNL     1      -6.293  22.552 -12.267  1.00  0.00     0.169 HD
ENDBRANCH  16  17
ENDBRANCH  15  16
ENDBRANCH  13  15
BRANCH   1  29
HETATM   29  N1  UNL     1      -2.335  22.971 -10.802  1.00  0.00    -0.385 N 
ATOM     30  H12 UNL     1      -3.339  22.884 -10.960  1.00  0.00     0.157 HD
ATOM     31  H11 UNL     1      -1.780  23.608 -11.373  1.00  0.00     0.157 HD
ENDBRANCH   1  29
TORSDOF 4
ENDMDL
MODEL 3
REMARK VINA RESULT: -6.667855518      0.805      2.329
REMARK  4 active torsions:
REMARK  status: ('A' for Active; 'I' for Inactive)
REMARK    1  A    between atoms: N1_1  and  C1_4 
REMARK    2  A    between atoms: C4_16  and  C5_17 
REMARK    3  A    between atoms: C5_17  and  S2_18 
REMARK    4  A    between atoms: S2_18  and  C6_19 
ROOT
HETATM    1  C1  UNL     1      -1.718  21.627  -8.152  1.00  0.00     0.117 A 
HETATM    2  N2  UNL     1      -0.491  21.095  -8.165  1.00  0.00    -0.322 N 
ATOM      3  H2  UNL     1      -0.011  20.877  -7.291  1.00  0.00     0.169 HD
HETATM    4  C2  UNL     1       0.102  20.850  -9.355  1.00  0.00     0.158 A 
HETATM    5  S1  UNL     1       1.749  20.134  -9.300  1.00  0.00    -0.013 SA
HETATM    6  N3  UNL     1      -0.522  21.133 -10.525  1.00  0.00    -0.320 N 
ATOM      7  H3  UNL     1      -0.046  20.936 -11.407  1.00  0.00     0.169 HD
HETATM    8  C3  UNL     1      -1.765  21.672 -10.546  1.00  0.00     0.138 A 
HETATM    9  N4  UNL     1      -2.637  22.059 -11.489  1.00  0.00    -0.284 N 
ATOM     10  H4  UNL     1      -2.486  22.004 -12.496  1.00  0.00     0.188 HD
HETATM   11  N5  UNL     1      -3.729  22.526 -10.894  1.00  0.00    -0.301 N 
ATOM     12  H5  UNL     1      -4.549  22.886 -11.382  1.00  0.00     0.186 HD
HETATM   13  C4  UNL     1      -3.599  22.457  -9.557  1.00  0.00     0.053 A 
HETATM   14  C9  UNL     1      -2.355  21.915  -9.331  1.00  0.00     0.078 A 
ENDROOT
BRANCH  13  15
HETATM   15  C5  UNL     1      -4.611  22.888  -8.609  1.00  0.00     0.142 C 
BRANCH  15  16
HETATM   16  S2  UNL     1      -6.279  22.745  -9.305  1.00  0.00    -0.088 SA
BRANCH  16  17
HETATM   17  C6  UNL     1      -6.417  23.758 -10.787  1.00  0.00     0.147 A 
HETATM   18  N6  UNL     1      -6.111  25.055 -10.948  1.00  0.00    -0.318 N 
HETATM   19  C7  UNL     1      -6.367  25.425 -12.235  1.00  0.00     0.176 A 
ATOM     20  H6  UNL     1      -5.745  25.669 -10.220  1.00  0.00     0.169 HD
HETATM   21  N7  UNL     1      -6.340  26.435 -13.127  1.00  0.00    -0.222 N 
HETATM   22  C8  UNL     1      -6.847  24.304 -12.882  1.00  0.00     0.176 A 
HETATM   23  O1  UNL     1      -6.778  25.967 -14.258  1.00  0.00    -0.153 OA
ATOM     24  H7  UNL     1      -6.033  27.390 -12.948  1.00  0.00     0.198 HD
HETATM   25  N8  UNL     1      -7.088  24.712 -14.150  1.00  0.00    -0.222 N 
ATOM     26  H8  UNL     1      -7.453  24.125 -14.901  1.00  0.00     0.198 HD
HETATM   27  N9  UNL     1      -6.866  23.309 -11.976  1.00  0.00    -0.318 N 
ATOM     28  H9  UNL     1      -7.175  22.355 -12.161  1.00  0.00     0.169 HD
ENDBRANCH  16  17
ENDBRANCH  15  16
ENDBRANCH  13  15
BRANCH   1  29
HETATM   29  N1  UNL     1      -2.294  21.864  -7.047  1.00  0.00    -0.385 N 
ATOM     30  H12 UNL     1      -2.560  21.093  -6.436  1.00  0.00     0.157 HD
ATOM     31  H11 UNL     1      -2.487  22.827  -6.771  1.00  0.00     0.157 HD
ENDBRANCH   1  29
TORSDOF 4
ENDMDL
MODEL 4
REMARK VINA RESULT: -6.490518529      1.728      1.931
REMARK  4 active torsions:
REMARK  status: ('A' for Active; 'I' for Inactive)
REMARK    1  A    between atoms: N1_1  and  C1_4 
REMARK    2  A    between atoms: C4_16  and  C5_17 
REMARK    3  A    between atoms: C5_17  and  S2_18 
REMARK    4  A    between atoms: S2_18  and  C6_19 
ROOT
HETATM    1  C1  UNL     1      -1.255  22.774  -8.622  1.00  0.00     0.117 A 
HETATM    2  N2  UNL     1      -0.424  21.836  -9.090  1.00  0.00    -0.322 N 
ATOM      3  H2  UNL     1       0.477  22.095  -9.493  1.00  0.00     0.169 HD
HETATM    4  C2  UNL     1      -0.798  20.539  -9.019  1.00  0.00     0.158 A 
HETATM    5  S1  UNL     1       0.364  19.331  -9.665  1.00  0.00    -0.013 SA
HETATM    6  N3  UNL     1      -1.991  20.177  -8.486  1.00  0.00    -0.320 N 
ATOM      7  H3  UNL     1      -2.244  19.189  -8.448  1.00  0.00     0.169 HD
HETATM    8  C3  UNL     1      -2.854  21.104  -8.003  1.00  0.00     0.138 A 
HETATM    9  N4  UNL     1      -4.068  21.092  -7.431  1.00  0.00    -0.284 N 
ATOM     10  H4  UNL     1      -4.624  20.260  -7.237  1.00  0.00     0.188 HD
HETATM   11  N5  UNL     1      -4.424  22.343  -7.161  1.00  0.00    -0.301 N 
ATOM     12  H5  UNL     1      -5.304  22.616  -6.723  1.00  0.00     0.186 HD
HETATM   13  C4  UNL     1      -3.460  23.198  -7.547  1.00  0.00     0.053 A 
HETATM   14  C9  UNL     1      -2.462  22.417  -8.081  1.00  0.00     0.078 A 
ENDROOT
BRANCH  13  15
HETATM   15  C5  UNL     1      -3.532  24.640  -7.397  1.00  0.00     0.142 C 
BRANCH  15  16
HETATM   16  S2  UNL     1      -3.496  25.479  -9.003  1.00  0.00    -0.088 SA
BRANCH  16  17
HETATM   17  C6  UNL     1      -4.762  24.796 -10.084  1.00  0.00     0.147 A 
HETATM   18  N6  UNL     1      -5.002  23.510 -10.387  1.00  0.00    -0.318 N 
HETATM   19  C7  UNL     1      -6.059  23.436 -11.245  1.00  0.00     0.176 A 
ATOM     20  H6  UNL     1      -4.476  22.712 -10.030  1.00  0.00     0.169 HD
HETATM   21  N7  UNL     1      -6.857  22.616 -11.957  1.00  0.00    -0.222 N 
HETATM   22  C8  UNL     1      -6.478  24.731 -11.472  1.00  0.00     0.176 A 
HETATM   23  O1  UNL     1      -7.717  23.358 -12.587  1.00  0.00    -0.153 OA
ATOM     24  H7  UNL     1      -6.797  21.598 -11.995  1.00  0.00     0.198 HD
HETATM   25  N8  UNL     1      -7.523  24.614 -12.324  1.00  0.00    -0.222 N 
ATOM     26  H8  UNL     1      -8.070  25.389 -12.699  1.00  0.00     0.198 HD
HETATM   27  N9  UNL     1      -5.670  25.534 -10.754  1.00  0.00    -0.318 N 
ATOM     28  H9  UNL     1      -5.735  26.551 -10.720  1.00  0.00     0.169 HD
ENDBRANCH  16  17
ENDBRANCH  15  16
ENDBRANCH  13  15
BRANCH   1  29
HETATM   29  N1  UNL     1      -0.923  23.997  -8.677  1.00  0.00    -0.385 N 
ATOM     30  H12 UNL     1      -0.447  24.359  -9.504  1.00  0.00     0.157 HD
ATOM     31  H11 UNL     1      -1.136  24.618  -7.897  1.00  0.00     0.157 HD
ENDBRANCH   1  29
TORSDOF 4
ENDMDL
MODEL 5
REMARK VINA RESULT: -5.709651320      3.193      7.253
REMARK  4 active torsions:
REMARK  status: ('A' for Active; 'I' for Inactive)
REMARK    1  A    between atoms: N1_1  and  C1_4 
REMARK    2  A    between atoms: C4_16  and  C5_17 
REMARK    3  A    between atoms: C5_17  and  S2_18 
REMARK    4  A    between atoms: S2_18  and  C6_19 
ROOT
HETATM    1  C1  UNL     1      -6.658  23.210 -11.707  1.00  0.00     0.117 A 
HETATM    2  N2  UNL     1      -7.217  23.780 -12.780  1.00  0.00    -0.322 N 
ATOM      3  H2  UNL     1      -7.818  23.239 -13.401  1.00  0.00     0.169 HD
HETATM    4  C2  UNL     1      -6.972  25.087 -13.025  1.00  0.00     0.158 A 
HETATM    5  S1  UNL     1      -7.754  25.792 -14.481  1.00  0.00    -0.013 SA
HETATM    6  N3  UNL     1      -6.176  25.822 -12.209  1.00  0.00    -0.320 N 
ATOM      7  H3  UNL     1      -6.011  26.806 -12.423  1.00  0.00     0.169 HD
HETATM    8  C3  UNL     1      -5.596  25.272 -11.115  1.00  0.00     0.138 A 
HETATM    9  N4  UNL     1      -4.785  25.695 -10.134  1.00  0.00    -0.284 N 
ATOM     10  H4  UNL     1      -4.417  26.641 -10.034  1.00  0.00     0.188 HD
HETATM   11  N5  UNL     1      -4.542  24.679  -9.313  1.00  0.00    -0.301 N 
ATOM     12  H5  UNL     1      -3.954  24.730  -8.481  1.00  0.00     0.186 HD
HETATM   13  C4  UNL     1      -5.182  23.574  -9.735  1.00  0.00     0.053 A 
HETATM   14  C9  UNL     1      -5.853  23.945 -10.877  1.00  0.00     0.078 A 
ENDROOT
BRANCH  13  15
HETATM   15  C5  UNL     1      -5.127  22.286  -9.067  1.00  0.00     0.142 C 
BRANCH  15  16
HETATM   16  S2  UNL     1      -3.869  22.267  -7.761  1.00  0.00    -0.088 SA
BRANCH  16  17
HETATM   17  C6  UNL     1      -2.341  21.553  -8.390  1.00  0.00     0.147 A 
HETATM   18  N6  UNL     1      -1.225  22.181  -8.791  1.00  0.00    -0.318 N 
HETATM   19  C7  UNL     1      -0.305  21.258  -9.193  1.00  0.00     0.176 A 
ATOM     20  H6  UNL     1      -1.086  23.191  -8.795  1.00  0.00     0.169 HD
HETATM   21  N7  UNL     1       0.936  21.066  -9.682  1.00  0.00    -0.222 N 
HETATM   22  C8  UNL     1      -0.888  20.018  -9.028  1.00  0.00     0.176 A 
HETATM   23  O1  UNL     1       1.110  19.785  -9.813  1.00  0.00    -0.153 OA
ATOM     24  H7  UNL     1       1.615  21.793  -9.909  1.00  0.00     0.198 HD
HETATM   25  N8  UNL     1       0.053  19.135  -9.436  1.00  0.00    -0.222 N 
ATOM     26  H8  UNL     1      -0.053  18.120  -9.445  1.00  0.00     0.198 HD
HETATM   27  N9  UNL     1      -2.125  20.230  -8.539  1.00  0.00    -0.318 N 
ATOM     28  H9  UNL     1      -2.799  19.499  -8.314  1.00  0.00     0.169 HD
ENDBRANCH  16  17
ENDBRANCH  15  16
ENDBRANCH  13  15
BRANCH   1  29
HETATM   29  N1  UNL     1      -6.874  21.985 -11.457  1.00  0.00    -0.385 N 
ATOM     30  H12 UNL     1      -7.754  21.701 -11.027  1.00  0.00     0.157 HD
ATOM     31  H11 UNL     1      -6.169  21.286 -11.689  1.00  0.00     0.157 HD
ENDBRANCH   1  29
TORSDOF 4
ENDMDL
