MODEL 1
REMARK VINA RESULT: -5.514511101      0.000      0.000
REMARK  6 active torsions:
REMARK  status: ('A' for Active; 'I' for Inactive)
REMARK    1  A    between atoms: O1_2  and  C2_3 
REMARK    2  A    between atoms: C2_3  and  C3_5 
REMARK    3  A    between atoms: C5_9  and  N2_10 
REMARK    4  A    between atoms: N2_10  and  C6_12 
REMARK    5  A    between atoms: C9_17  and  N4_18 
REMARK    6  A    between atoms: C11_27  and  N8_28 
ROOT
HETATM    1  C3  UNL     1      -6.317  24.261 -11.344  1.00  0.00     0.099 A 
HETATM    2  C4  UNL     1      -5.446  25.074 -10.657  1.00  0.00     0.127 A 
HETATM    3  N1  UNL     1      -4.687  24.556  -9.678  1.00  0.00    -0.200 N 
ATOM      4  H1  UNL     1      -4.045  25.166  -9.173  1.00  0.00     0.183 HD
HETATM    5  C5  UNL     1      -4.748  23.254  -9.343  1.00  0.00     0.698 A 
HETATM    6  N7  UNL     1      -5.601  22.476 -10.024  1.00  0.00    -0.175 N 
ATOM      7  H7  UNL     1      -5.657  21.486  -9.781  1.00  0.00     0.186 HD
HETATM    8  C11 UNL     1      -6.383  22.937 -11.009  1.00  0.00     0.132 A 
ENDROOT
BRANCH   5   9
HETATM    9  N2  UNL     1      -3.923  22.740  -8.300  1.00  0.00    -0.022 N 
ATOM     10  H2  UNL     1      -4.178  22.917  -7.328  1.00  0.00     0.203 HD
BRANCH   9  11
HETATM   11  C6  UNL     1      -2.851  22.048  -8.560  1.00  0.00     0.698 A 
HETATM   12  N3  UNL     1      -1.757  22.668  -9.028  1.00  0.00    -0.193 N 
HETATM   13  C7  UNL     1      -0.619  21.970  -9.310  1.00  0.00     0.059 A 
ATOM     14  H3  UNL     1      -1.776  23.678  -9.175  1.00  0.00     0.184 HD
HETATM   15  C8  UNL     1       0.599  22.651  -9.826  1.00  0.00     0.071 C 
HETATM   16  C9  UNL     1      -0.558  20.610  -9.124  1.00  0.00     0.167 A 
HETATM   17  C10 UNL     1      -1.687  19.983  -8.643  1.00  0.00     0.166 A 
HETATM   18  N5  UNL     1      -1.642  18.578  -8.443  1.00  0.00    -0.079 NA
HETATM   19  N6  UNL     1      -2.784  20.717  -8.380  1.00  0.00    -0.176 N 
ATOM     20  H6  UNL     1      -3.611  20.237  -8.024  1.00  0.00     0.185 HD
BRANCH  16  21
HETATM   21  N4  UNL     1       0.639  19.912  -9.425  1.00  0.00    -0.110 N 
HETATM   22  O3  UNL     1       0.709  18.994 -10.266  1.00  0.00    -0.532 OA
HETATM   23  O4  UNL     1       1.822  20.228  -8.778  1.00  0.00    -0.532 OA
ENDBRANCH  16  21
ENDBRANCH   9  11
ENDBRANCH   5   9
BRANCH   8  24
HETATM   24  N8  UNL     1      -7.207  22.147 -11.656  1.00  0.00    -0.384 N 
ATOM     25  H82 UNL     1      -7.899  22.518 -12.308  1.00  0.00     0.157 HD
ATOM     26  H81 UNL     1      -7.159  21.139 -11.507  1.00  0.00     0.157 HD
ENDBRANCH   8  24
BRANCH   1  27
HETATM   27  C2  UNL     1      -7.142  24.799 -12.396  1.00  0.00     0.298 C 
HETATM   28  O2  UNL     1      -8.342  25.046 -12.203  1.00  0.00    -0.259 OA
BRANCH  27  29
HETATM   29  O1  UNL     1      -6.631  25.063 -13.661  1.00  0.00    -0.322 OA
HETATM   30  C1  UNL     1      -6.225  26.383 -14.031  1.00  0.00     0.213 C 
ENDBRANCH  27  29
ENDBRANCH   1  27
TORSDOF 6
ENDMDL
MODEL 2
REMARK VINA RESULT: -5.369583656      0.604      1.729
REMARK  6 active torsions:
REMARK  status: ('A' for Active; 'I' for Inactive)
REMARK    1  A    between atoms: O1_2  and  C2_3 
REMARK    2  A    between atoms: C2_3  and  C3_5 
REMARK    3  A    between atoms: C5_9  and  N2_10 
REMARK    4  A    between atoms: N2_10  and  C6_12 
REMARK    5  A    between atoms: C9_17  and  N4_18 
REMARK    6  A    between atoms: C11_27  and  N8_28 
ROOT
HETATM    1  C3  UNL     1      -6.304  24.250 -11.325  1.00  0.00     0.099 A 
HETATM    2  C4  UNL     1      -5.407  25.059 -10.666  1.00  0.00     0.127 A 
HETATM    3  N1  UNL     1      -4.639  24.543  -9.693  1.00  0.00    -0.200 N 
ATOM      4  H1  UNL     1      -3.977  25.150  -9.209  1.00  0.00     0.183 HD
HETATM    5  C5  UNL     1      -4.715  23.247  -9.337  1.00  0.00     0.698 A 
HETATM    6  N7  UNL     1      -5.594  22.473  -9.991  1.00  0.00    -0.175 N 
ATOM      7  H7  UNL     1      -5.661  21.489  -9.732  1.00  0.00     0.186 HD
HETATM    8  C11 UNL     1      -6.386  22.933 -10.968  1.00  0.00     0.132 A 
ENDROOT
BRANCH   5   9
HETATM    9  N2  UNL     1      -3.880  22.735  -8.301  1.00  0.00    -0.022 N 
ATOM     10  H2  UNL     1      -4.148  22.877  -7.328  1.00  0.00     0.203 HD
BRANCH   9  11
HETATM   11  C6  UNL     1      -2.781  22.091  -8.571  1.00  0.00     0.698 A 
HETATM   12  N3  UNL     1      -2.732  20.761  -8.404  1.00  0.00    -0.193 N 
HETATM   13  C7  UNL     1      -1.595  20.059  -8.679  1.00  0.00     0.059 A 
ATOM     14  H3  UNL     1      -3.558  20.267  -8.067  1.00  0.00     0.184 HD
HETATM   15  C8  UNL     1      -1.534  18.583  -8.499  1.00  0.00     0.071 C 
HETATM   16  C9  UNL     1      -0.464  20.691  -9.135  1.00  0.00     0.167 A 
HETATM   17  C10 UNL     1      -0.525  22.058  -9.304  1.00  0.00     0.166 A 
HETATM   18  N5  UNL     1       0.634  22.729  -9.775  1.00  0.00    -0.079 NA
HETATM   19  N6  UNL     1      -1.671  22.704  -9.019  1.00  0.00    -0.176 N 
ATOM     20  H6  UNL     1      -1.699  23.715  -9.149  1.00  0.00     0.185 HD
BRANCH  16  21
HETATM   21  N4  UNL     1       0.703  19.935  -9.412  1.00  0.00    -0.110 N 
HETATM   22  O3  UNL     1       0.741  19.003 -10.239  1.00  0.00    -0.532 OA
HETATM   23  O4  UNL     1       1.891  20.205  -8.755  1.00  0.00    -0.532 OA
ENDBRANCH  16  21
ENDBRANCH   9  11
ENDBRANCH   5   9
BRANCH   8  24
HETATM   24  N8  UNL     1      -7.234  22.147 -11.589  1.00  0.00    -0.384 N 
ATOM     25  H82 UNL     1      -7.377  22.208 -12.597  1.00  0.00     0.157 HD
ATOM     26  H81 UNL     1      -7.765  21.459 -11.054  1.00  0.00     0.157 HD
ENDBRANCH   8  24
BRANCH   1  27
HETATM   27  C2  UNL     1      -7.139  24.787 -12.370  1.00  0.00     0.298 C 
HETATM   28  O2  UNL     1      -8.335  25.040 -12.165  1.00  0.00    -0.259 OA
BRANCH  27  29
HETATM   29  O1  UNL     1      -6.642  25.041 -13.643  1.00  0.00    -0.322 OA
HETATM   30  C1  UNL     1      -6.278  26.366 -14.040  1.00  0.00     0.213 C 
ENDBRANCH  27  29
ENDBRANCH   1  27
TORSDOF 6
ENDMDL
MODEL 3
REMARK VINA RESULT: -5.133418944      0.918      1.101
REMARK  6 active torsions:
REMARK  status: ('A' for Active; 'I' for Inactive)
REMARK    1  A    between atoms: O1_2  and  C2_3 
REMARK    2  A    between atoms: C2_3  and  C3_5 
REMARK    3  A    between atoms: C5_9  and  N2_10 
REMARK    4  A    between atoms: N2_10  and  C6_12 
REMARK    5  A    between atoms: C9_17  and  N4_18 
REMARK    6  A    between atoms: C11_27  and  N8_28 
ROOT
HETATM    1  C3  UNL     1      -6.507  24.327 -11.456  1.00  0.00     0.099 A 
HETATM    2  C4  UNL     1      -5.661  25.180 -10.785  1.00  0.00     0.127 A 
HETATM    3  N1  UNL     1      -4.878  24.701  -9.804  1.00  0.00    -0.200 N 
ATOM      4  H1  UNL     1      -4.255  25.341  -9.312  1.00  0.00     0.183 HD
HETATM    5  C5  UNL     1      -4.892  23.403  -9.451  1.00  0.00     0.698 A 
HETATM    6  N7  UNL     1      -5.723  22.586 -10.116  1.00  0.00    -0.175 N 
ATOM      7  H7  UNL     1      -5.743  21.599  -9.859  1.00  0.00     0.186 HD
HETATM    8  C11 UNL     1      -6.526  23.007 -11.101  1.00  0.00     0.132 A 
ENDROOT
BRANCH   5   9
HETATM    9  N2  UNL     1      -4.044  22.933  -8.406  1.00  0.00    -0.022 N 
ATOM     10  H2  UNL     1      -4.340  23.040  -7.436  1.00  0.00     0.203 HD
BRANCH   9  11
HETATM   11  C6  UNL     1      -2.899  22.368  -8.663  1.00  0.00     0.698 A 
HETATM   12  N3  UNL     1      -2.339  22.522  -9.872  1.00  0.00    -0.193 N 
HETATM   13  C7  UNL     1      -1.141  21.942 -10.171  1.00  0.00     0.059 A 
ATOM     14  H3  UNL     1      -2.817  23.081 -10.580  1.00  0.00     0.184 HD
HETATM   15  C8  UNL     1      -0.512  22.110 -11.509  1.00  0.00     0.071 C 
HETATM   16  C9  UNL     1      -0.469  21.184  -9.243  1.00  0.00     0.167 A 
HETATM   17  C10 UNL     1      -1.053  21.032  -8.003  1.00  0.00     0.166 A 
HETATM   18  N5  UNL     1      -0.374  20.253  -7.031  1.00  0.00    -0.079 NA
HETATM   19  N6  UNL     1      -2.237  21.625  -7.759  1.00  0.00    -0.176 N 
ATOM     20  H6  UNL     1      -2.655  21.503  -6.837  1.00  0.00     0.185 HD
BRANCH  16  21
HETATM   21  N4  UNL     1       0.775  20.594  -9.583  1.00  0.00    -0.110 N 
HETATM   22  O3  UNL     1       1.858  21.211  -9.566  1.00  0.00    -0.532 OA
HETATM   23  O4  UNL     1       0.845  19.264  -9.961  1.00  0.00    -0.532 OA
ENDBRANCH  16  21
ENDBRANCH   9  11
ENDBRANCH   5   9
BRANCH   8  24
HETATM   24  N8  UNL     1      -7.326  22.179 -11.733  1.00  0.00    -0.384 N 
ATOM     25  H82 UNL     1      -8.193  22.502 -12.163  1.00  0.00     0.157 HD
ATOM     26  H81 UNL     1      -7.080  21.192 -11.796  1.00  0.00     0.157 HD
ENDBRANCH   8  24
BRANCH   1  27
HETATM   27  C2  UNL     1      -7.357  24.822 -12.510  1.00  0.00     0.298 C 
HETATM   28  O2  UNL     1      -8.564  25.025 -12.314  1.00  0.00    -0.259 OA
BRANCH  27  29
HETATM   29  O1  UNL     1      -6.862  25.090 -13.780  1.00  0.00    -0.322 OA
HETATM   30  C1  UNL     1      -6.241  26.344 -14.079  1.00  0.00     0.213 C 
ENDBRANCH  27  29
ENDBRANCH   1  27
TORSDOF 6
ENDMDL
MODEL 4
REMARK VINA RESULT: -5.044927215      0.541      1.361
REMARK  6 active torsions:
REMARK  status: ('A' for Active; 'I' for Inactive)
REMARK    1  A    between atoms: O1_2  and  C2_3 
REMARK    2  A    between atoms: C2_3  and  C3_5 
REMARK    3  A    between atoms: C5_9  and  N2_10 
REMARK    4  A    between atoms: N2_10  and  C6_12 
REMARK    5  A    between atoms: C9_17  and  N4_18 
REMARK    6  A    between atoms: C11_27  and  N8_28 
ROOT
HETATM    1  C3  UNL     1      -6.474  24.003 -11.277  1.00  0.00     0.099 A 
HETATM    2  C4  UNL     1      -6.585  22.667 -10.966  1.00  0.00     0.127 A 
HETATM    3  N1  UNL     1      -5.815  22.146  -9.996  1.00  0.00    -0.200 N 
ATOM      4  H1  UNL     1      -5.903  21.155  -9.773  1.00  0.00     0.183 HD
HETATM    5  C5  UNL     1      -4.931  22.893  -9.310  1.00  0.00     0.698 A 
HETATM    6  N7  UNL     1      -4.837  24.193  -9.626  1.00  0.00    -0.175 N 
ATOM      7  H7  UNL     1      -4.171  24.772  -9.114  1.00  0.00     0.186 HD
HETATM    8  C11 UNL     1      -5.578  24.767 -10.583  1.00  0.00     0.132 A 
ENDROOT
BRANCH   5   9
HETATM    9  N2  UNL     1      -4.133  22.304  -8.286  1.00  0.00    -0.022 N 
ATOM     10  H2  UNL     1      -4.463  22.329  -7.321  1.00  0.00     0.203 HD
BRANCH   9  11
HETATM   11  C6  UNL     1      -2.993  21.735  -8.555  1.00  0.00     0.698 A 
HETATM   12  N3  UNL     1      -1.980  22.472  -9.034  1.00  0.00    -0.193 N 
HETATM   13  C7  UNL     1      -0.774  21.904  -9.325  1.00  0.00     0.059 A 
ATOM     14  H3  UNL     1      -2.112  23.472  -9.182  1.00  0.00     0.184 HD
HETATM   15  C8  UNL     1       0.356  22.714  -9.854  1.00  0.00     0.071 C 
HETATM   16  C9  UNL     1      -0.560  20.559  -9.137  1.00  0.00     0.167 A 
HETATM   17  C10 UNL     1      -1.608  19.812  -8.645  1.00  0.00     0.166 A 
HETATM   18  N5  UNL     1      -1.406  18.421  -8.443  1.00  0.00    -0.079 NA
HETATM   19  N6  UNL     1      -2.777  20.421  -8.373  1.00  0.00    -0.176 N 
ATOM     20  H6  UNL     1      -3.543  19.853  -8.009  1.00  0.00     0.185 HD
BRANCH  16  21
HETATM   21  N4  UNL     1       0.704  19.997  -9.449  1.00  0.00    -0.110 N 
HETATM   22  O3  UNL     1       0.898  19.223 -10.406  1.00  0.00    -0.532 OA
HETATM   23  O4  UNL     1       1.816  20.293  -8.678  1.00  0.00    -0.532 OA
ENDBRANCH  16  21
ENDBRANCH   9  11
ENDBRANCH   5   9
BRANCH   8  24
HETATM   24  N8  UNL     1      -5.462  26.044 -10.866  1.00  0.00    -0.384 N 
ATOM     25  H82 UNL     1      -5.540  26.758 -10.143  1.00  0.00     0.157 HD
ATOM     26  H81 UNL     1      -5.290  26.331 -11.830  1.00  0.00     0.157 HD
ENDBRANCH   8  24
BRANCH   1  27
HETATM   27  C2  UNL     1      -7.291  24.580 -12.316  1.00  0.00     0.298 C 
HETATM   28  O2  UNL     1      -8.461  24.921 -12.092  1.00  0.00    -0.259 OA
BRANCH  27  29
HETATM   29  O1  UNL     1      -6.803  24.777 -13.602  1.00  0.00    -0.322 OA
HETATM   30  C1  UNL     1      -6.350  26.064 -14.029  1.00  0.00     0.213 C 
ENDBRANCH  27  29
ENDBRANCH   1  27
TORSDOF 6
ENDMDL
MODEL 5
REMARK VINA RESULT: -4.883331700      0.789      2.290
REMARK  6 active torsions:
REMARK  status: ('A' for Active; 'I' for Inactive)
REMARK    1  A    between atoms: O1_2  and  C2_3 
REMARK    2  A    between atoms: C2_3  and  C3_5 
REMARK    3  A    between atoms: C5_9  and  N2_10 
REMARK    4  A    between atoms: N2_10  and  C6_12 
REMARK    5  A    between atoms: C9_17  and  N4_18 
REMARK    6  A    between atoms: C11_27  and  N8_28 
ROOT
HETATM    1  C3  UNL     1      -6.522  24.036 -11.255  1.00  0.00     0.099 A 
HETATM    2  C4  UNL     1      -6.651  22.710 -10.913  1.00  0.00     0.127 A 
HETATM    3  N1  UNL     1      -5.878  22.199  -9.940  1.00  0.00    -0.200 N 
ATOM      4  H1  UNL     1      -5.980  21.214  -9.693  1.00  0.00     0.183 HD
HETATM    5  C5  UNL     1      -4.974  22.946  -9.281  1.00  0.00     0.698 A 
HETATM    6  N7  UNL     1      -4.863  24.237  -9.628  1.00  0.00    -0.175 N 
ATOM      7  H7  UNL     1      -4.181  24.815  -9.136  1.00  0.00     0.186 HD
HETATM    8  C11 UNL     1      -5.605  24.801 -10.589  1.00  0.00     0.132 A 
ENDROOT
BRANCH   5   9
HETATM    9  N2  UNL     1      -4.175  22.367  -8.252  1.00  0.00    -0.022 N 
ATOM     10  H2  UNL     1      -4.528  22.350  -7.296  1.00  0.00     0.203 HD
BRANCH   9  11
HETATM   11  C6  UNL     1      -3.003  21.859  -8.507  1.00  0.00     0.698 A 
HETATM   12  N3  UNL     1      -2.812  20.537  -8.390  1.00  0.00    -0.193 N 
HETATM   13  C7  UNL     1      -1.595  19.977  -8.650  1.00  0.00     0.059 A 
ATOM     14  H3  UNL     1      -3.588  19.941  -8.102  1.00  0.00     0.184 HD
HETATM   15  C8  UNL     1      -1.376  18.510  -8.525  1.00  0.00     0.071 C 
HETATM   16  C9  UNL     1      -0.528  20.749  -9.041  1.00  0.00     0.167 A 
HETATM   17  C10 UNL     1      -0.735  22.107  -9.159  1.00  0.00     0.166 A 
HETATM   18  N5  UNL     1       0.355  22.921  -9.562  1.00  0.00    -0.079 NA
HETATM   19  N6  UNL     1      -1.954  22.609  -8.890  1.00  0.00    -0.176 N 
ATOM     20  H6  UNL     1      -2.091  23.616  -8.983  1.00  0.00     0.185 HD
BRANCH  16  21
HETATM   21  N4  UNL     1       0.724  20.138  -9.305  1.00  0.00    -0.110 N 
HETATM   22  O3  UNL     1       1.749  20.341  -8.624  1.00  0.00    -0.532 OA
HETATM   23  O4  UNL     1       0.870  19.259 -10.366  1.00  0.00    -0.532 OA
ENDBRANCH  16  21
ENDBRANCH   9  11
ENDBRANCH   5   9
BRANCH   8  24
HETATM   24  N8  UNL     1      -5.471  26.069 -10.903  1.00  0.00    -0.384 N 
ATOM     25  H82 UNL     1      -6.098  26.521 -11.569  1.00  0.00     0.157 HD
ATOM     26  H81 UNL     1      -4.725  26.617 -10.474  1.00  0.00     0.157 HD
ENDBRANCH   8  24
BRANCH   1  27
HETATM   27  C2  UNL     1      -7.340  24.603 -12.298  1.00  0.00     0.298 C 
HETATM   28  O2  UNL     1      -8.508  24.953 -12.073  1.00  0.00    -0.259 OA
BRANCH  27  29
HETATM   29  O1  UNL     1      -6.858  24.781 -13.589  1.00  0.00    -0.322 OA
HETATM   30  C1  UNL     1      -6.331  26.042 -14.011  1.00  0.00     0.213 C 
ENDBRANCH  27  29
ENDBRANCH   1  27
TORSDOF 6
ENDMDL
