MODEL 1
REMARK VINA RESULT: -10.167125161      0.000      0.000
REMARK  8 active torsions:
REMARK  status: ('A' for Active; 'I' for Inactive)
REMARK    1  A    between atoms: C2_2  and  C3_3 
REMARK    2  A    between atoms: C2_2  and  C11_17 
REMARK    3  A    between atoms: C3_3  and  C4_4 
REMARK    4  A    between atoms: C4_4  and  C5_5 
REMARK    5  A    between atoms: C5_5  and  N1_6 
REMARK    6  A    between atoms: C5_5  and  C6_10 
REMARK    7  A    between atoms: C6_10  and  C8_12 
REMARK    8  A    between atoms: C8_12  and  O1_13 
ROOT
HETATM    1  C11 UNL     1      48.249  32.501  42.763  1.00  0.00    -0.002 C 
HETATM    2  C12 UNL     1      46.868  32.239  42.198  1.00  0.00     0.006 C 
HETATM    3  C13 UNL     1      47.042  30.992  41.418  1.00  0.00     0.006 C 
HETATM    4  C14 UNL     1      48.238  31.399  40.567  1.00  0.00    -0.001 C 
HETATM    5  C15 UNL     1      47.824  32.080  39.313  1.00  0.00     0.002 C 
HETATM    6  C16 UNL     1      47.266  30.989  38.389  1.00  0.00     0.084 C 
HETATM    7  C17 UNL     1      47.616  31.304  36.974  1.00  0.00     0.132 C 
HETATM    8  O2  UNL     1      47.908  30.410  36.230  1.00  0.00    -0.298 OA
HETATM    9  C18 UNL     1      47.573  32.748  36.596  1.00  0.00     0.071 C 
HETATM   10  C19 UNL     1      47.673  32.943  35.107  1.00  0.00     0.091 C 
HETATM   11  C20 UNL     1      49.031  32.823  34.587  1.00  0.00     0.127 C 
HETATM   12  O3  UNL     1      49.231  32.718  33.399  1.00  0.00    -0.298 OA
HETATM   13  C21 UNL     1      50.184  32.830  35.516  1.00  0.00     0.079 C 
HETATM   14  C22 UNL     1      49.871  33.787  36.626  1.00  0.00     0.017 C 
HETATM   15  C23 UNL     1      48.614  33.467  37.383  1.00  0.00    -0.029 C 
HETATM   16  C24 UNL     1      48.008  34.819  37.789  1.00  0.00     0.016 C 
HETATM   17  C25 UNL     1      49.021  32.664  38.603  1.00  0.00    -0.001 C 
HETATM   18  C26 UNL     1      49.849  33.542  39.482  1.00  0.00     0.006 C 
HETATM   19  C27 UNL     1      49.274  33.653  40.877  1.00  0.00     0.010 C 
HETATM   20  C28 UNL     1      49.059  32.286  41.509  1.00  0.00    -0.036 C 
HETATM   21  C29 UNL     1      50.383  31.636  41.632  1.00  0.00     0.016 C 
ENDROOT
BRANCH   1  22
HETATM   22  C2  UNL     1      48.595  31.620  43.916  1.00  0.00    -0.014 C 
HETATM   23  C1  UNL     1      49.976  31.095  43.790  1.00  0.00     0.010 C 
BRANCH  22  24
HETATM   24  C3  UNL     1      48.236  32.086  45.267  1.00  0.00     0.007 C 
BRANCH  24  25
HETATM   25  C4  UNL     1      48.073  31.113  46.354  1.00  0.00     0.033 C 
BRANCH  25  26
HETATM   26  C5  UNL     1      49.119  30.670  47.258  1.00  0.00     0.190 C 
BRANCH  26  27
HETATM   27  N1  UNL     1      50.010  31.874  47.446  1.00  0.00    -0.075 N 
ATOM     28  H13 UNL     1      51.005  31.653  47.456  1.00  0.00     0.274 HD
ATOM     29  H12 UNL     1      50.036  32.498  46.640  1.00  0.00     0.274 HD
ATOM     30  H11 UNL     1      49.677  32.318  48.303  1.00  0.00     0.274 HD
ENDBRANCH  26  27
BRANCH  26  31
HETATM   31  C6  UNL     1      49.956  29.506  46.958  1.00  0.00     0.046 C 
HETATM   32  C7  UNL     1      49.192  28.279  47.538  1.00  0.00     0.015 C 
BRANCH  31  33
HETATM   33  C8  UNL     1      51.345  29.359  47.335  1.00  0.00     0.063 A 
HETATM   34  C9  UNL     1      51.888  27.989  47.679  1.00  0.00     0.041 A 
HETATM   35  C10 UNL     1      51.999  29.191  48.606  1.00  0.00     0.041 A 
BRANCH  33  36
HETATM   36  O1  UNL     1      52.196  29.989  46.342  1.00  0.00    -0.389 OA
ATOM     37  H1  UNL     1      53.068  30.116  46.697  1.00  0.00     0.210 HD
ENDBRANCH  33  36
ENDBRANCH  31  33
ENDBRANCH  26  31
ENDBRANCH  25  26
ENDBRANCH  24  25
ENDBRANCH  22  24
ENDBRANCH   1  22
TORSDOF 8
ENDMDL
MODEL 2
REMARK VINA RESULT: -10.113838136      1.381      2.502
REMARK  8 active torsions:
REMARK  status: ('A' for Active; 'I' for Inactive)
REMARK    1  A    between atoms: C2_2  and  C3_3 
REMARK    2  A    between atoms: C2_2  and  C11_17 
REMARK    3  A    between atoms: C3_3  and  C4_4 
REMARK    4  A    between atoms: C4_4  and  C5_5 
REMARK    5  A    between atoms: C5_5  and  N1_6 
REMARK    6  A    between atoms: C5_5  and  C6_10 
REMARK    7  A    between atoms: C6_10  and  C8_12 
REMARK    8  A    between atoms: C8_12  and  O1_13 
ROOT
HETATM    1  C11 UNL     1      48.263  31.154  42.354  1.00  0.00    -0.002 C 
HETATM    2  C12 UNL     1      49.686  30.734  42.049  1.00  0.00     0.006 C 
HETATM    3  C13 UNL     1      50.279  31.939  41.425  1.00  0.00     0.006 C 
HETATM    4  C14 UNL     1      49.231  32.203  40.353  1.00  0.00    -0.001 C 
HETATM    5  C15 UNL     1      49.517  31.459  39.098  1.00  0.00     0.002 C 
HETATM    6  C16 UNL     1      50.695  32.178  38.426  1.00  0.00     0.084 C 
HETATM    7  C17 UNL     1      50.529  32.133  36.945  1.00  0.00     0.132 C 
HETATM    8  O2  UNL     1      50.848  33.087  36.291  1.00  0.00    -0.298 OA
HETATM    9  C18 UNL     1      49.962  30.869  36.388  1.00  0.00     0.071 C 
HETATM   10  C19 UNL     1      50.083  30.810  34.889  1.00  0.00     0.091 C 
HETATM   11  C20 UNL     1      49.077  31.598  34.186  1.00  0.00     0.127 C 
HETATM   12  O3  UNL     1      49.191  31.837  33.006  1.00  0.00    -0.298 OA
HETATM   13  C21 UNL     1      47.896  32.114  34.916  1.00  0.00     0.079 C 
HETATM   14  C22 UNL     1      47.493  31.081  35.923  1.00  0.00     0.017 C 
HETATM   15  C23 UNL     1      48.572  30.716  36.901  1.00  0.00    -0.029 C 
HETATM   16  C24 UNL     1      48.375  29.224  37.212  1.00  0.00     0.016 C 
HETATM   17  C25 UNL     1      48.356  31.563  38.140  1.00  0.00    -0.001 C 
HETATM   18  C26 UNL     1      47.056  31.164  38.755  1.00  0.00     0.006 C 
HETATM   19  C27 UNL     1      47.217  30.729  40.194  1.00  0.00     0.010 C 
HETATM   20  C28 UNL     1      47.919  31.789  41.029  1.00  0.00    -0.036 C 
HETATM   21  C29 UNL     1      47.062  32.996  41.031  1.00  0.00     0.016 C 
ENDROOT
BRANCH   1  22
HETATM   22  C2  UNL     1      48.149  32.043  43.546  1.00  0.00    -0.014 C 
HETATM   23  C1  UNL     1      46.731  32.253  43.922  1.00  0.00     0.010 C 
BRANCH  22  24
HETATM   24  C3  UNL     1      49.053  31.787  44.681  1.00  0.00     0.007 C 
BRANCH  24  25
HETATM   25  C4  UNL     1      48.502  31.330  45.962  1.00  0.00     0.033 C 
BRANCH  25  26
HETATM   26  C5  UNL     1      49.254  30.694  47.029  1.00  0.00     0.190 C 
BRANCH  26  27
HETATM   27  N1  UNL     1      50.102  31.793  47.620  1.00  0.00    -0.075 N 
ATOM     28  H13 UNL     1      50.816  31.461  48.268  1.00  0.00     0.274 HD
ATOM     29  H12 UNL     1      50.742  32.226  46.954  1.00  0.00     0.274 HD
ATOM     30  H11 UNL     1      49.437  32.445  48.038  1.00  0.00     0.274 HD
ENDBRANCH  26  27
BRANCH  26  31
HETATM   31  C6  UNL     1      50.101  29.524  46.785  1.00  0.00     0.046 C 
HETATM   32  C7  UNL     1      49.341  28.317  47.408  1.00  0.00     0.015 C 
BRANCH  31  33
HETATM   33  C8  UNL     1      51.488  29.403  47.178  1.00  0.00     0.063 A 
HETATM   34  C9  UNL     1      52.074  28.034  47.448  1.00  0.00     0.041 A 
HETATM   35  C10 UNL     1      52.127  29.180  48.449  1.00  0.00     0.041 A 
BRANCH  33  36
HETATM   36  O1  UNL     1      52.333  30.122  46.242  1.00  0.00    -0.389 OA
ATOM     37  H1  UNL     1      53.097  29.600  46.028  1.00  0.00     0.210 HD
ENDBRANCH  33  36
ENDBRANCH  31  33
ENDBRANCH  26  31
ENDBRANCH  25  26
ENDBRANCH  24  25
ENDBRANCH  22  24
ENDBRANCH   1  22
TORSDOF 8
ENDMDL
MODEL 3
REMARK VINA RESULT: -9.845231399      1.734      3.273
REMARK  8 active torsions:
REMARK  status: ('A' for Active; 'I' for Inactive)
REMARK    1  A    between atoms: C2_2  and  C3_3 
REMARK    2  A    between atoms: C2_2  and  C11_17 
REMARK    3  A    between atoms: C3_3  and  C4_4 
REMARK    4  A    between atoms: C4_4  and  C5_5 
REMARK    5  A    between atoms: C5_5  and  N1_6 
REMARK    6  A    between atoms: C5_5  and  C6_10 
REMARK    7  A    between atoms: C6_10  and  C8_12 
REMARK    8  A    between atoms: C8_12  and  O1_13 
ROOT
HETATM    1  C11 UNL     1      48.136  30.882  44.770  1.00  0.00    -0.002 C 
HETATM    2  C12 UNL     1      49.330  30.196  44.138  1.00  0.00     0.006 C 
HETATM    3  C13 UNL     1      50.223  31.319  43.772  1.00  0.00     0.006 C 
HETATM    4  C14 UNL     1      49.234  32.176  42.992  1.00  0.00    -0.001 C 
HETATM    5  C15 UNL     1      49.181  31.799  41.556  1.00  0.00     0.002 C 
HETATM    6  C16 UNL     1      50.473  32.331  40.919  1.00  0.00     0.084 C 
HETATM    7  C17 UNL     1      50.193  32.785  39.527  1.00  0.00     0.132 C 
HETATM    8  O2  UNL     1      50.746  33.765  39.108  1.00  0.00    -0.298 OA
HETATM    9  C18 UNL     1      49.221  31.959  38.752  1.00  0.00     0.071 C 
HETATM   10  C19 UNL     1      49.208  32.326  37.292  1.00  0.00     0.091 C 
HETATM   11  C20 UNL     1      48.449  33.537  36.997  1.00  0.00     0.127 C 
HETATM   12  O3  UNL     1      48.547  34.081  35.921  1.00  0.00    -0.298 OA
HETATM   13  C21 UNL     1      47.546  34.114  38.018  1.00  0.00     0.079 C 
HETATM   14  C22 UNL     1      46.915  32.978  38.764  1.00  0.00     0.017 C 
HETATM   15  C23 UNL     1      47.894  32.049  39.423  1.00  0.00    -0.029 C 
HETATM   16  C24 UNL     1      47.264  30.650  39.351  1.00  0.00     0.016 C 
HETATM   17  C25 UNL     1      48.044  32.506  40.861  1.00  0.00    -0.001 C 
HETATM   18  C26 UNL     1      46.733  32.317  41.548  1.00  0.00     0.006 C 
HETATM   19  C27 UNL     1      46.855  31.438  42.773  1.00  0.00     0.010 C 
HETATM   20  C28 UNL     1      47.912  31.958  43.736  1.00  0.00    -0.036 C 
HETATM   21  C29 UNL     1      47.478  33.295  44.198  1.00  0.00     0.016 C 
ENDROOT
BRANCH   1  22
HETATM   22  C2  UNL     1      48.393  31.362  46.158  1.00  0.00    -0.014 C 
HETATM   23  C1  UNL     1      47.456  30.737  47.122  1.00  0.00     0.010 C 
BRANCH  22  24
HETATM   24  C3  UNL     1      49.793  31.421  46.615  1.00  0.00     0.007 C 
BRANCH  24  25
HETATM   25  C4  UNL     1      50.257  30.505  47.663  1.00  0.00     0.033 C 
BRANCH  25  26
HETATM   26  C5  UNL     1      51.287  29.494  47.508  1.00  0.00     0.190 C 
BRANCH  26  27
HETATM   27  N1  UNL     1      52.173  30.004  46.397  1.00  0.00    -0.075 N 
ATOM     28  H13 UNL     1      52.712  29.274  45.931  1.00  0.00     0.274 HD
ATOM     29  H12 UNL     1      51.661  30.317  45.572  1.00  0.00     0.274 HD
ATOM     30  H11 UNL     1      52.747  30.729  46.828  1.00  0.00     0.274 HD
ENDBRANCH  26  27
BRANCH  26  31
HETATM   31  C6  UNL     1      50.958  28.091  47.243  1.00  0.00     0.046 C 
HETATM   32  C7  UNL     1      49.556  27.861  47.880  1.00  0.00     0.015 C 
BRANCH  31  33
HETATM   33  C8  UNL     1      51.782  26.959  47.606  1.00  0.00     0.063 A 
HETATM   34  C9  UNL     1      53.086  27.184  48.340  1.00  0.00     0.041 A 
HETATM   35  C10 UNL     1      52.982  26.403  47.038  1.00  0.00     0.041 A 
BRANCH  33  36
HETATM   36  O1  UNL     1      50.985  25.973  48.313  1.00  0.00    -0.389 OA
ATOM     37  H1  UNL     1      51.432  25.135  48.313  1.00  0.00     0.210 HD
ENDBRANCH  33  36
ENDBRANCH  31  33
ENDBRANCH  26  31
ENDBRANCH  25  26
ENDBRANCH  24  25
ENDBRANCH  22  24
ENDBRANCH   1  22
TORSDOF 8
ENDMDL
MODEL 4
REMARK VINA RESULT: -9.769537973      1.667      1.936
REMARK  8 active torsions:
REMARK  status: ('A' for Active; 'I' for Inactive)
REMARK    1  A    between atoms: C2_2  and  C3_3 
REMARK    2  A    between atoms: C2_2  and  C11_17 
REMARK    3  A    between atoms: C3_3  and  C4_4 
REMARK    4  A    between atoms: C4_4  and  C5_5 
REMARK    5  A    between atoms: C5_5  and  N1_6 
REMARK    6  A    between atoms: C5_5  and  C6_10 
REMARK    7  A    between atoms: C6_10  and  C8_12 
REMARK    8  A    between atoms: C8_12  and  O1_13 
ROOT
HETATM    1  C11 UNL     1      48.260  32.724  42.948  1.00  0.00    -0.002 C 
HETATM    2  C12 UNL     1      46.877  32.605  42.342  1.00  0.00     0.006 C 
HETATM    3  C13 UNL     1      46.759  31.163  42.024  1.00  0.00     0.006 C 
HETATM    4  C14 UNL     1      48.046  30.980  41.230  1.00  0.00    -0.001 C 
HETATM    5  C15 UNL     1      47.856  31.275  39.786  1.00  0.00     0.002 C 
HETATM    6  C16 UNL     1      47.073  30.092  39.199  1.00  0.00     0.084 C 
HETATM    7  C17 UNL     1      47.537  29.826  37.808  1.00  0.00     0.132 C 
HETATM    8  O2  UNL     1      47.620  28.692  37.425  1.00  0.00    -0.298 OA
HETATM    9  C18 UNL     1      47.868  31.028  36.988  1.00  0.00     0.071 C 
HETATM   10  C19 UNL     1      48.062  30.683  35.535  1.00  0.00     0.091 C 
HETATM   11  C20 UNL     1      49.363  30.094  35.239  1.00  0.00     0.127 C 
HETATM   12  O3  UNL     1      49.570  29.554  34.177  1.00  0.00    -0.298 OA
HETATM   13  C21 UNL     1      50.451  30.154  36.242  1.00  0.00     0.079 C 
HETATM   14  C22 UNL     1      50.351  31.472  36.947  1.00  0.00     0.017 C 
HETATM   15  C23 UNL     1      49.030  31.717  37.618  1.00  0.00    -0.029 C 
HETATM   16  C24 UNL     1      48.768  33.226  37.501  1.00  0.00     0.016 C 
HETATM   17  C25 UNL     1      49.183  31.301  39.068  1.00  0.00    -0.001 C 
HETATM   18  C26 UNL     1      50.175  32.213  39.710  1.00  0.00     0.006 C 
HETATM   19  C27 UNL     1      49.601  32.913  40.922  1.00  0.00     0.010 C 
HETATM   20  C28 UNL     1      49.032  31.924  41.928  1.00  0.00    -0.036 C 
HETATM   21  C29 UNL     1      50.146  31.073  42.401  1.00  0.00     0.016 C 
ENDROOT
BRANCH   1  22
HETATM   22  C2  UNL     1      48.337  32.228  44.352  1.00  0.00    -0.014 C 
HETATM   23  C1  UNL     1      47.023  31.720  44.813  1.00  0.00     0.010 C 
BRANCH  22  24
HETATM   24  C3  UNL     1      49.485  31.377  44.716  1.00  0.00     0.007 C 
BRANCH  24  25
HETATM   25  C4  UNL     1      49.825  31.179  46.130  1.00  0.00     0.033 C 
BRANCH  25  26
HETATM   26  C5  UNL     1      50.600  30.076  46.667  1.00  0.00     0.190 C 
BRANCH  26  27
HETATM   27  N1  UNL     1      51.804  29.965  45.763  1.00  0.00    -0.075 N 
ATOM     28  H13 UNL     1      52.695  29.999  46.257  1.00  0.00     0.274 HD
ATOM     29  H12 UNL     1      51.931  29.038  45.356  1.00  0.00     0.274 HD
ATOM     30  H11 UNL     1      51.685  30.707  45.073  1.00  0.00     0.274 HD
ENDBRANCH  26  27
BRANCH  26  31
HETATM   31  C6  UNL     1      50.022  28.742  46.849  1.00  0.00     0.046 C 
HETATM   32  C7  UNL     1      48.591  28.978  47.415  1.00  0.00     0.015 C 
BRANCH  31  33
HETATM   33  C8  UNL     1      50.616  27.674  47.623  1.00  0.00     0.063 A 
HETATM   34  C9  UNL     1      50.941  27.898  49.084  1.00  0.00     0.041 A 
HETATM   35  C10 UNL     1      51.963  27.419  48.062  1.00  0.00     0.041 A 
BRANCH  33  36
HETATM   36  O1  UNL     1      49.833  26.461  47.474  1.00  0.00    -0.389 OA
ATOM     37  H1  UNL     1      49.221  26.380  48.197  1.00  0.00     0.210 HD
ENDBRANCH  33  36
ENDBRANCH  31  33
ENDBRANCH  26  31
ENDBRANCH  25  26
ENDBRANCH  24  25
ENDBRANCH  22  24
ENDBRANCH   1  22
TORSDOF 8
ENDMDL
MODEL 5
REMARK VINA RESULT: -9.711555778      1.265      1.373
REMARK  8 active torsions:
REMARK  status: ('A' for Active; 'I' for Inactive)
REMARK    1  A    between atoms: C2_2  and  C3_3 
REMARK    2  A    between atoms: C2_2  and  C11_17 
REMARK    3  A    between atoms: C3_3  and  C4_4 
REMARK    4  A    between atoms: C4_4  and  C5_5 
REMARK    5  A    between atoms: C5_5  and  N1_6 
REMARK    6  A    between atoms: C5_5  and  C6_10 
REMARK    7  A    between atoms: C6_10  and  C8_12 
REMARK    8  A    between atoms: C8_12  and  O1_13 
ROOT
HETATM    1  C11 UNL     1      48.319  32.395  43.063  1.00  0.00    -0.002 C 
HETATM    2  C12 UNL     1      46.903  32.381  42.526  1.00  0.00     0.006 C 
HETATM    3  C13 UNL     1      46.834  31.114  41.762  1.00  0.00     0.006 C 
HETATM    4  C14 UNL     1      48.066  31.288  40.884  1.00  0.00    -0.001 C 
HETATM    5  C15 UNL     1      47.756  32.020  39.628  1.00  0.00     0.002 C 
HETATM    6  C16 UNL     1      46.992  31.037  38.729  1.00  0.00     0.084 C 
HETATM    7  C17 UNL     1      47.365  31.268  37.305  1.00  0.00     0.132 C 
HETATM    8  O2  UNL     1      47.475  30.327  36.568  1.00  0.00    -0.298 OA
HETATM    9  C18 UNL     1      47.576  32.691  36.906  1.00  0.00     0.071 C 
HETATM   10  C19 UNL     1      47.679  32.849  35.412  1.00  0.00     0.091 C 
HETATM   11  C20 UNL     1      48.982  32.480  34.871  1.00  0.00     0.127 C 
HETATM   12  O3  UNL     1      49.137  32.327  33.681  1.00  0.00    -0.298 OA
HETATM   13  C21 UNL     1      50.136  32.289  35.779  1.00  0.00     0.079 C 
HETATM   14  C22 UNL     1      50.023  33.298  36.880  1.00  0.00     0.017 C 
HETATM   15  C23 UNL     1      48.745  33.219  37.664  1.00  0.00    -0.029 C 
HETATM   16  C24 UNL     1      48.401  34.663  38.061  1.00  0.00     0.016 C 
HETATM   17  C25 UNL     1      49.024  32.370  38.888  1.00  0.00    -0.001 C 
HETATM   18  C26 UNL     1      50.015  33.093  39.739  1.00  0.00     0.006 C 
HETATM   19  C27 UNL     1      49.498  33.321  41.142  1.00  0.00     0.010 C 
HETATM   20  C28 UNL     1      49.053  32.023  41.798  1.00  0.00    -0.036 C 
HETATM   21  C29 UNL     1      50.239  31.146  41.906  1.00  0.00     0.016 C 
ENDROOT
BRANCH   1  22
HETATM   22  C2  UNL     1      48.524  31.478  44.222  1.00  0.00    -0.014 C 
HETATM   23  C1  UNL     1      49.965  31.198  44.433  1.00  0.00     0.010 C 
BRANCH  22  24
HETATM   24  C3  UNL     1      47.765  31.752  45.455  1.00  0.00     0.007 C 
BRANCH  24  25
HETATM   25  C4  UNL     1      48.195  31.153  46.724  1.00  0.00     0.033 C 
BRANCH  25  26
HETATM   26  C5  UNL     1      48.323  29.731  46.987  1.00  0.00     0.190 C 
BRANCH  26  27
HETATM   27  N1  UNL     1      46.952  29.292  47.440  1.00  0.00    -0.075 N 
ATOM     28  H13 UNL     1      46.743  29.523  48.411  1.00  0.00     0.274 HD
ATOM     29  H12 UNL     1      46.189  29.827  47.025  1.00  0.00     0.274 HD
ATOM     30  H11 UNL     1      46.913  28.292  47.237  1.00  0.00     0.274 HD
ENDBRANCH  26  27
BRANCH  26  31
HETATM   31  C6  UNL     1      49.319  29.206  47.924  1.00  0.00     0.046 C 
HETATM   32  C7  UNL     1      50.413  30.309  48.036  1.00  0.00     0.015 C 
BRANCH  31  33
HETATM   33  C8  UNL     1      50.004  27.939  47.789  1.00  0.00     0.063 A 
HETATM   34  C9  UNL     1      50.970  27.490  48.864  1.00  0.00     0.041 A 
HETATM   35  C10 UNL     1      51.344  27.591  47.392  1.00  0.00     0.041 A 
BRANCH  33  36
HETATM   36  O1  UNL     1      49.045  26.884  47.519  1.00  0.00    -0.389 OA
ATOM     37  H1  UNL     1      49.413  26.261  46.903  1.00  0.00     0.210 HD
ENDBRANCH  33  36
ENDBRANCH  31  33
ENDBRANCH  26  31
ENDBRANCH  25  26
ENDBRANCH  24  25
ENDBRANCH  22  24
ENDBRANCH   1  22
TORSDOF 8
ENDMDL
