MODEL 1
REMARK VINA RESULT: -9.041834026      0.000      0.000
REMARK  8 active torsions:
REMARK  status: ('A' for Active; 'I' for Inactive)
REMARK    1  A    between atoms: C2_2  and  C3_3 
REMARK    2  A    between atoms: C2_2  and  C4_6 
REMARK    3  A    between atoms: C3_3  and  O1_4 
REMARK    4  A    between atoms: C4_6  and  C5_7 
REMARK    5  A    between atoms: C5_7  and  C6_8 
REMARK    6  A    between atoms: C6_8  and  C7_9 
REMARK    7  A    between atoms: C7_9  and  C9_11 
REMARK    8  A    between atoms: C15_17  and  O2_18 
ROOT
HETATM    1  C9  UNL     1      48.329  32.400  41.690  1.00  0.00    -0.002 C 
HETATM    2  C10 UNL     1      46.837  32.126  41.516  1.00  0.00     0.006 C 
HETATM    3  C11 UNL     1      46.558  32.176  40.005  1.00  0.00     0.006 C 
HETATM    4  C12 UNL     1      47.803  32.886  39.538  1.00  0.00    -0.001 C 
HETATM    5  C13 UNL     1      47.979  33.093  38.112  1.00  0.00     0.001 C 
HETATM    6  C14 UNL     1      47.391  34.469  37.759  1.00  0.00     0.038 C 
HETATM    7  C15 UNL     1      48.335  35.599  37.874  1.00  0.00     0.123 C 
HETATM    8  C16 UNL     1      49.618  35.432  37.135  1.00  0.00     0.025 C 
HETATM    9  C17 UNL     1      50.794  36.003  37.885  1.00  0.00     0.011 C 
HETATM   10  C18 UNL     1      50.667  37.504  37.998  1.00  0.00     0.013 C 
HETATM   11  C19 UNL     1      51.309  38.108  36.766  1.00  0.00     0.079 C 
HETATM   12  C20 UNL     1      52.090  37.040  36.139  1.00  0.00     0.138 C 
HETATM   13  O3  UNL     1      52.647  37.057  35.079  1.00  0.00    -0.297 OA
HETATM   14  C21 UNL     1      52.065  35.890  37.081  1.00  0.00     0.129 C 
HETATM   15  C22 UNL     1      52.158  34.658  36.288  1.00  0.00     0.139 C 
HETATM   16  O4  UNL     1      53.273  34.351  35.862  1.00  0.00    -0.297 OA
HETATM   17  C23 UNL     1      51.055  33.748  35.950  1.00  0.00     0.085 C 
HETATM   18  C24 UNL     1      49.753  34.069  36.608  1.00  0.00     0.008 C 
HETATM   19  C25 UNL     1      49.345  32.916  37.536  1.00  0.00    -0.035 C 
HETATM   20  C26 UNL     1      49.241  31.747  36.517  1.00  0.00     0.016 C 
HETATM   21  C27 UNL     1      50.410  32.511  38.478  1.00  0.00     0.011 C 
HETATM   22  C28 UNL     1      50.141  32.652  39.947  1.00  0.00     0.011 C 
HETATM   23  C29 UNL     1      48.829  32.077  40.292  1.00  0.00    -0.036 C 
HETATM   24  C30 UNL     1      48.697  30.606  40.135  1.00  0.00     0.016 C 
ENDROOT
BRANCH   1  25
HETATM   25  C7  UNL     1      48.851  31.499  42.765  1.00  0.00    -0.014 C 
HETATM   26  C8  UNL     1      50.290  31.159  42.633  1.00  0.00     0.010 C 
BRANCH  25  27
HETATM   27  C6  UNL     1      48.593  32.215  44.066  1.00  0.00     0.005 C 
BRANCH  27  28
HETATM   28  C5  UNL     1      48.104  31.366  45.182  1.00  0.00     0.001 C 
BRANCH  28  29
HETATM   29  C4  UNL     1      48.956  31.727  46.414  1.00  0.00     0.006 C 
BRANCH  29  30
HETATM   30  C2  UNL     1      49.627  30.495  46.965  1.00  0.00     0.005 C 
HETATM   31  C1  UNL     1      50.296  30.722  48.289  1.00  0.00     0.012 C 
BRANCH  30  32
HETATM   32  C3  UNL     1      50.592  29.881  46.004  1.00  0.00     0.168 C 
BRANCH  32  33
HETATM   33  O1  UNL     1      51.668  30.723  45.714  1.00  0.00    -0.400 OA
ATOM     34  H1  UNL     1      52.110  30.484  44.908  1.00  0.00     0.209 HD
ENDBRANCH  32  33
ENDBRANCH  30  32
ENDBRANCH  29  30
ENDBRANCH  28  29
ENDBRANCH  27  28
ENDBRANCH  25  27
ENDBRANCH   1  25
BRANCH   7  35
HETATM   35  O2  UNL     1      48.641  35.977  39.198  1.00  0.00    -0.395 OA
ATOM     36  H2  UNL     1      48.663  35.259  39.819  1.00  0.00     0.210 HD
ENDBRANCH   7  35
TORSDOF 8
ENDMDL
MODEL 2
REMARK VINA RESULT: -8.708215417      3.205      4.863
REMARK  8 active torsions:
REMARK  status: ('A' for Active; 'I' for Inactive)
REMARK    1  A    between atoms: C2_2  and  C3_3 
REMARK    2  A    between atoms: C2_2  and  C4_6 
REMARK    3  A    between atoms: C3_3  and  O1_4 
REMARK    4  A    between atoms: C4_6  and  C5_7 
REMARK    5  A    between atoms: C5_7  and  C6_8 
REMARK    6  A    between atoms: C6_8  and  C7_9 
REMARK    7  A    between atoms: C7_9  and  C9_11 
REMARK    8  A    between atoms: C15_17  and  O2_18 
ROOT
HETATM    1  C9  UNL     1      48.764  31.655  41.142  1.00  0.00    -0.002 C 
HETATM    2  C10 UNL     1      47.730  32.767  40.986  1.00  0.00     0.006 C 
HETATM    3  C11 UNL     1      46.992  32.494  39.665  1.00  0.00     0.006 C 
HETATM    4  C12 UNL     1      47.961  31.533  39.025  1.00  0.00    -0.001 C 
HETATM    5  C13 UNL     1      47.607  30.959  37.739  1.00  0.00     0.001 C 
HETATM    6  C14 UNL     1      48.199  31.860  36.642  1.00  0.00     0.038 C 
HETATM    7  C15 UNL     1      49.576  31.520  36.231  1.00  0.00     0.123 C 
HETATM    8  C16 UNL     1      49.789  30.099  35.838  1.00  0.00     0.025 C 
HETATM    9  C17 UNL     1      51.129  29.572  36.284  1.00  0.00     0.011 C 
HETATM   10  C18 UNL     1      52.243  30.288  35.558  1.00  0.00     0.013 C 
HETATM   11  C19 UNL     1      52.506  29.535  34.271  1.00  0.00     0.079 C 
HETATM   12  C20 UNL     1      51.832  28.242  34.402  1.00  0.00     0.138 C 
HETATM   13  O3  UNL     1      51.682  27.399  33.565  1.00  0.00    -0.297 OA
HETATM   14  C21 UNL     1      51.349  28.158  35.805  1.00  0.00     0.129 C 
HETATM   15  C22 UNL     1      50.135  27.333  35.814  1.00  0.00     0.139 C 
HETATM   16  O4  UNL     1      50.288  26.112  35.740  1.00  0.00    -0.297 OA
HETATM   17  C23 UNL     1      48.749  27.814  35.903  1.00  0.00     0.085 C 
HETATM   18  C24 UNL     1      48.608  29.282  36.143  1.00  0.00     0.008 C 
HETATM   19  C25 UNL     1      47.923  29.521  37.497  1.00  0.00    -0.035 C 
HETATM   20  C26 UNL     1      46.562  28.808  37.261  1.00  0.00     0.016 C 
HETATM   21  C27 UNL     1      48.552  28.786  38.614  1.00  0.00     0.011 C 
HETATM   22  C28 UNL     1      49.139  29.586  39.740  1.00  0.00     0.011 C 
HETATM   23  C29 UNL     1      48.187  30.613  40.199  1.00  0.00    -0.036 C 
HETATM   24  C30 UNL     1      46.945  30.114  40.843  1.00  0.00     0.016 C 
ENDROOT
BRANCH   1  25
HETATM   25  C7  UNL     1      48.800  31.245  42.581  1.00  0.00    -0.014 C 
HETATM   26  C8  UNL     1      50.149  30.868  43.075  1.00  0.00     0.010 C 
BRANCH  25  27
HETATM   27  C6  UNL     1      48.260  32.417  43.360  1.00  0.00     0.005 C 
BRANCH  27  28
HETATM   28  C5  UNL     1      47.339  32.078  44.475  1.00  0.00     0.001 C 
BRANCH  28  29
HETATM   29  C4  UNL     1      48.161  32.199  45.773  1.00  0.00     0.006 C 
BRANCH  29  30
HETATM   30  C2  UNL     1      48.458  30.832  46.332  1.00  0.00     0.005 C 
HETATM   31  C1  UNL     1      47.311  30.237  47.095  1.00  0.00     0.012 C 
BRANCH  30  32
HETATM   32  C3  UNL     1      49.696  30.803  47.168  1.00  0.00     0.168 C 
BRANCH  32  33
HETATM   33  O1  UNL     1      50.800  31.345  46.508  1.00  0.00    -0.400 OA
ATOM     34  H1  UNL     1      50.951  30.944  45.660  1.00  0.00     0.209 HD
ENDBRANCH  32  33
ENDBRANCH  30  32
ENDBRANCH  29  30
ENDBRANCH  28  29
ENDBRANCH  27  28
ENDBRANCH  25  27
ENDBRANCH   1  25
BRANCH   7  35
HETATM   35  O2  UNL     1      50.572  31.867  37.168  1.00  0.00    -0.395 OA
ATOM     36  H2  UNL     1      51.139  31.150  37.426  1.00  0.00     0.210 HD
ENDBRANCH   7  35
TORSDOF 8
ENDMDL
MODEL 3
REMARK VINA RESULT: -8.664665248      2.766      4.006
REMARK  8 active torsions:
REMARK  status: ('A' for Active; 'I' for Inactive)
REMARK    1  A    between atoms: C2_2  and  C3_3 
REMARK    2  A    between atoms: C2_2  and  C4_6 
REMARK    3  A    between atoms: C3_3  and  O1_4 
REMARK    4  A    between atoms: C4_6  and  C5_7 
REMARK    5  A    between atoms: C5_7  and  C6_8 
REMARK    6  A    between atoms: C6_8  and  C7_9 
REMARK    7  A    between atoms: C7_9  and  C9_11 
REMARK    8  A    between atoms: C15_17  and  O2_18 
ROOT
HETATM    1  C9  UNL     1      48.469  31.834  41.901  1.00  0.00    -0.002 C 
HETATM    2  C10 UNL     1      47.283  32.795  41.860  1.00  0.00     0.006 C 
HETATM    3  C11 UNL     1      46.605  32.593  40.495  1.00  0.00     0.006 C 
HETATM    4  C12 UNL     1      47.711  31.875  39.764  1.00  0.00    -0.001 C 
HETATM    5  C13 UNL     1      47.458  31.430  38.406  1.00  0.00     0.001 C 
HETATM    6  C14 UNL     1      47.919  32.544  37.451  1.00  0.00     0.038 C 
HETATM    7  C15 UNL     1      49.335  32.465  37.038  1.00  0.00     0.123 C 
HETATM    8  C16 UNL     1      49.759  31.154  36.472  1.00  0.00     0.025 C 
HETATM    9  C17 UNL     1      51.158  30.775  36.884  1.00  0.00     0.011 C 
HETATM   10  C18 UNL     1      52.160  31.735  36.288  1.00  0.00     0.013 C 
HETATM   11  C19 UNL     1      52.543  31.203  34.922  1.00  0.00     0.079 C 
HETATM   12  C20 UNL     1      52.068  29.820  34.867  1.00  0.00     0.138 C 
HETATM   13  O3  UNL     1      52.051  29.081  33.924  1.00  0.00    -0.297 OA
HETATM   14  C21 UNL     1      51.590  29.483  36.234  1.00  0.00     0.129 C 
HETATM   15  C22 UNL     1      50.511  28.496  36.103  1.00  0.00     0.139 C 
HETATM   16  O4  UNL     1      50.845  27.331  35.877  1.00  0.00    -0.297 OA
HETATM   17  C23 UNL     1      49.069  28.754  36.213  1.00  0.00     0.085 C 
HETATM   18  C24 UNL     1      48.710  30.141  36.637  1.00  0.00     0.008 C 
HETATM   19  C25 UNL     1      47.985  30.097  37.990  1.00  0.00    -0.035 C 
HETATM   20  C26 UNL     1      46.747  29.231  37.626  1.00  0.00     0.016 C 
HETATM   21  C27 UNL     1      48.706  29.323  39.021  1.00  0.00     0.011 C 
HETATM   22  C28 UNL     1      49.158  30.045  40.256  1.00  0.00     0.011 C 
HETATM   23  C29 UNL     1      48.061  30.852  40.816  1.00  0.00    -0.036 C 
HETATM   24  C30 UNL     1      46.901  30.098  41.356  1.00  0.00     0.016 C 
ENDROOT
BRANCH   1  25
HETATM   25  C7  UNL     1      48.553  31.249  43.276  1.00  0.00    -0.014 C 
HETATM   26  C8  UNL     1      49.938  31.002  43.751  1.00  0.00     0.010 C 
BRANCH  25  27
HETATM   27  C6  UNL     1      47.847  32.222  44.185  1.00  0.00     0.005 C 
BRANCH  27  28
HETATM   28  C5  UNL     1      48.318  32.245  45.593  1.00  0.00     0.001 C 
BRANCH  28  29
HETATM   29  C4  UNL     1      47.787  30.957  46.253  1.00  0.00     0.006 C 
BRANCH  29  30
HETATM   30  C2  UNL     1      48.732  30.497  47.334  1.00  0.00     0.005 C 
HETATM   31  C1  UNL     1      49.951  31.360  47.468  1.00  0.00     0.012 C 
BRANCH  30  32
HETATM   32  C3  UNL     1      49.134  29.066  47.182  1.00  0.00     0.168 C 
BRANCH  32  33
HETATM   33  O1  UNL     1      50.358  28.921  46.526  1.00  0.00    -0.400 OA
ATOM     34  H1  UNL     1      50.669  28.023  46.529  1.00  0.00     0.209 HD
ENDBRANCH  32  33
ENDBRANCH  30  32
ENDBRANCH  29  30
ENDBRANCH  28  29
ENDBRANCH  27  28
ENDBRANCH  25  27
ENDBRANCH   1  25
BRANCH   7  35
HETATM   35  O2  UNL     1      50.260  32.828  38.040  1.00  0.00    -0.395 OA
ATOM     36  H2  UNL     1      50.560  32.106  38.579  1.00  0.00     0.210 HD
ENDBRANCH   7  35
TORSDOF 8
ENDMDL
MODEL 4
REMARK VINA RESULT: -8.659391792      1.196      1.297
REMARK  8 active torsions:
REMARK  status: ('A' for Active; 'I' for Inactive)
REMARK    1  A    between atoms: C2_2  and  C3_3 
REMARK    2  A    between atoms: C2_2  and  C4_6 
REMARK    3  A    between atoms: C3_3  and  O1_4 
REMARK    4  A    between atoms: C4_6  and  C5_7 
REMARK    5  A    between atoms: C5_7  and  C6_8 
REMARK    6  A    between atoms: C6_8  and  C7_9 
REMARK    7  A    between atoms: C7_9  and  C9_11 
REMARK    8  A    between atoms: C15_17  and  O2_18 
ROOT
HETATM    1  C9  UNL     1      48.352  32.326  41.740  1.00  0.00    -0.002 C 
HETATM    2  C10 UNL     1      46.856  32.066  41.584  1.00  0.00     0.006 C 
HETATM    3  C11 UNL     1      46.554  32.149  40.079  1.00  0.00     0.006 C 
HETATM    4  C12 UNL     1      47.798  32.861  39.608  1.00  0.00    -0.001 C 
HETATM    5  C13 UNL     1      47.954  33.096  38.184  1.00  0.00     0.001 C 
HETATM    6  C14 UNL     1      47.369  34.484  37.869  1.00  0.00     0.038 C 
HETATM    7  C15 UNL     1      48.322  35.605  37.992  1.00  0.00     0.123 C 
HETATM    8  C16 UNL     1      49.593  35.445  37.231  1.00  0.00     0.025 C 
HETATM    9  C17 UNL     1      50.784  35.993  37.975  1.00  0.00     0.011 C 
HETATM   10  C18 UNL     1      50.669  37.492  38.121  1.00  0.00     0.013 C 
HETATM   11  C19 UNL     1      51.296  38.117  36.893  1.00  0.00     0.079 C 
HETATM   12  C20 UNL     1      52.060  37.058  36.231  1.00  0.00     0.138 C 
HETATM   13  O3  UNL     1      52.601  37.094  35.163  1.00  0.00    -0.297 OA
HETATM   14  C21 UNL     1      52.042  35.889  37.149  1.00  0.00     0.129 C 
HETATM   15  C22 UNL     1      52.115  34.673  36.330  1.00  0.00     0.139 C 
HETATM   16  O4  UNL     1      53.221  34.368  35.881  1.00  0.00    -0.297 OA
HETATM   17  C23 UNL     1      51.001  33.778  35.989  1.00  0.00     0.085 C 
HETATM   18  C24 UNL     1      49.711  34.092  36.673  1.00  0.00     0.008 C 
HETATM   19  C25 UNL     1      49.309  32.923  37.584  1.00  0.00    -0.035 C 
HETATM   20  C26 UNL     1      49.183  31.776  36.542  1.00  0.00     0.016 C 
HETATM   21  C27 UNL     1      50.386  32.492  38.500  1.00  0.00     0.011 C 
HETATM   22  C28 UNL     1      50.140  32.603  39.976  1.00  0.00     0.011 C 
HETATM   23  C29 UNL     1      48.830  32.030  40.329  1.00  0.00    -0.036 C 
HETATM   24  C30 UNL     1      48.685  30.563  40.143  1.00  0.00     0.016 C 
ENDROOT
BRANCH   1  25
HETATM   25  C7  UNL     1      48.884  31.400  42.789  1.00  0.00    -0.014 C 
HETATM   26  C8  UNL     1      50.360  31.234  42.766  1.00  0.00     0.010 C 
BRANCH  25  27
HETATM   27  C6  UNL     1      48.436  31.970  44.111  1.00  0.00     0.005 C 
BRANCH  27  28
HETATM   28  C5  UNL     1      49.134  31.439  45.310  1.00  0.00     0.001 C 
BRANCH  28  29
HETATM   29  C4  UNL     1      48.046  31.170  46.367  1.00  0.00     0.006 C 
BRANCH  29  30
HETATM   30  C2  UNL     1      48.479  30.063  47.293  1.00  0.00     0.005 C 
HETATM   31  C1  UNL     1      49.758  29.400  46.873  1.00  0.00     0.012 C 
BRANCH  30  32
HETATM   32  C3  UNL     1      47.417  29.035  47.505  1.00  0.00     0.168 C 
BRANCH  32  33
HETATM   33  O1  UNL     1      46.195  29.596  47.881  1.00  0.00    -0.400 OA
ATOM     34  H1  UNL     1      46.097  29.659  48.823  1.00  0.00     0.209 HD
ENDBRANCH  32  33
ENDBRANCH  30  32
ENDBRANCH  29  30
ENDBRANCH  28  29
ENDBRANCH  27  28
ENDBRANCH  25  27
ENDBRANCH   1  25
BRANCH   7  35
HETATM   35  O2  UNL     1      48.651  35.954  39.320  1.00  0.00    -0.395 OA
ATOM     36  H2  UNL     1      48.667  36.888  39.490  1.00  0.00     0.210 HD
ENDBRANCH   7  35
TORSDOF 8
ENDMDL
MODEL 5
REMARK VINA RESULT: -8.500113640      2.064      2.986
REMARK  8 active torsions:
REMARK  status: ('A' for Active; 'I' for Inactive)
REMARK    1  A    between atoms: C2_2  and  C3_3 
REMARK    2  A    between atoms: C2_2  and  C4_6 
REMARK    3  A    between atoms: C3_3  and  O1_4 
REMARK    4  A    between atoms: C4_6  and  C5_7 
REMARK    5  A    between atoms: C5_7  and  C6_8 
REMARK    6  A    between atoms: C6_8  and  C7_9 
REMARK    7  A    between atoms: C7_9  and  C9_11 
REMARK    8  A    between atoms: C15_17  and  O2_18 
ROOT
HETATM    1  C9  UNL     1      48.715  32.068  43.151  1.00  0.00    -0.002 C 
HETATM    2  C10 UNL     1      47.431  32.803  43.527  1.00  0.00     0.006 C 
HETATM    3  C11 UNL     1      46.568  32.852  42.256  1.00  0.00     0.006 C 
HETATM    4  C12 UNL     1      47.618  32.534  41.222  1.00  0.00    -0.001 C 
HETATM    5  C13 UNL     1      47.201  32.418  39.836  1.00  0.00     0.001 C 
HETATM    6  C14 UNL     1      47.360  33.799  39.178  1.00  0.00     0.038 C 
HETATM    7  C15 UNL     1      48.688  34.058  38.586  1.00  0.00     0.123 C 
HETATM    8  C16 UNL     1      49.170  33.022  37.629  1.00  0.00     0.025 C 
HETATM    9  C17 UNL     1      50.653  32.781  37.741  1.00  0.00     0.011 C 
HETATM   10  C18 UNL     1      51.420  34.010  37.314  1.00  0.00     0.013 C 
HETATM   11  C19 UNL     1      51.635  33.916  35.818  1.00  0.00     0.079 C 
HETATM   12  C20 UNL     1      51.329  32.535  35.441  1.00  0.00     0.138 C 
HETATM   13  O3  UNL     1      51.248  32.071  34.340  1.00  0.00    -0.297 OA
HETATM   14  C21 UNL     1      51.126  31.786  36.709  1.00  0.00     0.129 C 
HETATM   15  C22 UNL     1      50.169  30.705  36.445  1.00  0.00     0.139 C 
HETATM   16  O4  UNL     1      50.600  29.707  35.864  1.00  0.00    -0.297 OA
HETATM   17  C23 UNL     1      48.744  30.690  36.802  1.00  0.00     0.085 C 
HETATM   18  C24 UNL     1      48.293  31.845  37.636  1.00  0.00     0.008 C 
HETATM   19  C25 UNL     1      47.811  31.340  39.003  1.00  0.00    -0.035 C 
HETATM   20  C26 UNL     1      46.644  30.408  38.571  1.00  0.00     0.016 C 
HETATM   21  C27 UNL     1      48.780  30.453  39.680  1.00  0.00     0.011 C 
HETATM   22  C28 UNL     1      49.338  30.896  41.000  1.00  0.00     0.011 C 
HETATM   23  C29 UNL     1      48.257  31.345  41.895  1.00  0.00    -0.036 C 
HETATM   24  C30 UNL     1      47.302  30.300  42.345  1.00  0.00     0.016 C 
ENDROOT
BRANCH   1  25
HETATM   25  C7  UNL     1      49.095  31.171  44.287  1.00  0.00    -0.014 C 
HETATM   26  C8  UNL     1      50.514  30.735  44.274  1.00  0.00     0.010 C 
BRANCH  25  27
HETATM   27  C6  UNL     1      48.789  31.944  45.545  1.00  0.00     0.005 C 
BRANCH  27  28
HETATM   28  C5  UNL     1      48.562  31.124  46.763  1.00  0.00     0.001 C 
BRANCH  28  29
HETATM   29  C4  UNL     1      49.853  31.219  47.600  1.00  0.00     0.006 C 
BRANCH  29  30
HETATM   30  C2  UNL     1      50.451  29.849  47.794  1.00  0.00     0.005 C 
HETATM   31  C1  UNL     1      49.472  28.734  47.568  1.00  0.00     0.012 C 
BRANCH  30  32
HETATM   32  C3  UNL     1      51.111  29.687  49.124  1.00  0.00     0.168 C 
BRANCH  32  33
HETATM   33  O1  UNL     1      52.439  29.268  49.015  1.00  0.00    -0.400 OA
ATOM     34  H1  UNL     1      53.029  29.980  48.795  1.00  0.00     0.209 HD
ENDBRANCH  32  33
ENDBRANCH  30  32
ENDBRANCH  29  30
ENDBRANCH  28  29
ENDBRANCH  27  28
ENDBRANCH  25  27
ENDBRANCH   1  25
BRANCH   7  35
HETATM   35  O2  UNL     1      49.714  34.295  39.525  1.00  0.00    -0.395 OA
ATOM     36  H2  UNL     1      50.418  34.850  39.209  1.00  0.00     0.210 HD
ENDBRANCH   7  35
TORSDOF 8
ENDMDL
