MODEL 1
REMARK VINA RESULT: -8.408777120      0.000      0.000
REMARK  9 active torsions:
REMARK  status: ('A' for Active; 'I' for Inactive)
REMARK    1  A    between atoms: C2_2  and  O1_3 
REMARK    2  A    between atoms: O1_3  and  C3_4 
REMARK    3  A    between atoms: C3_4  and  C4_6 
REMARK    4  A    between atoms: C4_6  and  C5_7 
REMARK    5  A    between atoms: C5_7  and  C6_8 
REMARK    6  A    between atoms: C6_8  and  C8_10 
REMARK    7  A    between atoms: C17_19  and  O3_20 
REMARK    8  A    between atoms: C18_22  and  C19_23 
REMARK    9  A    between atoms: C19_23  and  N1_24 
ROOT
HETATM    1  C8  UNL     1      49.004  29.605  47.641  1.00  0.00    -0.002 C 
HETATM    2  C9  UNL     1      47.973  28.755  46.792  1.00  0.00     0.006 C 
HETATM    3  C10 UNL     1      47.033  29.870  46.469  1.00  0.00     0.006 C 
HETATM    4  C11 UNL     1      47.953  31.061  46.234  1.00  0.00    -0.002 C 
HETATM    5  C12 UNL     1      47.769  31.667  44.916  1.00  0.00    -0.005 C 
HETATM    6  C13 UNL     1      47.779  33.179  44.966  1.00  0.00     0.006 C 
HETATM    7  C14 UNL     1      47.046  33.571  43.691  1.00  0.00     0.006 C 
HETATM    8  C15 UNL     1      47.915  33.050  42.577  1.00  0.00    -0.003 C 
HETATM    9  C16 UNL     1      47.430  33.727  41.346  1.00  0.00     0.037 C 
HETATM   10  C17 UNL     1      48.377  33.398  40.225  1.00  0.00     0.125 C 
HETATM   11  C18 UNL     1      48.258  31.902  40.032  1.00  0.00     0.048 C 
HETATM   12  C20 UNL     1      48.791  31.208  41.237  1.00  0.00    -0.032 C 
HETATM   13  C21 UNL     1      50.269  31.613  41.234  1.00  0.00     0.016 C 
HETATM   14  C22 UNL     1      48.774  29.710  41.100  1.00  0.00     0.016 C 
HETATM   15  C23 UNL     1      48.085  31.562  42.528  1.00  0.00    -0.029 C 
HETATM   16  C24 UNL     1      46.719  30.851  42.399  1.00  0.00     0.016 C 
HETATM   17  C25 UNL     1      48.607  31.097  43.784  1.00  0.00    -0.001 C 
HETATM   18  C26 UNL     1      49.984  31.222  44.274  1.00  0.00     0.006 C 
HETATM   19  C27 UNL     1      50.152  30.283  45.492  1.00  0.00     0.010 C 
HETATM   20  C28 UNL     1      49.349  30.651  46.674  1.00  0.00    -0.036 C 
HETATM   21  C29 UNL     1      50.015  31.841  47.361  1.00  0.00     0.016 C 
ENDROOT
BRANCH   1  22
HETATM   22  C6  UNL     1      49.924  28.633  48.231  1.00  0.00    -0.013 C 
HETATM   23  C7  UNL     1      49.800  27.228  47.643  1.00  0.00     0.010 C 
BRANCH  22  24
HETATM   24  C5  UNL     1      51.382  28.973  48.151  1.00  0.00     0.014 C 
BRANCH  24  25
HETATM   25  C4  UNL     1      52.195  28.096  47.227  1.00  0.00     0.111 C 
BRANCH  25  26
HETATM   26  C3  UNL     1      53.079  27.184  48.005  1.00  0.00     0.258 C 
HETATM   27  O2  UNL     1      53.659  27.595  49.042  1.00  0.00    -0.265 OA
BRANCH  26  28
HETATM   28  O1  UNL     1      53.278  25.885  47.608  1.00  0.00    -0.322 OA
BRANCH  28  29
HETATM   29  C2  UNL     1      52.651  24.792  48.288  1.00  0.00     0.174 C 
HETATM   30  C1  UNL     1      53.689  23.731  48.622  1.00  0.00     0.034 C 
ENDBRANCH  28  29
ENDBRANCH  26  28
ENDBRANCH  25  26
ENDBRANCH  24  25
ENDBRANCH  22  24
ENDBRANCH   1  22
BRANCH  11  31
HETATM   31  C19 UNL     1      46.977  31.585  39.423  1.00  0.00     0.237 C 
BRANCH  31  32
HETATM   32  N1  UNL     1      47.186  31.453  37.981  1.00  0.00    -0.079 N 
ATOM     33  H13 UNL     1      47.665  32.257  37.575  1.00  0.00     0.274 HD
ATOM     34  H12 UNL     1      47.882  30.747  37.746  1.00  0.00     0.274 HD
ATOM     35  H11 UNL     1      46.280  31.274  37.549  1.00  0.00     0.274 HD
ENDBRANCH  31  32
ENDBRANCH  11  31
BRANCH  10  36
HETATM   36  O3  UNL     1      48.212  34.144  39.090  1.00  0.00    -0.395 OA
ATOM     37  H3  UNL     1      48.709  34.952  39.063  1.00  0.00     0.210 HD
ENDBRANCH  10  36
TORSDOF 9
ENDMDL
MODEL 2
REMARK VINA RESULT: -7.902352894      3.800      6.531
REMARK  9 active torsions:
REMARK  status: ('A' for Active; 'I' for Inactive)
REMARK    1  A    between atoms: C2_2  and  O1_3 
REMARK    2  A    between atoms: O1_3  and  C3_4 
REMARK    3  A    between atoms: C3_4  and  C4_6 
REMARK    4  A    between atoms: C4_6  and  C5_7 
REMARK    5  A    between atoms: C5_7  and  C6_8 
REMARK    6  A    between atoms: C6_8  and  C8_10 
REMARK    7  A    between atoms: C17_19  and  O3_20 
REMARK    8  A    between atoms: C18_22  and  C19_23 
REMARK    9  A    between atoms: C19_23  and  N1_24 
ROOT
HETATM    1  C8  UNL     1      47.888  32.696  41.752  1.00  0.00    -0.002 C 
HETATM    2  C9  UNL     1      47.280  31.285  41.369  1.00  0.00     0.006 C 
HETATM    3  C10 UNL     1      46.587  31.713  40.117  1.00  0.00     0.006 C 
HETATM    4  C11 UNL     1      47.552  32.715  39.496  1.00  0.00    -0.002 C 
HETATM    5  C12 UNL     1      47.946  32.351  38.135  1.00  0.00    -0.005 C 
HETATM    6  C13 UNL     1      47.973  33.541  37.201  1.00  0.00     0.006 C 
HETATM    7  C14 UNL     1      47.845  32.903  35.825  1.00  0.00     0.006 C 
HETATM    8  C15 UNL     1      49.084  32.059  35.681  1.00  0.00    -0.003 C 
HETATM    9  C16 UNL     1      49.169  31.726  34.234  1.00  0.00     0.037 C 
HETATM   10  C17 UNL     1      50.487  31.045  33.986  1.00  0.00     0.125 C 
HETATM   11  C18 UNL     1      50.421  29.755  34.775  1.00  0.00     0.048 C 
HETATM   12  C20 UNL     1      50.388  30.072  36.231  1.00  0.00    -0.032 C 
HETATM   13  C21 UNL     1      51.745  30.747  36.460  1.00  0.00     0.016 C 
HETATM   14  C22 UNL     1      50.392  28.839  37.093  1.00  0.00     0.016 C 
HETATM   15  C23 UNL     1      49.220  30.932  36.659  1.00  0.00    -0.029 C 
HETATM   16  C24 UNL     1      48.013  29.973  36.573  1.00  0.00     0.016 C 
HETATM   17  C25 UNL     1      49.163  31.452  37.998  1.00  0.00    -0.001 C 
HETATM   18  C26 UNL     1      50.216  32.181  38.714  1.00  0.00     0.006 C 
HETATM   19  C27 UNL     1      49.840  32.226  40.214  1.00  0.00     0.010 C 
HETATM   20  C28 UNL     1      48.629  33.009  40.527  1.00  0.00    -0.036 C 
HETATM   21  C29 UNL     1      48.981  34.493  40.457  1.00  0.00     0.016 C 
ENDROOT
BRANCH   1  22
HETATM   22  C6  UNL     1      48.455  32.531  43.090  1.00  0.00    -0.013 C 
HETATM   23  C7  UNL     1      47.582  33.099  44.207  1.00  0.00     0.010 C 
BRANCH  22  24
HETATM   24  C5  UNL     1      48.768  31.123  43.503  1.00  0.00     0.014 C 
BRANCH  24  25
HETATM   25  C4  UNL     1      50.226  30.848  43.788  1.00  0.00     0.111 C 
BRANCH  25  26
HETATM   26  C3  UNL     1      50.451  30.649  45.247  1.00  0.00     0.258 C 
HETATM   27  O2  UNL     1      51.092  29.649  45.660  1.00  0.00    -0.265 OA
BRANCH  26  28
HETATM   28  O1  UNL     1      49.967  31.548  46.165  1.00  0.00    -0.322 OA
BRANCH  28  29
HETATM   29  C2  UNL     1      49.271  31.114  47.338  1.00  0.00     0.174 C 
HETATM   30  C1  UNL     1      47.872  30.647  46.963  1.00  0.00     0.034 C 
ENDBRANCH  28  29
ENDBRANCH  26  28
ENDBRANCH  25  26
ENDBRANCH  24  25
ENDBRANCH  22  24
ENDBRANCH   1  22
BRANCH  11  31
HETATM   31  C19 UNL     1      49.500  28.833  34.133  1.00  0.00     0.237 C 
BRANCH  31  32
HETATM   32  N1  UNL     1      50.278  27.960  33.254  1.00  0.00    -0.079 N 
ATOM     33  H13 UNL     1      51.269  27.936  33.497  1.00  0.00     0.274 HD
ATOM     34  H12 UNL     1      50.079  26.971  33.402  1.00  0.00     0.274 HD
ATOM     35  H11 UNL     1      50.115  28.257  32.292  1.00  0.00     0.274 HD
ENDBRANCH  31  32
ENDBRANCH  11  31
BRANCH  10  36
HETATM   36  O3  UNL     1      50.826  30.901  32.669  1.00  0.00    -0.395 OA
ATOM     37  H3  UNL     1      50.966  30.006  32.385  1.00  0.00     0.210 HD
ENDBRANCH  10  36
TORSDOF 9
ENDMDL
MODEL 3
REMARK VINA RESULT: -7.881743898      2.604      4.893
REMARK  9 active torsions:
REMARK  status: ('A' for Active; 'I' for Inactive)
REMARK    1  A    between atoms: C2_2  and  O1_3 
REMARK    2  A    between atoms: O1_3  and  C3_4 
REMARK    3  A    between atoms: C3_4  and  C4_6 
REMARK    4  A    between atoms: C4_6  and  C5_7 
REMARK    5  A    between atoms: C5_7  and  C6_8 
REMARK    6  A    between atoms: C6_8  and  C8_10 
REMARK    7  A    between atoms: C17_19  and  O3_20 
REMARK    8  A    between atoms: C18_22  and  C19_23 
REMARK    9  A    between atoms: C19_23  and  N1_24 
ROOT
HETATM    1  C8  UNL     1      48.854  31.203  43.508  1.00  0.00    -0.002 C 
HETATM    2  C9  UNL     1      50.247  31.053  42.769  1.00  0.00     0.006 C 
HETATM    3  C10 UNL     1      49.739  30.347  41.555  1.00  0.00     0.006 C 
HETATM    4  C11 UNL     1      48.401  31.020  41.279  1.00  0.00    -0.002 C 
HETATM    5  C12 UNL     1      48.321  31.587  39.934  1.00  0.00    -0.005 C 
HETATM    6  C13 UNL     1      46.983  31.330  39.275  1.00  0.00     0.006 C 
HETATM    7  C14 UNL     1      47.294  31.478  37.792  1.00  0.00     0.006 C 
HETATM    8  C15 UNL     1      47.720  32.914  37.636  1.00  0.00    -0.003 C 
HETATM    9  C16 UNL     1      47.672  33.184  36.174  1.00  0.00     0.037 C 
HETATM   10  C17 UNL     1      47.900  34.655  35.960  1.00  0.00     0.125 C 
HETATM   11  C18 UNL     1      49.308  34.913  36.453  1.00  0.00     0.048 C 
HETATM   12  C20 UNL     1      49.359  34.698  37.926  1.00  0.00    -0.032 C 
HETATM   13  C21 UNL     1      48.419  35.786  38.458  1.00  0.00     0.016 C 
HETATM   14  C22 UNL     1      50.711  35.001  38.510  1.00  0.00     0.016 C 
HETATM   15  C23 UNL     1      48.965  33.307  38.371  1.00  0.00    -0.029 C 
HETATM   16  C24 UNL     1      50.164  32.435  37.938  1.00  0.00     0.016 C 
HETATM   17  C25 UNL     1      48.805  33.018  39.770  1.00  0.00    -0.001 C 
HETATM   18  C26 UNL     1      48.010  33.769  40.747  1.00  0.00     0.006 C 
HETATM   19  C27 UNL     1      48.417  33.301  42.165  1.00  0.00     0.010 C 
HETATM   20  C28 UNL     1      48.080  31.899  42.476  1.00  0.00    -0.036 C 
HETATM   21  C29 UNL     1      46.581  31.812  42.758  1.00  0.00     0.016 C 
ENDROOT
BRANCH   1  22
HETATM   22  C6  UNL     1      49.169  31.709  44.844  1.00  0.00    -0.013 C 
HETATM   23  C7  UNL     1      48.022  31.569  45.844  1.00  0.00     0.010 C 
BRANCH  22  24
HETATM   24  C5  UNL     1      50.362  31.097  45.514  1.00  0.00     0.014 C 
BRANCH  24  25
HETATM   25  C4  UNL     1      50.059  29.918  46.411  1.00  0.00     0.111 C 
BRANCH  25  26
HETATM   26  C3  UNL     1      50.978  29.896  47.583  1.00  0.00     0.258 C 
HETATM   27  O2  UNL     1      50.669  30.499  48.643  1.00  0.00    -0.265 OA
BRANCH  26  28
HETATM   28  O1  UNL     1      52.173  29.222  47.532  1.00  0.00    -0.322 OA
BRANCH  28  29
HETATM   29  C2  UNL     1      52.536  28.269  48.537  1.00  0.00     0.174 C 
HETATM   30  C1  UNL     1      52.919  26.951  47.880  1.00  0.00     0.034 C 
ENDBRANCH  28  29
ENDBRANCH  26  28
ENDBRANCH  25  26
ENDBRANCH  24  25
ENDBRANCH  22  24
ENDBRANCH   1  22
BRANCH  11  31
HETATM   31  C19 UNL     1      50.266  34.339  35.523  1.00  0.00     0.237 C 
BRANCH  31  32
HETATM   32  N1  UNL     1      50.679  35.392  34.597  1.00  0.00    -0.079 N 
ATOM     33  H13 UNL     1      51.392  36.007  34.989  1.00  0.00     0.274 HD
ATOM     34  H12 UNL     1      51.224  35.036  33.811  1.00  0.00     0.274 HD
ATOM     35  H11 UNL     1      49.843  35.896  34.302  1.00  0.00     0.274 HD
ENDBRANCH  31  32
ENDBRANCH  11  31
BRANCH  10  36
HETATM   36  O3  UNL     1      47.638  35.104  34.695  1.00  0.00    -0.395 OA
ATOM     37  H3  UNL     1      47.358  36.010  34.639  1.00  0.00     0.210 HD
ENDBRANCH  10  36
TORSDOF 9
ENDMDL
MODEL 4
REMARK VINA RESULT: -7.838686989      2.701      5.146
REMARK  9 active torsions:
REMARK  status: ('A' for Active; 'I' for Inactive)
REMARK    1  A    between atoms: C2_2  and  O1_3 
REMARK    2  A    between atoms: O1_3  and  C3_4 
REMARK    3  A    between atoms: C3_4  and  C4_6 
REMARK    4  A    between atoms: C4_6  and  C5_7 
REMARK    5  A    between atoms: C5_7  and  C6_8 
REMARK    6  A    between atoms: C6_8  and  C8_10 
REMARK    7  A    between atoms: C17_19  and  O3_20 
REMARK    8  A    between atoms: C18_22  and  C19_23 
REMARK    9  A    between atoms: C19_23  and  N1_24 
ROOT
HETATM    1  C8  UNL     1      48.807  31.193  43.374  1.00  0.00    -0.002 C 
HETATM    2  C9  UNL     1      50.203  30.988  42.654  1.00  0.00     0.006 C 
HETATM    3  C10 UNL     1      49.692  30.242  41.464  1.00  0.00     0.006 C 
HETATM    4  C11 UNL     1      48.368  30.927  41.151  1.00  0.00    -0.002 C 
HETATM    5  C12 UNL     1      48.308  31.440  39.783  1.00  0.00    -0.005 C 
HETATM    6  C13 UNL     1      46.971  31.180  39.123  1.00  0.00     0.006 C 
HETATM    7  C14 UNL     1      47.296  31.262  37.639  1.00  0.00     0.006 C 
HETATM    8  C15 UNL     1      47.748  32.683  37.428  1.00  0.00    -0.003 C 
HETATM    9  C16 UNL     1      47.717  32.894  35.956  1.00  0.00     0.037 C 
HETATM   10  C17 UNL     1      47.972  34.351  35.685  1.00  0.00     0.125 C 
HETATM   11  C18 UNL     1      49.381  34.604  36.178  1.00  0.00     0.048 C 
HETATM   12  C20 UNL     1      49.417  34.448  37.659  1.00  0.00    -0.032 C 
HETATM   13  C21 UNL     1      48.492  35.573  38.139  1.00  0.00     0.016 C 
HETATM   14  C22 UNL     1      50.770  34.752  38.242  1.00  0.00     0.016 C 
HETATM   15  C23 UNL     1      48.994  33.084  38.157  1.00  0.00    -0.029 C 
HETATM   16  C24 UNL     1      50.181  32.174  37.770  1.00  0.00     0.016 C 
HETATM   17  C25 UNL     1      48.819  32.855  39.565  1.00  0.00    -0.001 C 
HETATM   18  C26 UNL     1      48.029  33.658  40.504  1.00  0.00     0.006 C 
HETATM   19  C27 UNL     1      48.418  33.242  41.944  1.00  0.00     0.010 C 
HETATM   20  C28 UNL     1      48.053  31.859  42.309  1.00  0.00    -0.036 C 
HETATM   21  C29 UNL     1      46.551  31.810  42.581  1.00  0.00     0.016 C 
ENDROOT
BRANCH   1  22
HETATM   22  C6  UNL     1      49.120  31.746  44.691  1.00  0.00    -0.013 C 
HETATM   23  C7  UNL     1      47.894  31.977  45.572  1.00  0.00     0.010 C 
BRANCH  22  24
HETATM   24  C5  UNL     1      50.073  30.948  45.530  1.00  0.00     0.014 C 
BRANCH  24  25
HETATM   25  C4  UNL     1      49.906  31.116  47.023  1.00  0.00     0.111 C 
BRANCH  25  26
HETATM   26  C3  UNL     1      50.377  29.903  47.747  1.00  0.00     0.258 C 
HETATM   27  O2  UNL     1      50.762  29.986  48.942  1.00  0.00    -0.265 OA
BRANCH  26  28
HETATM   28  O1  UNL     1      50.401  28.676  47.130  1.00  0.00    -0.322 OA
BRANCH  28  29
HETATM   29  C2  UNL     1      49.707  27.551  47.679  1.00  0.00     0.174 C 
HETATM   30  C1  UNL     1      48.207  27.804  47.641  1.00  0.00     0.034 C 
ENDBRANCH  28  29
ENDBRANCH  26  28
ENDBRANCH  25  26
ENDBRANCH  24  25
ENDBRANCH  22  24
ENDBRANCH   1  22
BRANCH  11  31
HETATM   31  C19 UNL     1      50.336  33.976  35.281  1.00  0.00     0.237 C 
BRANCH  31  32
HETATM   32  N1  UNL     1      50.754  34.976  34.299  1.00  0.00    -0.079 N 
ATOM     33  H13 UNL     1      51.155  34.562  33.458  1.00  0.00     0.274 HD
ATOM     34  H12 UNL     1      49.967  35.449  33.857  1.00  0.00     0.274 HD
ATOM     35  H11 UNL     1      51.393  35.622  34.763  1.00  0.00     0.274 HD
ENDBRANCH  31  32
ENDBRANCH  11  31
BRANCH  10  36
HETATM   36  O3  UNL     1      47.728  34.752  34.400  1.00  0.00    -0.395 OA
ATOM     37  H3  UNL     1      48.431  34.582  33.785  1.00  0.00     0.210 HD
ENDBRANCH  10  36
TORSDOF 9
ENDMDL
MODEL 5
REMARK VINA RESULT: -7.810050793      3.853      6.623
REMARK  9 active torsions:
REMARK  status: ('A' for Active; 'I' for Inactive)
REMARK    1  A    between atoms: C2_2  and  O1_3 
REMARK    2  A    between atoms: O1_3  and  C3_4 
REMARK    3  A    between atoms: C3_4  and  C4_6 
REMARK    4  A    between atoms: C4_6  and  C5_7 
REMARK    5  A    between atoms: C5_7  and  C6_8 
REMARK    6  A    between atoms: C6_8  and  C8_10 
REMARK    7  A    between atoms: C17_19  and  O3_20 
REMARK    8  A    between atoms: C18_22  and  C19_23 
REMARK    9  A    between atoms: C19_23  and  N1_24 
ROOT
HETATM    1  C8  UNL     1      48.224  32.813  41.493  1.00  0.00    -0.002 C 
HETATM    2  C9  UNL     1      46.824  32.556  40.799  1.00  0.00     0.006 C 
HETATM    3  C10 UNL     1      47.279  32.738  39.388  1.00  0.00     0.006 C 
HETATM    4  C11 UNL     1      48.663  32.104  39.370  1.00  0.00    -0.002 C 
HETATM    5  C12 UNL     1      48.786  31.045  38.369  1.00  0.00    -0.005 C 
HETATM    6  C13 UNL     1      50.101  31.101  37.623  1.00  0.00     0.006 C 
HETATM    7  C14 UNL     1      49.802  30.342  36.338  1.00  0.00     0.006 C 
HETATM    8  C15 UNL     1      49.483  28.941  36.790  1.00  0.00    -0.003 C 
HETATM    9  C16 UNL     1      49.551  28.104  35.563  1.00  0.00     0.037 C 
HETATM   10  C17 UNL     1      49.433  26.662  35.972  1.00  0.00     0.125 C 
HETATM   11  C18 UNL     1      48.048  26.532  36.569  1.00  0.00     0.048 C 
HETATM   12  C20 UNL     1      47.980  27.324  37.829  1.00  0.00    -0.032 C 
HETATM   13  C21 UNL     1      48.998  26.613  38.729  1.00  0.00     0.016 C 
HETATM   14  C22 UNL     1      46.654  27.194  38.526  1.00  0.00     0.016 C 
HETATM   15  C23 UNL     1      48.271  28.799  37.659  1.00  0.00    -0.029 C 
HETATM   16  C24 UNL     1      47.011  29.335  36.946  1.00  0.00     0.016 C 
HETATM   17  C25 UNL     1      48.408  29.642  38.815  1.00  0.00    -0.001 C 
HETATM   18  C26 UNL     1      49.257  29.410  39.988  1.00  0.00     0.006 C 
HETATM   19  C27 UNL     1      48.816  30.385  41.106  1.00  0.00     0.010 C 
HETATM   20  C28 UNL     1      49.048  31.812  40.811  1.00  0.00    -0.036 C 
HETATM   21  C29 UNL     1      50.536  32.107  40.988  1.00  0.00     0.016 C 
ENDROOT
BRANCH   1  22
HETATM   22  C6  UNL     1      47.947  32.876  42.928  1.00  0.00    -0.013 C 
HETATM   23  C7  UNL     1      46.481  32.634  43.286  1.00  0.00     0.010 C 
BRANCH  22  24
HETATM   24  C5  UNL     1      48.731  31.932  43.792  1.00  0.00     0.014 C 
BRANCH  24  25
HETATM   25  C4  UNL     1      48.375  31.962  45.260  1.00  0.00     0.111 C 
BRANCH  25  26
HETATM   26  C3  UNL     1      49.456  31.346  46.078  1.00  0.00     0.258 C 
HETATM   27  O2  UNL     1      50.601  31.169  45.588  1.00  0.00    -0.265 OA
BRANCH  26  28
HETATM   28  O1  UNL     1      49.228  30.962  47.377  1.00  0.00    -0.322 OA
BRANCH  28  29
HETATM   29  C2  UNL     1      49.723  29.719  47.885  1.00  0.00     0.174 C 
HETATM   30  C1  UNL     1      50.877  29.978  48.842  1.00  0.00     0.034 C 
ENDBRANCH  28  29
ENDBRANCH  26  28
ENDBRANCH  25  26
ENDBRANCH  24  25
ENDBRANCH  22  24
ENDBRANCH   1  22
BRANCH  11  31
HETATM   31  C19 UNL     1      47.050  26.612  35.516  1.00  0.00     0.237 C 
BRANCH  31  32
HETATM   32  N1  UNL     1      46.658  25.247  35.164  1.00  0.00    -0.079 N 
ATOM     33  H13 UNL     1      45.736  24.995  35.523  1.00  0.00     0.274 HD
ATOM     34  H12 UNL     1      46.451  25.139  34.172  1.00  0.00     0.274 HD
ATOM     35  H11 UNL     1      47.393  24.617  35.486  1.00  0.00     0.274 HD
ENDBRANCH  31  32
ENDBRANCH  11  31
BRANCH  10  36
HETATM   36  O3  UNL     1      49.727  25.755  34.991  1.00  0.00    -0.395 OA
ATOM     37  H3  UNL     1      49.647  26.083  34.103  1.00  0.00     0.210 HD
ENDBRANCH  10  36
TORSDOF 9
ENDMDL
