MODEL 1
REMARK VINA RESULT: -9.169814555      0.000      0.000
REMARK  8 active torsions:
REMARK  status: ('A' for Active; 'I' for Inactive)
REMARK    1  A    between atoms: C2_2  and  C4_4 
REMARK    2  A    between atoms: C8_8  and  O1_9 
REMARK    3  A    between atoms: C14_17  and  C15_18 
REMARK    4  A    between atoms: C15_18  and  C17_20 
REMARK    5  A    between atoms: C17_20  and  O3_21 
REMARK    6  A    between atoms: C17_20  and  C18_23 
REMARK    7  A    between atoms: C19_24  and  C20_25 
REMARK    8  A    between atoms: C20_25  and  C22_27 
ROOT
HETATM    1  C4  UNL     1      49.235  34.946  36.460  1.00  0.00    -0.066 C 
HETATM    2  C5  UNL     1      47.878  35.060  37.039  1.00  0.00     0.044 C 
HETATM    3  C6  UNL     1      47.119  33.779  36.676  1.00  0.00     0.022 C 
HETATM    4  C7  UNL     1      47.125  33.658  35.186  1.00  0.00     0.042 C 
HETATM    5  C8  UNL     1      48.504  33.582  34.598  1.00  0.00     0.128 C 
HETATM    6  C9  UNL     1      49.526  33.637  35.748  1.00  0.00     0.064 C 
HETATM    7  C10 UNL     1      49.236  32.414  36.582  1.00  0.00     0.050 C 
HETATM    8  C11 UNL     1      49.141  31.256  35.580  1.00  0.00     0.029 C 
HETATM    9  C12 UNL     1      50.290  32.028  37.524  1.00  0.00     0.140 C 
HETATM   10  O2  UNL     1      51.444  32.201  37.268  1.00  0.00    -0.297 OA
HETATM   11  C13 UNL     1      49.912  31.411  38.815  1.00  0.00     0.088 C 
HETATM   12  C14 UNL     1      48.480  30.918  38.807  1.00  0.00     0.022 C 
HETATM   13  C29 UNL     1      47.598  31.974  38.312  1.00  0.00    -0.017 C 
HETATM   14  C30 UNL     1      47.943  32.682  37.258  1.00  0.00    -0.062 C 
ENDROOT
BRANCH  12  15
HETATM   15  C15 UNL     1      48.087  30.402  40.170  1.00  0.00     0.022 C 
HETATM   16  C16 UNL     1      48.143  28.890  40.126  1.00  0.00     0.014 C 
BRANCH  15  17
HETATM   17  C17 UNL     1      46.771  30.893  40.668  1.00  0.00     0.145 C 
BRANCH  17  18
HETATM   18  O3  UNL     1      45.876  29.831  40.770  1.00  0.00    -0.391 OA
ATOM     19  H3  UNL     1      45.952  29.269  40.008  1.00  0.00     0.210 HD
ENDBRANCH  17  18
BRANCH  17  20
HETATM   20  C18 UNL     1      46.985  31.418  42.055  1.00  0.00     0.001 C 
HETATM   21  C19 UNL     1      48.193  31.619  42.537  1.00  0.00    -0.023 C 
BRANCH  21  22
HETATM   22  C20 UNL     1      48.547  32.130  43.877  1.00  0.00     0.015 C 
HETATM   23  C21 UNL     1      47.627  33.271  44.213  1.00  0.00     0.015 C 
BRANCH  22  24
HETATM   24  C22 UNL     1      48.721  31.125  44.938  1.00  0.00     0.062 C 
HETATM   25  C23 UNL     1      48.296  31.469  46.314  1.00  0.00     0.013 C 
HETATM   26  C24 UNL     1      49.478  31.514  47.295  1.00  0.00     0.005 C 
HETATM   27  C25 UNL     1      49.984  30.090  47.389  1.00  0.00    -0.012 C 
HETATM   28  C26 UNL     1      50.923  29.923  48.567  1.00  0.00     0.010 C 
HETATM   29  C27 UNL     1      50.666  29.774  46.075  1.00  0.00     0.083 C 
HETATM   30  C28 UNL     1      50.122  30.603  44.998  1.00  0.00     0.132 C 
HETATM   31  O4  UNL     1      50.856  30.903  44.061  1.00  0.00    -0.298 OA
ENDBRANCH  22  24
ENDBRANCH  21  22
ENDBRANCH  17  20
ENDBRANCH  15  17
ENDBRANCH  12  15
BRANCH   1  32
HETATM   32  C2  UNL     1      50.368  35.415  37.268  1.00  0.00    -0.069 C 
HETATM   33  C1  UNL     1      50.300  35.630  38.541  1.00  0.00     0.018 C 
HETATM   34  C3  UNL     1      51.663  35.674  36.563  1.00  0.00     0.047 C 
ENDBRANCH   1  32
BRANCH   5  35
HETATM   35  O1  UNL     1      48.715  34.775  33.865  1.00  0.00    -0.395 OA
ATOM     36  H1  UNL     1      49.418  35.249  34.294  1.00  0.00     0.210 HD
ENDBRANCH   5  35
TORSDOF 8
ENDMDL
MODEL 2
REMARK VINA RESULT: -9.044372470      2.233      4.800
REMARK  8 active torsions:
REMARK  status: ('A' for Active; 'I' for Inactive)
REMARK    1  A    between atoms: C2_2  and  C4_4 
REMARK    2  A    between atoms: C8_8  and  O1_9 
REMARK    3  A    between atoms: C14_17  and  C15_18 
REMARK    4  A    between atoms: C15_18  and  C17_20 
REMARK    5  A    between atoms: C17_20  and  O3_21 
REMARK    6  A    between atoms: C17_20  and  C18_23 
REMARK    7  A    between atoms: C19_24  and  C20_25 
REMARK    8  A    between atoms: C20_25  and  C22_27 
ROOT
HETATM    1  C4  UNL     1      48.369  30.178  37.934  1.00  0.00    -0.066 C 
HETATM    2  C5  UNL     1      49.771  30.620  38.105  1.00  0.00     0.044 C 
HETATM    3  C6  UNL     1      49.735  32.071  38.596  1.00  0.00     0.022 C 
HETATM    4  C7  UNL     1      48.976  32.870  37.586  1.00  0.00     0.042 C 
HETATM    5  C8  UNL     1      47.566  32.396  37.386  1.00  0.00     0.128 C 
HETATM    6  C9  UNL     1      47.318  31.202  38.324  1.00  0.00     0.064 C 
HETATM    7  C10 UNL     1      47.498  31.758  39.715  1.00  0.00     0.050 C 
HETATM    8  C11 UNL     1      46.672  33.051  39.743  1.00  0.00     0.029 C 
HETATM    9  C12 UNL     1      46.963  30.931  40.800  1.00  0.00     0.140 C 
HETATM   10  O2  UNL     1      45.982  30.266  40.647  1.00  0.00    -0.297 OA
HETATM   11  C13 UNL     1      47.654  30.925  42.109  1.00  0.00     0.088 C 
HETATM   12  C14 UNL     1      48.613  32.088  42.246  1.00  0.00     0.022 C 
HETATM   13  C29 UNL     1      49.470  32.163  41.063  1.00  0.00    -0.017 C 
HETATM   14  C30 UNL     1      48.952  32.015  39.862  1.00  0.00    -0.062 C 
ENDROOT
BRANCH  12  15
HETATM   15  C15 UNL     1      49.388  31.990  43.538  1.00  0.00     0.022 C 
HETATM   16  C16 UNL     1      50.174  30.697  43.508  1.00  0.00     0.014 C 
BRANCH  15  17
HETATM   17  C17 UNL     1      48.561  32.107  44.773  1.00  0.00     0.145 C 
BRANCH  17  18
HETATM   18  O3  UNL     1      47.218  32.252  44.432  1.00  0.00    -0.391 OA
ATOM     19  H3  UNL     1      46.801  32.875  45.017  1.00  0.00     0.210 HD
ENDBRANCH  17  18
BRANCH  17  20
HETATM   20  C18 UNL     1      48.684  30.813  45.518  1.00  0.00     0.001 C 
HETATM   21  C19 UNL     1      49.174  30.764  46.738  1.00  0.00    -0.023 C 
BRANCH  21  22
HETATM   22  C20 UNL     1      49.350  29.565  47.583  1.00  0.00     0.015 C 
HETATM   23  C21 UNL     1      47.995  28.984  47.878  1.00  0.00     0.015 C 
BRANCH  22  24
HETATM   24  C22 UNL     1      50.371  28.599  47.148  1.00  0.00     0.062 C 
HETATM   25  C23 UNL     1      50.030  27.159  47.155  1.00  0.00     0.013 C 
HETATM   26  C24 UNL     1      50.880  26.362  48.157  1.00  0.00     0.005 C 
HETATM   27  C25 UNL     1      52.297  26.424  47.627  1.00  0.00    -0.012 C 
HETATM   28  C26 UNL     1      53.183  25.408  48.322  1.00  0.00     0.010 C 
HETATM   29  C27 UNL     1      52.789  27.840  47.837  1.00  0.00     0.083 C 
HETATM   30  C28 UNL     1      51.666  28.777  47.877  1.00  0.00     0.132 C 
HETATM   31  O4  UNL     1      51.774  29.794  48.556  1.00  0.00    -0.298 OA
ENDBRANCH  22  24
ENDBRANCH  21  22
ENDBRANCH  17  20
ENDBRANCH  15  17
ENDBRANCH  12  15
BRANCH   1  32
HETATM   32  C2  UNL     1      48.021  28.817  38.359  1.00  0.00    -0.069 C 
HETATM   33  C1  UNL     1      46.945  28.204  37.989  1.00  0.00     0.018 C 
HETATM   34  C3  UNL     1      48.963  28.119  39.290  1.00  0.00     0.047 C 
ENDBRANCH   1  32
BRANCH   5  35
HETATM   35  O1  UNL     1      47.485  31.857  36.080  1.00  0.00    -0.395 OA
ATOM     36  H1  UNL     1      46.699  32.206  35.678  1.00  0.00     0.210 HD
ENDBRANCH   5  35
TORSDOF 8
ENDMDL
MODEL 3
REMARK VINA RESULT: -8.912584050      1.936      3.330
REMARK  8 active torsions:
REMARK  status: ('A' for Active; 'I' for Inactive)
REMARK    1  A    between atoms: C2_2  and  C4_4 
REMARK    2  A    between atoms: C8_8  and  O1_9 
REMARK    3  A    between atoms: C14_17  and  C15_18 
REMARK    4  A    between atoms: C15_18  and  C17_20 
REMARK    5  A    between atoms: C17_20  and  O3_21 
REMARK    6  A    between atoms: C17_20  and  C18_23 
REMARK    7  A    between atoms: C19_24  and  C20_25 
REMARK    8  A    between atoms: C20_25  and  C22_27 
ROOT
HETATM    1  C4  UNL     1      49.071  34.167  37.862  1.00  0.00    -0.066 C 
HETATM    2  C5  UNL     1      47.606  34.250  38.052  1.00  0.00     0.044 C 
HETATM    3  C6  UNL     1      47.097  32.825  38.299  1.00  0.00     0.022 C 
HETATM    4  C7  UNL     1      47.502  31.992  37.126  1.00  0.00     0.042 C 
HETATM    5  C8  UNL     1      48.987  31.941  36.912  1.00  0.00     0.128 C 
HETATM    6  C9  UNL     1      49.664  32.777  38.012  1.00  0.00     0.064 C 
HETATM    7  C10 UNL     1      49.290  32.093  39.303  1.00  0.00     0.050 C 
HETATM    8  C11 UNL     1      49.573  30.604  39.068  1.00  0.00     0.029 C 
HETATM    9  C12 UNL     1      50.096  32.462  40.470  1.00  0.00     0.140 C 
HETATM   10  O2  UNL     1      51.254  32.736  40.363  1.00  0.00    -0.297 OA
HETATM   11  C13 UNL     1      49.459  32.494  41.806  1.00  0.00     0.088 C 
HETATM   12  C14 UNL     1      48.134  31.760  41.817  1.00  0.00     0.022 C 
HETATM   13  C29 UNL     1      47.311  32.213  40.696  1.00  0.00    -0.017 C 
HETATM   14  C30 UNL     1      47.846  32.368  39.503  1.00  0.00    -0.062 C 
ENDROOT
BRANCH  12  15
HETATM   15  C15 UNL     1      47.454  31.910  43.155  1.00  0.00     0.022 C 
HETATM   16  C16 UNL     1      46.166  32.674  42.936  1.00  0.00     0.014 C 
BRANCH  15  17
HETATM   17  C17 UNL     1      48.294  32.534  44.217  1.00  0.00     0.145 C 
BRANCH  17  18
HETATM   18  O3  UNL     1      47.520  33.397  44.988  1.00  0.00    -0.391 OA
ATOM     19  H3  UNL     1      46.702  32.976  45.224  1.00  0.00     0.210 HD
ENDBRANCH  17  18
BRANCH  17  20
HETATM   20  C18 UNL     1      48.756  31.435  45.125  1.00  0.00     0.001 C 
HETATM   21  C19 UNL     1      48.102  31.128  46.225  1.00  0.00    -0.023 C 
BRANCH  21  22
HETATM   22  C20 UNL     1      48.443  30.075  47.203  1.00  0.00     0.015 C 
HETATM   23  C21 UNL     1      47.200  29.285  47.510  1.00  0.00     0.015 C 
BRANCH  22  24
HETATM   24  C22 UNL     1      49.644  29.276  46.916  1.00  0.00     0.062 C 
HETATM   25  C23 UNL     1      49.608  27.822  47.187  1.00  0.00     0.013 C 
HETATM   26  C24 UNL     1      50.596  27.409  48.289  1.00  0.00     0.005 C 
HETATM   27  C25 UNL     1      51.974  27.663  47.715  1.00  0.00    -0.012 C 
HETATM   28  C26 UNL     1      53.045  26.991  48.552  1.00  0.00     0.010 C 
HETATM   29  C27 UNL     1      52.162  29.163  47.657  1.00  0.00     0.083 C 
HETATM   30  C28 UNL     1      50.869  29.843  47.564  1.00  0.00     0.132 C 
HETATM   31  O4  UNL     1      50.759  30.965  48.048  1.00  0.00    -0.298 OA
ENDBRANCH  22  24
ENDBRANCH  21  22
ENDBRANCH  17  20
ENDBRANCH  15  17
ENDBRANCH  12  15
BRANCH   1  32
HETATM   32  C2  UNL     1      49.903  35.208  38.478  1.00  0.00    -0.069 C 
HETATM   33  C1  UNL     1      51.049  35.581  38.009  1.00  0.00     0.018 C 
HETATM   34  C3  UNL     1      49.395  35.852  39.731  1.00  0.00     0.047 C 
ENDBRANCH   1  32
BRANCH   5  35
HETATM   35  O1  UNL     1      49.262  32.633  35.708  1.00  0.00    -0.395 OA
ATOM     36  H1  UNL     1      50.181  32.496  35.507  1.00  0.00     0.210 HD
ENDBRANCH   5  35
TORSDOF 8
ENDMDL
MODEL 4
REMARK VINA RESULT: -8.714004418      1.224      1.784
REMARK  8 active torsions:
REMARK  status: ('A' for Active; 'I' for Inactive)
REMARK    1  A    between atoms: C2_2  and  C4_4 
REMARK    2  A    between atoms: C8_8  and  O1_9 
REMARK    3  A    between atoms: C14_17  and  C15_18 
REMARK    4  A    between atoms: C15_18  and  C17_20 
REMARK    5  A    between atoms: C17_20  and  O3_21 
REMARK    6  A    between atoms: C17_20  and  C18_23 
REMARK    7  A    between atoms: C19_24  and  C20_25 
REMARK    8  A    between atoms: C20_25  and  C22_27 
ROOT
HETATM    1  C4  UNL     1      48.596  33.151  35.269  1.00  0.00    -0.066 C 
HETATM    2  C5  UNL     1      47.518  32.139  35.214  1.00  0.00     0.044 C 
HETATM    3  C6  UNL     1      48.157  30.777  35.503  1.00  0.00     0.022 C 
HETATM    4  C7  UNL     1      49.233  30.559  34.490  1.00  0.00     0.042 C 
HETATM    5  C8  UNL     1      50.306  31.608  34.522  1.00  0.00     0.128 C 
HETATM    6  C9  UNL     1      49.968  32.614  35.637  1.00  0.00     0.064 C 
HETATM    7  C10 UNL     1      49.982  31.801  36.908  1.00  0.00     0.050 C 
HETATM    8  C11 UNL     1      51.285  30.992  36.855  1.00  0.00     0.029 C 
HETATM    9  C12 UNL     1      50.054  32.574  38.150  1.00  0.00     0.140 C 
HETATM   10  O2  UNL     1      50.655  33.606  38.206  1.00  0.00    -0.297 OA
HETATM   11  C13 UNL     1      49.369  32.063  39.359  1.00  0.00     0.088 C 
HETATM   12  C14 UNL     1      49.003  30.600  39.223  1.00  0.00     0.022 C 
HETATM   13  C29 UNL     1      48.320  30.378  37.949  1.00  0.00    -0.017 C 
HETATM   14  C30 UNL     1      48.778  30.936  36.848  1.00  0.00    -0.062 C 
ENDROOT
BRANCH  12  15
HETATM   15  C15 UNL     1      48.204  30.138  40.417  1.00  0.00     0.022 C 
HETATM   16  C16 UNL     1      47.887  28.671  40.221  1.00  0.00     0.014 C 
BRANCH  15  17
HETATM   17  C17 UNL     1      46.976  30.937  40.694  1.00  0.00     0.145 C 
BRANCH  17  18
HETATM   18  O3  UNL     1      45.861  30.103  40.713  1.00  0.00    -0.391 OA
ATOM     19  H3  UNL     1      45.450  30.093  39.856  1.00  0.00     0.210 HD
ENDBRANCH  17  18
BRANCH  17  20
HETATM   20  C18 UNL     1      47.116  31.509  42.071  1.00  0.00     0.001 C 
HETATM   21  C19 UNL     1      48.284  31.574  42.675  1.00  0.00    -0.023 C 
BRANCH  21  22
HETATM   22  C20 UNL     1      48.564  32.111  44.023  1.00  0.00     0.015 C 
HETATM   23  C21 UNL     1      47.566  33.195  44.324  1.00  0.00     0.015 C 
BRANCH  22  24
HETATM   24  C22 UNL     1      48.766  31.123  45.094  1.00  0.00     0.062 C 
HETATM   25  C23 UNL     1      48.420  31.505  46.482  1.00  0.00     0.013 C 
HETATM   26  C24 UNL     1      49.650  31.538  47.402  1.00  0.00     0.005 C 
HETATM   27  C25 UNL     1      50.125  30.103  47.500  1.00  0.00    -0.012 C 
HETATM   28  C26 UNL     1      51.117  29.934  48.633  1.00  0.00     0.010 C 
HETATM   29  C27 UNL     1      50.731  29.743  46.160  1.00  0.00     0.083 C 
HETATM   30  C28 UNL     1      50.155  30.565  45.094  1.00  0.00     0.132 C 
HETATM   31  O4  UNL     1      50.848  30.828  44.117  1.00  0.00    -0.298 OA
ENDBRANCH  22  24
ENDBRANCH  21  22
ENDBRANCH  17  20
ENDBRANCH  15  17
ENDBRANCH  12  15
BRANCH   1  32
HETATM   32  C2  UNL     1      48.300  34.436  35.914  1.00  0.00    -0.069 C 
HETATM   33  C1  UNL     1      47.271  34.637  36.672  1.00  0.00     0.018 C 
HETATM   34  C3  UNL     1      49.237  35.575  35.657  1.00  0.00     0.047 C 
ENDBRANCH   1  32
BRANCH   5  35
HETATM   35  O1  UNL     1      50.206  32.349  33.320  1.00  0.00    -0.395 OA
ATOM     36  H1  UNL     1      49.844  33.199  33.542  1.00  0.00     0.210 HD
ENDBRANCH   5  35
TORSDOF 8
ENDMDL
MODEL 5
REMARK VINA RESULT: -8.711656259      1.273      2.468
REMARK  8 active torsions:
REMARK  status: ('A' for Active; 'I' for Inactive)
REMARK    1  A    between atoms: C2_2  and  C4_4 
REMARK    2  A    between atoms: C8_8  and  O1_9 
REMARK    3  A    between atoms: C14_17  and  C15_18 
REMARK    4  A    between atoms: C15_18  and  C17_20 
REMARK    5  A    between atoms: C17_20  and  O3_21 
REMARK    6  A    between atoms: C17_20  and  C18_23 
REMARK    7  A    between atoms: C19_24  and  C20_25 
REMARK    8  A    between atoms: C20_25  and  C22_27 
ROOT
HETATM    1  C4  UNL     1      50.561  33.553  35.318  1.00  0.00    -0.066 C 
HETATM    2  C5  UNL     1      51.425  33.635  36.517  1.00  0.00     0.044 C 
HETATM    3  C6  UNL     1      50.642  34.395  37.592  1.00  0.00     0.022 C 
HETATM    4  C7  UNL     1      50.276  35.729  37.026  1.00  0.00     0.042 C 
HETATM    5  C8  UNL     1      49.431  35.643  35.788  1.00  0.00     0.128 C 
HETATM    6  C9  UNL     1      49.177  34.157  35.478  1.00  0.00     0.064 C 
HETATM    7  C10 UNL     1      48.421  33.635  36.674  1.00  0.00     0.050 C 
HETATM    8  C11 UNL     1      47.304  34.658  36.923  1.00  0.00     0.029 C 
HETATM    9  C12 UNL     1      47.738  32.353  36.479  1.00  0.00     0.140 C 
HETATM   10  O2  UNL     1      47.274  32.052  35.420  1.00  0.00    -0.297 OA
HETATM   11  C13 UNL     1      47.621  31.418  37.621  1.00  0.00     0.088 C 
HETATM   12  C14 UNL     1      47.902  32.102  38.942  1.00  0.00     0.022 C 
HETATM   13  C29 UNL     1      49.150  32.858  38.850  1.00  0.00    -0.017 C 
HETATM   14  C30 UNL     1      49.402  33.591  37.785  1.00  0.00    -0.062 C 
ENDROOT
BRANCH  12  15
HETATM   15  C15 UNL     1      47.892  31.102  40.072  1.00  0.00     0.022 C 
HETATM   16  C16 UNL     1      48.291  29.757  39.503  1.00  0.00     0.014 C 
BRANCH  15  17
HETATM   17  C17 UNL     1      46.609  31.025  40.827  1.00  0.00     0.145 C 
BRANCH  17  18
HETATM   18  O3  UNL     1      46.190  29.699  40.916  1.00  0.00    -0.391 OA
ATOM     19  H3  UNL     1      46.923  29.144  41.157  1.00  0.00     0.210 HD
ENDBRANCH  17  18
BRANCH  17  20
HETATM   20  C18 UNL     1      46.883  31.491  42.224  1.00  0.00     0.001 C 
HETATM   21  C19 UNL     1      48.110  31.687  42.657  1.00  0.00    -0.023 C 
BRANCH  21  22
HETATM   22  C20 UNL     1      48.522  32.143  44.000  1.00  0.00     0.015 C 
HETATM   23  C21 UNL     1      47.618  33.269  44.422  1.00  0.00     0.015 C 
BRANCH  22  24
HETATM   24  C22 UNL     1      48.740  31.096  45.011  1.00  0.00     0.062 C 
HETATM   25  C23 UNL     1      48.282  31.344  46.396  1.00  0.00     0.013 C 
HETATM   26  C24 UNL     1      49.448  31.404  47.395  1.00  0.00     0.005 C 
HETATM   27  C25 UNL     1      50.033  30.007  47.422  1.00  0.00    -0.012 C 
HETATM   28  C26 UNL     1      50.966  29.831  48.604  1.00  0.00     0.010 C 
HETATM   29  C27 UNL     1      50.745  29.797  46.104  1.00  0.00     0.083 C 
HETATM   30  C28 UNL     1      50.168  30.650  45.063  1.00  0.00     0.132 C 
HETATM   31  O4  UNL     1      50.894  31.038  44.153  1.00  0.00    -0.298 OA
ENDBRANCH  22  24
ENDBRANCH  21  22
ENDBRANCH  17  20
ENDBRANCH  15  17
ENDBRANCH  12  15
BRANCH   1  32
HETATM   32  C2  UNL     1      50.546  32.291  34.568  1.00  0.00    -0.069 C 
HETATM   33  C1  UNL     1      50.172  32.196  33.333  1.00  0.00     0.018 C 
HETATM   34  C3  UNL     1      50.970  31.049  35.289  1.00  0.00     0.047 C 
ENDBRANCH   1  32
BRANCH   5  35
HETATM   35  O1  UNL     1      50.218  36.111  34.709  1.00  0.00    -0.395 OA
ATOM     36  H1  UNL     1      50.657  35.358  34.331  1.00  0.00     0.210 HD
ENDBRANCH   5  35
TORSDOF 8
ENDMDL
