MODEL 1
REMARK VINA RESULT: -8.717555791      0.000      0.000
REMARK  12 active torsions:
REMARK  status: ('A' for Active; 'I' for Inactive)
REMARK    1  A    between atoms: N1_1  and  C1_4 
REMARK    2  A    between atoms: N3_8  and  C3_10 
REMARK    3  A    between atoms: C3_10  and  O6_34 
REMARK    4  A    between atoms: N4_11  and  C4_13 
REMARK    5  A    between atoms: C6_15  and  C7_16 
REMARK       I    between atoms: C7_16  and  N5_18 
REMARK    6  A    between atoms: N5_18  and  N6_20 
REMARK    7  A    between atoms: N6_20  and  C8_22 
REMARK    8  A    between atoms: C8_22  and  C9_23 
REMARK    9  A    between atoms: C12_26  and  N7_27 
REMARK   10  A    between atoms: O6_34  and  N9_35 
REMARK   11  A    between atoms: C15_40  and  C16_41 
REMARK   12  A    between atoms: C16_41  and  N10_42 
ROOT
HETATM    1  C3  UNL     1       9.952  -8.293  52.268  1.00  0.00     0.249 C 
HETATM    2  N4  UNL     1       9.978  -7.026  52.365  1.00  0.00    -0.302 N 
ATOM      3  H4  UNL     1       9.927  -6.308  51.643  1.00  0.00     0.171 HD
ENDROOT
BRANCH   2   4
HETATM    4  C4  UNL     1      10.111  -6.893  53.915  1.00  0.00     0.155 A 
HETATM    5  C5  UNL     1       8.843  -6.618  54.370  1.00  0.00     0.152 A 
HETATM    6  C6  UNL     1       8.917  -6.499  55.916  1.00  0.00     0.109 A 
HETATM    7  N8  UNL     1      10.098  -6.729  55.991  1.00  0.00    -0.258 N 
HETATM    8  O5  UNL     1      10.818  -6.975  54.851  1.00  0.00    -0.224 OA
ATOM      9  H8  UNL     1      10.560  -6.739  56.901  1.00  0.00     0.194 HD
BRANCH   6  10
HETATM   10  C7  UNL     1       7.346  -6.203  56.006  1.00  0.00     0.285 C 
HETATM   11  O1  UNL     1       7.088  -5.994  57.085  1.00  0.00    -0.265 OA
HETATM   12  N5  UNL     1       6.949  -6.375  54.689  1.00  0.00    -0.258 N 
ATOM     13  H5  UNL     1       7.677  -6.499  53.986  1.00  0.00     0.191 HD
BRANCH  12  14
HETATM   14  N6  UNL     1       5.664  -6.389  54.273  1.00  0.00    -0.260 N 
ATOM     15  H6  UNL     1       5.056  -7.063  54.740  1.00  0.00     0.197 HD
BRANCH  14  16
HETATM   16  C8  UNL     1       5.174  -5.760  53.481  1.00  0.00     0.012 C 
BRANCH  16  17
HETATM   17  C9  UNL     1       4.496  -5.043  52.491  1.00  0.00     0.141 A 
HETATM   18  C10 UNL     1       4.438  -3.791  51.955  1.00  0.00     0.052 A 
HETATM   19  C11 UNL     1       3.428  -3.699  51.012  1.00  0.00     0.066 A 
HETATM   20  C12 UNL     1       2.849  -4.958  50.982  1.00  0.00     0.215 A 
HETATM   21  O4  UNL     1       3.475  -5.710  51.794  1.00  0.00    -0.279 OA
BRANCH  20  22
HETATM   22  N7  UNL     1       1.735  -5.432  50.198  1.00  0.00    -0.090 N 
HETATM   23  O2  UNL     1       1.064  -6.468  50.546  1.00  0.00    -0.530 OA
HETATM   24  O3  UNL     1       1.425  -4.776  49.084  1.00  0.00    -0.530 OA
ENDBRANCH  20  22
ENDBRANCH  16  17
ENDBRANCH  14  16
ENDBRANCH  12  14
ENDBRANCH   6  10
ENDBRANCH   2   4
BRANCH   1  25
HETATM   25  N3  UNL     1      10.096  -9.403  53.016  1.00  0.00    -0.306 N 
HETATM   26  C2  UNL     1       9.597 -10.477  53.606  1.00  0.00     0.109 A 
HETATM   27  N2  UNL     1      10.463 -11.077  54.539  1.00  0.00    -0.328 N 
HETATM   28  C13 UNL     1       8.326 -10.908  53.657  1.00  0.00     0.049 A 
HETATM   29  C1  UNL     1      10.044 -11.949  55.392  1.00  0.00     0.108 A 
ATOM     30  H2  UNL     1      11.449 -10.816  54.540  1.00  0.00     0.169 HD
HETATM   31  C15 UNL     1       8.703 -12.416  55.478  1.00  0.00     0.011 A 
HETATM   32  C14 UNL     1       7.820 -11.865  54.566  1.00  0.00     0.016 A 
ATOM     33  H3  UNL     1      11.090  -9.428  53.244  1.00  0.00     0.171 HD
BRANCH  29  34
HETATM   34  N1  UNL     1      10.707 -12.477  56.278  1.00  0.00    -0.385 N 
ATOM     35  H12 UNL     1      11.603 -12.774  55.890  1.00  0.00     0.157 HD
ATOM     36  H11 UNL     1      10.414 -12.633  57.242  1.00  0.00     0.157 HD
ENDBRANCH  29  34
BRANCH  31  37
HETATM   37  C16 UNL     1       8.469 -13.510  56.450  1.00  0.00     0.271 C 
BRANCH  37  38
HETATM   38  N10 UNL     1       7.212 -14.232  56.344  1.00  0.00    -0.075 N 
ATOM     39 3H10 UNL     1       6.555 -13.874  57.037  1.00  0.00     0.274 HD
ATOM     40 2H10 UNL     1       6.740 -13.967  55.480  1.00  0.00     0.274 HD
ATOM     41 1H10 UNL     1       7.254 -15.249  56.410  1.00  0.00     0.274 HD
ENDBRANCH  37  38
ENDBRANCH  31  37
ENDBRANCH   1  25
BRANCH   1  42
HETATM   42  O6  UNL     1       9.625  -8.582  50.793  1.00  0.00    -0.207 OA
BRANCH  42  43
HETATM   43  N9  UNL     1      10.382  -9.462  50.127  1.00  0.00    -0.302 N 
ATOM     44  H92 UNL     1      10.574 -10.376  50.537  1.00  0.00     0.184 HD
ATOM     45  H91 UNL     1      10.754  -9.196  49.216  1.00  0.00     0.184 HD
ENDBRANCH  42  43
ENDBRANCH   1  42
TORSDOF 12
ENDMDL
MODEL 2
REMARK VINA RESULT: -8.695049134      2.052      2.796
REMARK  12 active torsions:
REMARK  status: ('A' for Active; 'I' for Inactive)
REMARK    1  A    between atoms: N1_1  and  C1_4 
REMARK    2  A    between atoms: N3_8  and  C3_10 
REMARK    3  A    between atoms: C3_10  and  O6_34 
REMARK    4  A    between atoms: N4_11  and  C4_13 
REMARK    5  A    between atoms: C6_15  and  C7_16 
REMARK       I    between atoms: C7_16  and  N5_18 
REMARK    6  A    between atoms: N5_18  and  N6_20 
REMARK    7  A    between atoms: N6_20  and  C8_22 
REMARK    8  A    between atoms: C8_22  and  C9_23 
REMARK    9  A    between atoms: C12_26  and  N7_27 
REMARK   10  A    between atoms: O6_34  and  N9_35 
REMARK   11  A    between atoms: C15_40  and  C16_41 
REMARK   12  A    between atoms: C16_41  and  N10_42 
ROOT
HETATM    1  C3  UNL     1       8.819  -9.251  51.901  1.00  0.00     0.249 C 
HETATM    2  N4  UNL     1       9.067  -8.012  51.766  1.00  0.00    -0.302 N 
ATOM      3  H4  UNL     1       9.559  -7.514  51.024  1.00  0.00     0.171 HD
ENDROOT
BRANCH   2   4
HETATM    4  C4  UNL     1       8.400  -7.474  53.071  1.00  0.00     0.155 A 
HETATM    5  C5  UNL     1       7.346  -6.698  52.651  1.00  0.00     0.152 A 
HETATM    6  C6  UNL     1       6.631  -6.157  53.919  1.00  0.00     0.109 A 
HETATM    7  N8  UNL     1       7.359  -6.708  54.705  1.00  0.00    -0.258 N 
HETATM    8  O5  UNL     1       8.387  -7.491  54.246  1.00  0.00    -0.224 OA
ATOM      9  H8  UNL     1       7.211  -6.592  55.707  1.00  0.00     0.194 HD
BRANCH   6  10
HETATM   10  C7  UNL     1       5.556  -5.376  53.024  1.00  0.00     0.285 C 
HETATM   11  O1  UNL     1       4.618  -6.003  52.972  1.00  0.00    -0.265 OA
HETATM   12  N5  UNL     1       6.267  -4.248  52.646  1.00  0.00    -0.258 N 
ATOM     13  H5  UNL     1       7.176  -4.091  53.082  1.00  0.00     0.191 HD
BRANCH  12  14
HETATM   14  N6  UNL     1       5.839  -3.341  51.741  1.00  0.00    -0.260 N 
ATOM     15  H6  UNL     1       5.856  -2.368  52.048  1.00  0.00     0.197 HD
BRANCH  14  16
HETATM   16  C8  UNL     1       5.468  -3.514  50.694  1.00  0.00     0.012 C 
BRANCH  16  17
HETATM   17  C9  UNL     1       4.971  -3.814  49.422  1.00  0.00     0.141 A 
HETATM   18  C10 UNL     1       5.282  -3.641  48.106  1.00  0.00     0.052 A 
HETATM   19  C11 UNL     1       4.270  -4.114  47.288  1.00  0.00     0.066 A 
HETATM   20  C12 UNL     1       3.302  -4.592  48.157  1.00  0.00     0.215 A 
HETATM   21  O4  UNL     1       3.719  -4.445  49.349  1.00  0.00    -0.279 OA
BRANCH  20  22
HETATM   22  N7  UNL     1       2.018  -5.179  47.859  1.00  0.00    -0.090 N 
HETATM   23  O2  UNL     1       1.415  -4.944  46.752  1.00  0.00    -0.530 OA
HETATM   24  O3  UNL     1       1.457  -5.964  48.774  1.00  0.00    -0.530 OA
ENDBRANCH  20  22
ENDBRANCH  16  17
ENDBRANCH  14  16
ENDBRANCH  12  14
ENDBRANCH   6  10
ENDBRANCH   2   4
BRANCH   1  25
HETATM   25  N3  UNL     1       8.304 -10.123  52.788  1.00  0.00    -0.306 N 
HETATM   26  C2  UNL     1       8.421 -10.902  53.851  1.00  0.00     0.109 A 
HETATM   27  N2  UNL     1       7.361 -11.812  54.020  1.00  0.00    -0.328 N 
HETATM   28  C13 UNL     1       9.498 -11.143  54.615  1.00  0.00     0.049 A 
HETATM   29  C1  UNL     1       7.447 -12.814  54.827  1.00  0.00     0.108 A 
ATOM     30  H2  UNL     1       6.501 -11.675  53.489  1.00  0.00     0.169 HD
HETATM   31  C15 UNL     1       8.578 -13.102  55.639  1.00  0.00     0.011 A 
HETATM   32  C14 UNL     1       9.639 -12.221  55.519  1.00  0.00     0.016 A 
ATOM     33  H3  UNL     1       7.336 -10.247  52.489  1.00  0.00     0.171 HD
BRANCH  29  34
HETATM   34  N1  UNL     1       6.604 -13.688  54.992  1.00  0.00    -0.385 N 
ATOM     35  H12 UNL     1       5.929 -13.372  55.688  1.00  0.00     0.157 HD
ATOM     36  H11 UNL     1       6.584 -14.603  54.541  1.00  0.00     0.157 HD
ENDBRANCH  29  34
BRANCH  31  37
HETATM   37  C16 UNL     1       8.414 -14.232  56.584  1.00  0.00     0.271 C 
BRANCH  37  38
HETATM   38  N10 UNL     1       7.998 -13.909  57.938  1.00  0.00    -0.075 N 
ATOM     39 3H10 UNL     1       8.750 -13.411  58.415  1.00  0.00     0.274 HD
ATOM     40 2H10 UNL     1       7.281 -13.184  57.908  1.00  0.00     0.274 HD
ATOM     41 1H10 UNL     1       7.677 -14.680  58.522  1.00  0.00     0.274 HD
ENDBRANCH  37  38
ENDBRANCH  31  37
ENDBRANCH   1  25
BRANCH   1  42
HETATM   42  O6  UNL     1       9.253  -9.900  50.576  1.00  0.00    -0.207 OA
BRANCH  42  43
HETATM   43  N9  UNL     1      10.422  -9.538  50.036  1.00  0.00    -0.302 N 
ATOM     44  H92 UNL     1      11.294  -9.855  50.460  1.00  0.00     0.184 HD
ATOM     45  H91 UNL     1      10.415  -8.947  49.205  1.00  0.00     0.184 HD
ENDBRANCH  42  43
ENDBRANCH   1  42
TORSDOF 12
ENDMDL
MODEL 3
REMARK VINA RESULT: -8.694592674      1.353      1.615
REMARK  12 active torsions:
REMARK  status: ('A' for Active; 'I' for Inactive)
REMARK    1  A    between atoms: N1_1  and  C1_4 
REMARK    2  A    between atoms: N3_8  and  C3_10 
REMARK    3  A    between atoms: C3_10  and  O6_34 
REMARK    4  A    between atoms: N4_11  and  C4_13 
REMARK    5  A    between atoms: C6_15  and  C7_16 
REMARK       I    between atoms: C7_16  and  N5_18 
REMARK    6  A    between atoms: N5_18  and  N6_20 
REMARK    7  A    between atoms: N6_20  and  C8_22 
REMARK    8  A    between atoms: C8_22  and  C9_23 
REMARK    9  A    between atoms: C12_26  and  N7_27 
REMARK   10  A    between atoms: O6_34  and  N9_35 
REMARK   11  A    between atoms: C15_40  and  C16_41 
REMARK   12  A    between atoms: C16_41  and  N10_42 
ROOT
HETATM    1  C3  UNL     1      10.429  -9.076  52.396  1.00  0.00     0.249 C 
HETATM    2  N4  UNL     1      11.060  -7.973  52.399  1.00  0.00    -0.302 N 
ATOM      3  H4  UNL     1      11.732  -7.595  51.731  1.00  0.00     0.171 HD
ENDROOT
BRANCH   2   4
HETATM    4  C4  UNL     1      10.506  -7.366  53.726  1.00  0.00     0.155 A 
HETATM    5  C5  UNL     1       9.139  -7.488  53.643  1.00  0.00     0.152 A 
HETATM    6  C6  UNL     1       8.539  -6.918  54.956  1.00  0.00     0.109 A 
HETATM    7  N8  UNL     1       9.600  -6.641  55.456  1.00  0.00    -0.258 N 
HETATM    8  O5  UNL     1      10.761  -6.901  54.775  1.00  0.00    -0.224 OA
ATOM      9  H8  UNL     1       9.633  -6.214  56.382  1.00  0.00     0.194 HD
BRANCH   6  10
HETATM   10  C7  UNL     1       7.051  -7.242  54.460  1.00  0.00     0.285 C 
HETATM   11  O1  UNL     1       6.997  -8.340  54.198  1.00  0.00    -0.265 OA
HETATM   12  N5  UNL     1       6.452  -5.994  54.524  1.00  0.00    -0.258 N 
ATOM     13  H5  UNL     1       6.977  -5.237  54.961  1.00  0.00     0.191 HD
BRANCH  12  14
HETATM   14  N6  UNL     1       5.220  -5.711  54.048  1.00  0.00    -0.260 N 
ATOM     15  H6  UNL     1       4.441  -5.990  54.645  1.00  0.00     0.197 HD
BRANCH  14  16
HETATM   16  C8  UNL     1       4.937  -5.209  53.083  1.00  0.00     0.012 C 
BRANCH  16  17
HETATM   17  C9  UNL     1       4.523  -4.533  51.932  1.00  0.00     0.141 A 
HETATM   18  C10 UNL     1       4.764  -3.378  51.248  1.00  0.00     0.052 A 
HETATM   19  C11 UNL     1       3.903  -3.246  50.172  1.00  0.00     0.066 A 
HETATM   20  C12 UNL     1       3.102  -4.377  50.214  1.00  0.00     0.215 A 
HETATM   21  O4  UNL     1       3.479  -5.104  51.187  1.00  0.00    -0.279 OA
BRANCH  20  22
HETATM   22  N7  UNL     1       2.013  -4.757  49.347  1.00  0.00    -0.090 N 
HETATM   23  O2  UNL     1       1.707  -5.986  49.156  1.00  0.00    -0.530 OA
HETATM   24  O3  UNL     1       1.336  -3.794  48.728  1.00  0.00    -0.530 OA
ENDBRANCH  20  22
ENDBRANCH  16  17
ENDBRANCH  14  16
ENDBRANCH  12  14
ENDBRANCH   6  10
ENDBRANCH   2   4
BRANCH   1  25
HETATM   25  N3  UNL     1       9.608  -9.814  53.167  1.00  0.00    -0.306 N 
HETATM   26  C2  UNL     1       9.405 -10.695  54.133  1.00  0.00     0.109 A 
HETATM   27  N2  UNL     1       8.095 -11.206  54.181  1.00  0.00    -0.328 N 
HETATM   28  C13 UNL     1      10.300 -11.366  54.876  1.00  0.00     0.049 A 
HETATM   29  C1  UNL     1       7.800 -12.259  54.865  1.00  0.00     0.108 A 
ATOM     30  H2  UNL     1       7.357 -10.731  53.660  1.00  0.00     0.169 HD
HETATM   31  C15 UNL     1       8.728 -12.997  55.651  1.00  0.00     0.011 A 
HETATM   32  C14 UNL     1      10.026 -12.518  55.647  1.00  0.00     0.016 A 
ATOM     33  H3  UNL     1       8.671  -9.571  52.845  1.00  0.00     0.171 HD
BRANCH  29  34
HETATM   34  N1  UNL     1       6.706 -12.810  54.916  1.00  0.00    -0.385 N 
ATOM     35  H12 UNL     1       6.122 -12.327  55.598  1.00  0.00     0.157 HD
ATOM     36  H11 UNL     1       6.422 -13.640  54.395  1.00  0.00     0.157 HD
ENDBRANCH  29  34
BRANCH  31  37
HETATM   37  C16 UNL     1       8.149 -14.100  56.454  1.00  0.00     0.271 C 
BRANCH  37  38
HETATM   38  N10 UNL     1       8.072 -13.903  57.892  1.00  0.00    -0.075 N 
ATOM     39 3H10 UNL     1       8.720 -14.540  58.357  1.00  0.00     0.274 HD
ATOM     40 2H10 UNL     1       8.486 -13.003  58.133  1.00  0.00     0.274 HD
ATOM     41 1H10 UNL     1       7.152 -13.981  58.323  1.00  0.00     0.274 HD
ENDBRANCH  37  38
ENDBRANCH  31  37
ENDBRANCH   1  25
BRANCH   1  42
HETATM   42  O6  UNL     1      10.728  -9.713  51.028  1.00  0.00    -0.207 OA
BRANCH  42  43
HETATM   43  N9  UNL     1      10.341  -9.070  49.921  1.00  0.00    -0.302 N 
ATOM     44  H92 UNL     1      10.745  -8.160  49.697  1.00  0.00     0.184 HD
ATOM     45  H91 UNL     1       9.643  -9.507  49.320  1.00  0.00     0.184 HD
ENDBRANCH  42  43
ENDBRANCH   1  42
TORSDOF 12
ENDMDL
MODEL 4
REMARK VINA RESULT: -8.584725957      2.647      3.482
REMARK  12 active torsions:
REMARK  status: ('A' for Active; 'I' for Inactive)
REMARK    1  A    between atoms: N1_1  and  C1_4 
REMARK    2  A    between atoms: N3_8  and  C3_10 
REMARK    3  A    between atoms: C3_10  and  O6_34 
REMARK    4  A    between atoms: N4_11  and  C4_13 
REMARK    5  A    between atoms: C6_15  and  C7_16 
REMARK       I    between atoms: C7_16  and  N5_18 
REMARK    6  A    between atoms: N5_18  and  N6_20 
REMARK    7  A    between atoms: N6_20  and  C8_22 
REMARK    8  A    between atoms: C8_22  and  C9_23 
REMARK    9  A    between atoms: C12_26  and  N7_27 
REMARK   10  A    between atoms: O6_34  and  N9_35 
REMARK   11  A    between atoms: C15_40  and  C16_41 
REMARK   12  A    between atoms: C16_41  and  N10_42 
ROOT
HETATM    1  C3  UNL     1       8.786  -9.039  52.084  1.00  0.00     0.249 C 
HETATM    2  N4  UNL     1       8.892  -7.783  51.916  1.00  0.00    -0.302 N 
ATOM      3  H4  UNL     1       9.399  -7.252  51.209  1.00  0.00     0.171 HD
ENDROOT
BRANCH   2   4
HETATM    4  C4  UNL     1       8.017  -7.292  53.112  1.00  0.00     0.155 A 
HETATM    5  C5  UNL     1       7.001  -6.559  52.547  1.00  0.00     0.152 A 
HETATM    6  C6  UNL     1       6.084  -6.066  53.699  1.00  0.00     0.109 A 
HETATM    7  N8  UNL     1       6.714  -6.594  54.580  1.00  0.00    -0.258 N 
HETATM    8  O5  UNL     1       7.834  -7.324  54.273  1.00  0.00    -0.224 OA
ATOM      9  H8  UNL     1       6.416  -6.497  55.551  1.00  0.00     0.194 HD
BRANCH   6  10
HETATM   10  C7  UNL     1       5.117  -5.323  52.661  1.00  0.00     0.285 C 
HETATM   11  O1  UNL     1       4.139  -5.888  52.624  1.00  0.00    -0.265 OA
HETATM   12  N5  UNL     1       5.926  -4.297  52.202  1.00  0.00    -0.258 N 
ATOM     13  H5  UNL     1       6.821  -4.152  52.670  1.00  0.00     0.191 HD
BRANCH  12  14
HETATM   14  N6  UNL     1       5.613  -3.474  51.177  1.00  0.00    -0.260 N 
ATOM     15  H6  UNL     1       5.950  -2.515  51.262  1.00  0.00     0.197 HD
BRANCH  14  16
HETATM   16  C8  UNL     1       5.031  -3.704  50.244  1.00  0.00     0.012 C 
BRANCH  16  17
HETATM   17  C9  UNL     1       4.235  -3.939  49.120  1.00  0.00     0.141 A 
HETATM   18  C10 UNL     1       3.006  -4.428  48.786  1.00  0.00     0.052 A 
HETATM   19  C11 UNL     1       2.850  -4.489  47.411  1.00  0.00     0.066 A 
HETATM   20  C12 UNL     1       4.045  -4.014  46.894  1.00  0.00     0.215 A 
HETATM   21  O4  UNL     1       4.801  -3.683  47.861  1.00  0.00    -0.279 OA
BRANCH  20  22
HETATM   22  N7  UNL     1       4.452  -3.876  45.517  1.00  0.00    -0.090 N 
HETATM   23  O2  UNL     1       4.573  -4.894  44.748  1.00  0.00    -0.530 OA
HETATM   24  O3  UNL     1       4.720  -2.656  45.059  1.00  0.00    -0.530 OA
ENDBRANCH  20  22
ENDBRANCH  16  17
ENDBRANCH  14  16
ENDBRANCH  12  14
ENDBRANCH   6  10
ENDBRANCH   2   4
BRANCH   1  25
HETATM   25  N3  UNL     1       8.287  -9.940  52.950  1.00  0.00    -0.306 N 
HETATM   26  C2  UNL     1       8.429 -10.773  53.969  1.00  0.00     0.109 A 
HETATM   27  N2  UNL     1       7.351 -11.660  54.142  1.00  0.00    -0.328 N 
HETATM   28  C13 UNL     1       9.532 -11.081  54.669  1.00  0.00     0.049 A 
HETATM   29  C1  UNL     1       7.444 -12.703  54.895  1.00  0.00     0.108 A 
ATOM     30  H2  UNL     1       6.472 -11.474  53.660  1.00  0.00     0.169 HD
HETATM   31  C15 UNL     1       8.602 -13.062  55.640  1.00  0.00     0.011 A 
HETATM   32  C14 UNL     1       9.682 -12.205  55.512  1.00  0.00     0.016 A 
ATOM     33  H3  UNL     1       7.304 -10.022  52.692  1.00  0.00     0.171 HD
BRANCH  29  34
HETATM   34  N1  UNL     1       6.584 -13.561  55.058  1.00  0.00    -0.385 N 
ATOM     35  H12 UNL     1       6.423 -14.043  54.173  1.00  0.00     0.157 HD
ATOM     36  H11 UNL     1       6.076 -13.754  55.921  1.00  0.00     0.157 HD
ENDBRANCH  29  34
BRANCH  31  37
HETATM   37  C16 UNL     1       8.448 -14.232  56.535  1.00  0.00     0.271 C 
BRANCH  37  38
HETATM   38  N10 UNL     1       8.074 -13.967  57.914  1.00  0.00    -0.075 N 
ATOM     39 3H10 UNL     1       7.100 -13.667  57.951  1.00  0.00     0.274 HD
ATOM     40 2H10 UNL     1       8.021 -14.847  58.427  1.00  0.00     0.274 HD
ATOM     41 1H10 UNL     1       8.652 -13.307  58.433  1.00  0.00     0.274 HD
ENDBRANCH  37  38
ENDBRANCH  31  37
ENDBRANCH   1  25
BRANCH   1  42
HETATM   42  O6  UNL     1       9.448  -9.672  50.848  1.00  0.00    -0.207 OA
BRANCH  42  43
HETATM   43  N9  UNL     1      10.404  -8.987  50.210  1.00  0.00    -0.302 N 
ATOM     44  H92 UNL     1      11.012  -9.466  49.545  1.00  0.00     0.184 HD
ATOM     45  H91 UNL     1      10.505  -7.991  50.405  1.00  0.00     0.184 HD
ENDBRANCH  42  43
ENDBRANCH   1  42
TORSDOF 12
ENDMDL
MODEL 5
REMARK VINA RESULT: -8.199618848      2.100      2.518
REMARK  12 active torsions:
REMARK  status: ('A' for Active; 'I' for Inactive)
REMARK    1  A    between atoms: N1_1  and  C1_4 
REMARK    2  A    between atoms: N3_8  and  C3_10 
REMARK    3  A    between atoms: C3_10  and  O6_34 
REMARK    4  A    between atoms: N4_11  and  C4_13 
REMARK    5  A    between atoms: C6_15  and  C7_16 
REMARK       I    between atoms: C7_16  and  N5_18 
REMARK    6  A    between atoms: N5_18  and  N6_20 
REMARK    7  A    between atoms: N6_20  and  C8_22 
REMARK    8  A    between atoms: C8_22  and  C9_23 
REMARK    9  A    between atoms: C12_26  and  N7_27 
REMARK   10  A    between atoms: O6_34  and  N9_35 
REMARK   11  A    between atoms: C15_40  and  C16_41 
REMARK   12  A    between atoms: C16_41  and  N10_42 
ROOT
HETATM    1  C3  UNL     1      10.444  -9.111  52.368  1.00  0.00     0.249 C 
HETATM    2  N4  UNL     1      11.077  -8.009  52.365  1.00  0.00    -0.302 N 
ATOM      3  H4  UNL     1      11.747  -7.635  51.694  1.00  0.00     0.171 HD
ENDROOT
BRANCH   2   4
HETATM    4  C4  UNL     1      10.528  -7.397  53.692  1.00  0.00     0.155 A 
HETATM    5  C5  UNL     1       9.160  -7.511  53.610  1.00  0.00     0.152 A 
HETATM    6  C6  UNL     1       8.564  -6.935  54.923  1.00  0.00     0.109 A 
HETATM    7  N8  UNL     1       9.627  -6.663  55.421  1.00  0.00    -0.258 N 
HETATM    8  O5  UNL     1      10.787  -6.931  54.740  1.00  0.00    -0.224 OA
ATOM      9  H8  UNL     1       9.664  -6.234  56.346  1.00  0.00     0.194 HD
BRANCH   6  10
HETATM   10  C7  UNL     1       7.074  -7.251  54.429  1.00  0.00     0.285 C 
HETATM   11  O1  UNL     1       7.003  -8.357  54.208  1.00  0.00    -0.265 OA
HETATM   12  N5  UNL     1       6.496  -5.991  54.442  1.00  0.00    -0.258 N 
ATOM     13  H5  UNL     1       7.033  -5.228  54.854  1.00  0.00     0.191 HD
BRANCH  12  14
HETATM   14  N6  UNL     1       5.273  -5.705  53.947  1.00  0.00    -0.260 N 
ATOM     15  H6  UNL     1       4.490  -6.171  54.407  1.00  0.00     0.197 HD
BRANCH  14  16
HETATM   16  C8  UNL     1       5.000  -5.022  53.097  1.00  0.00     0.012 C 
BRANCH  16  17
HETATM   17  C9  UNL     1       4.722  -4.222  51.985  1.00  0.00     0.141 A 
HETATM   18  C10 UNL     1       3.694  -3.524  51.424  1.00  0.00     0.052 A 
HETATM   19  C11 UNL     1       4.060  -2.997  50.197  1.00  0.00     0.066 A 
HETATM   20  C12 UNL     1       5.374  -3.400  50.012  1.00  0.00     0.215 A 
HETATM   21  O4  UNL     1       5.742  -4.061  51.034  1.00  0.00    -0.279 OA
BRANCH  20  22
HETATM   22  N7  UNL     1       6.254  -3.157  48.895  1.00  0.00    -0.090 N 
HETATM   23  O2  UNL     1       7.527  -3.117  49.041  1.00  0.00    -0.530 OA
HETATM   24  O3  UNL     1       5.711  -2.953  47.698  1.00  0.00    -0.530 OA
ENDBRANCH  20  22
ENDBRANCH  16  17
ENDBRANCH  14  16
ENDBRANCH  12  14
ENDBRANCH   6  10
ENDBRANCH   2   4
BRANCH   1  25
HETATM   25  N3  UNL     1       9.625  -9.845  53.145  1.00  0.00    -0.306 N 
HETATM   26  C2  UNL     1       9.423 -10.715  54.122  1.00  0.00     0.109 A 
HETATM   27  N2  UNL     1       8.117 -11.236  54.168  1.00  0.00    -0.328 N 
HETATM   28  C13 UNL     1      10.319 -11.368  54.879  1.00  0.00     0.049 A 
HETATM   29  C1  UNL     1       7.827 -12.282  54.866  1.00  0.00     0.108 A 
ATOM     30  H2  UNL     1       7.379 -10.774  53.637  1.00  0.00     0.169 HD
HETATM   31  C15 UNL     1       8.756 -13.001  55.668  1.00  0.00     0.011 A 
HETATM   32  C14 UNL     1      10.051 -12.511  55.665  1.00  0.00     0.016 A 
ATOM     33  H3  UNL     1       8.688  -9.615  52.814  1.00  0.00     0.171 HD
BRANCH  29  34
HETATM   34  N1  UNL     1       6.738 -12.841  54.918  1.00  0.00    -0.385 N 
ATOM     35  H12 UNL     1       6.361 -12.747  55.861  1.00  0.00     0.157 HD
ATOM     36  H11 UNL     1       6.284 -13.353  54.162  1.00  0.00     0.157 HD
ENDBRANCH  29  34
BRANCH  31  37
HETATM   37  C16 UNL     1       8.182 -14.098  56.482  1.00  0.00     0.271 C 
BRANCH  37  38
HETATM   38  N10 UNL     1       8.066 -13.870  57.913  1.00  0.00    -0.075 N 
ATOM     39 3H10 UNL     1       8.123 -12.869  58.103  1.00  0.00     0.274 HD
ATOM     40 2H10 UNL     1       7.111 -14.065  58.211  1.00  0.00     0.274 HD
ATOM     41 1H10 UNL     1       8.719 -14.368  58.517  1.00  0.00     0.274 HD
ENDBRANCH  37  38
ENDBRANCH  31  37
ENDBRANCH   1  25
BRANCH   1  42
HETATM   42  O6  UNL     1      10.739  -9.754  51.002  1.00  0.00    -0.207 OA
BRANCH  42  43
HETATM   43  N9  UNL     1      10.362  -9.107  49.893  1.00  0.00    -0.302 N 
ATOM     44  H92 UNL     1      10.056  -8.136  49.954  1.00  0.00     0.184 HD
ATOM     45  H91 UNL     1      10.390  -9.605  49.003  1.00  0.00     0.184 HD
ENDBRANCH  42  43
ENDBRANCH   1  42
TORSDOF 12
ENDMDL
