MODEL 1
REMARK VINA RESULT: -8.920225144      0.000      0.000
REMARK  11 active torsions:
REMARK  status: ('A' for Active; 'I' for Inactive)
REMARK    1  A    between atoms: N1_2  and  C1_4 
REMARK    2  A    between atoms: C4_7  and  O3_8 
REMARK    3  A    between atoms: C5_10  and  C6_11 
REMARK    4  A    between atoms: C6_11  and  N2_12 
REMARK    5  A    between atoms: C6_11  and  C15_33 
REMARK    6  A    between atoms: N2_12  and  C7_14 
REMARK    7  A    between atoms: C7_14  and  C8_15 
REMARK    8  A    between atoms: C8_15  and  O4_16 
REMARK    9  A    between atoms: C8_15  and  C9_18 
REMARK   10  A    between atoms: C10_23  and  C11_24 
REMARK   11  A    between atoms: C14_27  and  O5_28 
ROOT
HETATM    1  C6  UNL     1       6.704  -6.033  54.810  1.00  0.00     0.092 C 
ENDROOT
BRANCH   1   2
HETATM    2  C5  UNL     1       7.848  -7.003  54.645  1.00  0.00     0.030 A 
HETATM    3  C4  UNL     1       9.151  -6.682  54.965  1.00  0.00     0.078 A 
HETATM    4  C3  UNL     1      10.186  -7.596  54.818  1.00  0.00     0.040 A 
HETATM    5  C2  UNL     1       9.940  -8.853  54.347  1.00  0.00     0.039 A 
HETATM    6  C1  UNL     1       8.657  -9.189  54.023  1.00  0.00     0.103 A 
HETATM    7  C16 UNL     1       7.635  -8.282  54.171  1.00  0.00     0.052 A 
BRANCH   3   8
HETATM    8  O3  UNL     1       9.521  -5.440  55.449  1.00  0.00    -0.360 OA
ATOM      9  H3  UNL     1       8.929  -5.059  56.087  1.00  0.00     0.217 HD
ENDBRANCH   3   8
BRANCH   6  10
HETATM   10  N1  UNL     1       8.398 -10.492  53.534  1.00  0.00    -0.116 N 
HETATM   11  O1  UNL     1       8.478 -11.500  54.283  1.00  0.00    -0.532 OA
HETATM   12  O2  UNL     1       8.052 -10.641  52.214  1.00  0.00    -0.532 OA
ENDBRANCH   6  10
ENDBRANCH   1   2
BRANCH   1  13
HETATM   13  N2  UNL     1       5.759  -6.063  53.804  1.00  0.00    -0.363 N 
ATOM     14  H2  UNL     1       5.075  -6.817  53.843  1.00  0.00     0.165 HD
BRANCH  13  15
HETATM   15  C7  UNL     1       5.643  -5.180  52.754  1.00  0.00     0.101 C 
BRANCH  15  16
HETATM   16  C8  UNL     1       4.409  -4.330  52.663  1.00  0.00     0.232 C 
BRANCH  16  17
HETATM   17  O4  UNL     1       4.738  -2.997  52.343  1.00  0.00    -0.382 OA
ATOM     18  H4  UNL     1       4.295  -2.390  52.925  1.00  0.00     0.211 HD
ENDBRANCH  16  17
BRANCH  16  19
HETATM   19  C9  UNL     1       3.566  -4.765  51.476  1.00  0.00     0.174 A 
HETATM   20  N3  UNL     1       2.403  -5.444  51.535  1.00  0.00    -0.279 N 
HETATM   21  N4  UNL     1       2.031  -5.603  50.269  1.00  0.00    -0.276 N 
ATOM     22  H3  UNL     1       1.913  -5.765  52.370  1.00  0.00     0.189 HD
HETATM   23  C10 UNL     1       2.930  -5.044  49.446  1.00  0.00     0.191 A 
ATOM     24  H4  UNL     1       1.183  -6.083  49.967  1.00  0.00     0.189 HD
HETATM   25  O6  UNL     1       3.857  -4.539  50.217  1.00  0.00    -0.273 OA
BRANCH  23  26
HETATM   26  C11 UNL     1       2.847  -5.028  47.986  1.00  0.00     0.087 A 
HETATM   27  C12 UNL     1       3.915  -4.823  47.141  1.00  0.00     0.038 A 
HETATM   28  C13 UNL     1       3.482  -4.872  45.820  1.00  0.00     0.058 A 
HETATM   29  C14 UNL     1       2.129  -5.111  45.905  1.00  0.00     0.140 A 
HETATM   30  N5  UNL     1       1.764  -5.202  47.215  1.00  0.00    -0.334 N 
ATOM     31  H5  UNL     1       0.818  -5.375  47.555  1.00  0.00     0.168 HD
BRANCH  29  32
HETATM   32  O5  UNL     1       1.223  -5.249  44.853  1.00  0.00    -0.346 OA
ATOM     33  H5  UNL     1       0.441  -4.734  44.691  1.00  0.00     0.219 HD
ENDBRANCH  29  32
ENDBRANCH  23  26
ENDBRANCH  16  19
ENDBRANCH  15  16
ENDBRANCH  13  15
ENDBRANCH   1  13
BRANCH   1  34
HETATM   34  C15 UNL     1       6.325  -5.822  56.218  1.00  0.00     0.165 A 
HETATM   35  N6  UNL     1       7.002  -6.061  57.339  1.00  0.00    -0.267 N 
HETATM   36  N7  UNL     1       6.295  -5.716  58.383  1.00  0.00    -0.227 N 
ATOM     37  H6  UNL     1       7.940  -6.459  57.378  1.00  0.00     0.190 HD
HETATM   38  N8  UNL     1       5.143  -5.244  57.961  1.00  0.00    -0.227 N 
ATOM     39  H7  UNL     1       6.587  -5.799  59.357  1.00  0.00     0.210 HD
HETATM   40  N9  UNL     1       5.133  -5.297  56.652  1.00  0.00    -0.267 N 
ATOM     41  H8  UNL     1       4.387  -4.897  58.551  1.00  0.00     0.210 HD
ATOM     42  H9  UNL     1       4.366  -4.997  56.052  1.00  0.00     0.190 HD
ENDBRANCH   1  34
TORSDOF 11
ENDMDL
MODEL 2
REMARK VINA RESULT: -8.800202939      2.906      4.678
REMARK  11 active torsions:
REMARK  status: ('A' for Active; 'I' for Inactive)
REMARK    1  A    between atoms: N1_2  and  C1_4 
REMARK    2  A    between atoms: C4_7  and  O3_8 
REMARK    3  A    between atoms: C5_10  and  C6_11 
REMARK    4  A    between atoms: C6_11  and  N2_12 
REMARK    5  A    between atoms: C6_11  and  C15_33 
REMARK    6  A    between atoms: N2_12  and  C7_14 
REMARK    7  A    between atoms: C7_14  and  C8_15 
REMARK    8  A    between atoms: C8_15  and  O4_16 
REMARK    9  A    between atoms: C8_15  and  C9_18 
REMARK   10  A    between atoms: C10_23  and  C11_24 
REMARK   11  A    between atoms: C14_27  and  O5_28 
ROOT
HETATM    1  C6  UNL     1       9.857  -6.875  54.835  1.00  0.00     0.092 C 
ENDROOT
BRANCH   1   2
HETATM    2  C5  UNL     1       9.977  -8.250  54.225  1.00  0.00     0.030 A 
HETATM    3  C4  UNL     1       9.790  -8.489  52.879  1.00  0.00     0.078 A 
HETATM    4  C3  UNL     1       9.920  -9.760  52.337  1.00  0.00     0.040 A 
HETATM    5  C2  UNL     1      10.240 -10.823  53.131  1.00  0.00     0.039 A 
HETATM    6  C1  UNL     1      10.428 -10.608  54.467  1.00  0.00     0.103 A 
HETATM    7  C16 UNL     1      10.299  -9.347  54.999  1.00  0.00     0.052 A 
BRANCH   3   8
HETATM    8  O3  UNL     1       9.462  -7.490  51.979  1.00  0.00    -0.360 OA
ATOM      9  H3  UNL     1       8.887  -6.812  52.315  1.00  0.00     0.217 HD
ENDBRANCH   3   8
BRANCH   6  10
HETATM   10  N1  UNL     1      10.759 -11.708  55.293  1.00  0.00    -0.116 N 
HETATM   11  O1  UNL     1      11.952 -11.945  55.619  1.00  0.00    -0.532 OA
HETATM   12  O2  UNL     1       9.749 -12.522  55.740  1.00  0.00    -0.532 OA
ENDBRANCH   6  10
ENDBRANCH   1   2
BRANCH   1  13
HETATM   13  N2  UNL     1       9.153  -6.819  56.023  1.00  0.00    -0.363 N 
ATOM     14  H2  UNL     1       9.436  -7.473  56.752  1.00  0.00     0.165 HD
BRANCH  13  15
HETATM   15  C7  UNL     1       8.111  -5.973  56.325  1.00  0.00     0.101 C 
BRANCH  15  16
HETATM   16  C8  UNL     1       6.708  -6.439  56.058  1.00  0.00     0.232 C 
BRANCH  16  17
HETATM   17  O4  UNL     1       5.774  -5.657  56.768  1.00  0.00    -0.382 OA
ATOM     18  H4  UNL     1       5.304  -5.075  56.182  1.00  0.00     0.211 HD
ENDBRANCH  16  17
BRANCH  16  19
HETATM   19  C9  UNL     1       6.341  -6.171  54.608  1.00  0.00     0.174 A 
HETATM   20  N3  UNL     1       7.094  -6.470  53.530  1.00  0.00    -0.279 N 
HETATM   21  N4  UNL     1       6.383  -6.059  52.486  1.00  0.00    -0.276 N 
ATOM     22  H3  UNL     1       8.012  -6.916  53.519  1.00  0.00     0.189 HD
HETATM   23  C10 UNL     1       5.224  -5.522  52.896  1.00  0.00     0.191 A 
ATOM     24  H4  UNL     1       6.676  -6.141  51.513  1.00  0.00     0.189 HD
HETATM   25  O6  UNL     1       5.230  -5.607  54.200  1.00  0.00    -0.273 OA
BRANCH  23  26
HETATM   26  C11 UNL     1       4.193  -4.965  52.021  1.00  0.00     0.087 A 
HETATM   27  C12 UNL     1       4.087  -3.636  51.679  1.00  0.00     0.038 A 
HETATM   28  C13 UNL     1       2.997  -3.455  50.834  1.00  0.00     0.058 A 
HETATM   29  C14 UNL     1       2.459  -4.713  50.684  1.00  0.00     0.140 A 
HETATM   30  N5  UNL     1       3.191  -5.609  51.405  1.00  0.00    -0.334 N 
ATOM     31  H5  UNL     1       3.006  -6.610  51.466  1.00  0.00     0.168 HD
BRANCH  29  32
HETATM   32  O5  UNL     1       1.344  -5.076  49.929  1.00  0.00    -0.346 OA
ATOM     33  H5  UNL     1       0.690  -5.732  50.140  1.00  0.00     0.219 HD
ENDBRANCH  29  32
ENDBRANCH  23  26
ENDBRANCH  16  19
ENDBRANCH  15  16
ENDBRANCH  13  15
ENDBRANCH   1  13
BRANCH   1  34
HETATM   34  C15 UNL     1      11.043  -6.034  54.602  1.00  0.00     0.165 A 
HETATM   35  N6  UNL     1      11.836  -5.937  53.537  1.00  0.00    -0.267 N 
HETATM   36  N7  UNL     1      12.776  -5.054  53.745  1.00  0.00    -0.227 N 
ATOM     37  H6  UNL     1      11.725  -6.476  52.678  1.00  0.00     0.190 HD
HETATM   38  N8  UNL     1      12.614  -4.558  54.952  1.00  0.00    -0.227 N 
ATOM     39  H7  UNL     1      13.510  -4.794  53.086  1.00  0.00     0.210 HD
HETATM   40  N9  UNL     1      11.570  -5.135  55.494  1.00  0.00    -0.267 N 
ATOM     41  H8  UNL     1      13.200  -3.847  55.390  1.00  0.00     0.210 HD
ATOM     42  H9  UNL     1      11.208  -4.946  56.429  1.00  0.00     0.190 HD
ENDBRANCH   1  34
TORSDOF 11
ENDMDL
MODEL 3
REMARK VINA RESULT: -8.742293760      1.440      2.387
REMARK  11 active torsions:
REMARK  status: ('A' for Active; 'I' for Inactive)
REMARK    1  A    between atoms: N1_2  and  C1_4 
REMARK    2  A    between atoms: C4_7  and  O3_8 
REMARK    3  A    between atoms: C5_10  and  C6_11 
REMARK    4  A    between atoms: C6_11  and  N2_12 
REMARK    5  A    between atoms: C6_11  and  C15_33 
REMARK    6  A    between atoms: N2_12  and  C7_14 
REMARK    7  A    between atoms: C7_14  and  C8_15 
REMARK    8  A    between atoms: C8_15  and  O4_16 
REMARK    9  A    between atoms: C8_15  and  C9_18 
REMARK   10  A    between atoms: C10_23  and  C11_24 
REMARK   11  A    between atoms: C14_27  and  O5_28 
ROOT
HETATM    1  C6  UNL     1       6.727  -5.834  54.800  1.00  0.00     0.092 C 
ENDROOT
BRANCH   1   2
HETATM    2  C5  UNL     1       8.038  -6.549  54.579  1.00  0.00     0.030 A 
HETATM    3  C4  UNL     1       8.120  -7.911  54.376  1.00  0.00     0.078 A 
HETATM    4  C3  UNL     1       9.336  -8.545  54.161  1.00  0.00     0.040 A 
HETATM    5  C2  UNL     1      10.499  -7.830  54.144  1.00  0.00     0.039 A 
HETATM    6  C1  UNL     1      10.438  -6.481  54.344  1.00  0.00     0.103 A 
HETATM    7  C16 UNL     1       9.232  -5.856  54.556  1.00  0.00     0.052 A 
BRANCH   3   8
HETATM    8  O3  UNL     1       7.011  -8.738  54.373  1.00  0.00    -0.360 OA
ATOM      9  H3  UNL     1       6.684  -8.978  53.514  1.00  0.00     0.217 HD
ENDBRANCH   3   8
BRANCH   6  10
HETATM   10  N1  UNL     1      11.641  -5.736  54.328  1.00  0.00    -0.116 N 
HETATM   11  O1  UNL     1      12.071  -5.167  55.365  1.00  0.00    -0.532 OA
HETATM   12  O2  UNL     1      12.341  -5.642  53.151  1.00  0.00    -0.532 OA
ENDBRANCH   6  10
ENDBRANCH   1   2
BRANCH   1  13
HETATM   13  N2  UNL     1       5.776  -6.035  53.819  1.00  0.00    -0.363 N 
ATOM     14  H2  UNL     1       5.161  -6.840  53.938  1.00  0.00     0.165 HD
BRANCH  13  15
HETATM   15  C7  UNL     1       5.571  -5.264  52.698  1.00  0.00     0.101 C 
BRANCH  15  16
HETATM   16  C8  UNL     1       4.339  -4.407  52.631  1.00  0.00     0.232 C 
BRANCH  16  17
HETATM   17  O4  UNL     1       4.673  -3.066  52.351  1.00  0.00    -0.382 OA
ATOM     18  H4  UNL     1       4.098  -2.470  52.815  1.00  0.00     0.211 HD
ENDBRANCH  16  17
BRANCH  16  19
HETATM   19  C9  UNL     1       3.497  -4.804  51.431  1.00  0.00     0.174 A 
HETATM   20  N3  UNL     1       2.310  -5.443  51.470  1.00  0.00    -0.279 N 
HETATM   21  N4  UNL     1       1.948  -5.580  50.200  1.00  0.00    -0.276 N 
ATOM     22  H3  UNL     1       1.800  -5.754  52.298  1.00  0.00     0.189 HD
HETATM   23  C10 UNL     1       2.876  -5.045  49.391  1.00  0.00     0.191 A 
ATOM     24  H4  UNL     1       1.088  -6.028  49.883  1.00  0.00     0.189 HD
HETATM   25  O6  UNL     1       3.810  -4.579  50.177  1.00  0.00    -0.273 OA
BRANCH  23  26
HETATM   26  C11 UNL     1       2.811  -5.016  47.930  1.00  0.00     0.087 A 
HETATM   27  C12 UNL     1       3.871  -4.721  47.103  1.00  0.00     0.038 A 
HETATM   28  C13 UNL     1       3.460  -4.784  45.776  1.00  0.00     0.058 A 
HETATM   29  C14 UNL     1       2.128  -5.124  45.838  1.00  0.00     0.140 A 
HETATM   30  N5  UNL     1       1.754  -5.260  47.143  1.00  0.00    -0.334 N 
ATOM     31  H5  UNL     1       0.819  -5.508  47.467  1.00  0.00     0.168 HD
BRANCH  29  32
HETATM   32  O5  UNL     1       1.249  -5.315  44.773  1.00  0.00    -0.346 OA
ATOM     33  H5  UNL     1       0.658  -6.046  44.632  1.00  0.00     0.219 HD
ENDBRANCH  29  32
ENDBRANCH  23  26
ENDBRANCH  16  19
ENDBRANCH  15  16
ENDBRANCH  13  15
ENDBRANCH   1  13
BRANCH   1  34
HETATM   34  C15 UNL     1       6.358  -5.733  56.222  1.00  0.00     0.165 A 
HETATM   35  N6  UNL     1       7.042  -6.058  57.317  1.00  0.00    -0.267 N 
HETATM   36  N7  UNL     1       6.343  -5.794  58.389  1.00  0.00    -0.227 N 
ATOM     37  H6  UNL     1       7.980  -6.458  57.319  1.00  0.00     0.190 HD
HETATM   38  N8  UNL     1       5.188  -5.290  58.013  1.00  0.00    -0.227 N 
ATOM     39  H7  UNL     1       6.641  -5.952  59.352  1.00  0.00     0.210 HD
HETATM   40  N9  UNL     1       5.170  -5.241  56.704  1.00  0.00    -0.267 N 
ATOM     41  H8  UNL     1       4.437  -4.988  58.634  1.00  0.00     0.210 HD
ATOM     42  H9  UNL     1       4.398  -4.895  56.134  1.00  0.00     0.190 HD
ENDBRANCH   1  34
TORSDOF 11
ENDMDL
MODEL 4
REMARK VINA RESULT: -8.566987375      3.112      8.627
REMARK  11 active torsions:
REMARK  status: ('A' for Active; 'I' for Inactive)
REMARK    1  A    between atoms: N1_2  and  C1_4 
REMARK    2  A    between atoms: C4_7  and  O3_8 
REMARK    3  A    between atoms: C5_10  and  C6_11 
REMARK    4  A    between atoms: C6_11  and  N2_12 
REMARK    5  A    between atoms: C6_11  and  C15_33 
REMARK    6  A    between atoms: N2_12  and  C7_14 
REMARK    7  A    between atoms: C7_14  and  C8_15 
REMARK    8  A    between atoms: C8_15  and  O4_16 
REMARK    9  A    between atoms: C8_15  and  C9_18 
REMARK   10  A    between atoms: C10_23  and  C11_24 
REMARK   11  A    between atoms: C14_27  and  O5_28 
ROOT
HETATM    1  C6  UNL     1       4.944  -3.285  49.490  1.00  0.00     0.092 C 
ENDROOT
BRANCH   1   2
HETATM    2  C5  UNL     1       4.128  -3.948  48.408  1.00  0.00     0.030 A 
HETATM    3  C4  UNL     1       2.900  -4.529  48.649  1.00  0.00     0.078 A 
HETATM    4  C3  UNL     1       2.160  -5.121  47.635  1.00  0.00     0.040 A 
HETATM    5  C2  UNL     1       2.632  -5.147  46.355  1.00  0.00     0.039 A 
HETATM    6  C1  UNL     1       3.846  -4.578  46.096  1.00  0.00     0.103 A 
HETATM    7  C16 UNL     1       4.576  -3.992  47.103  1.00  0.00     0.052 A 
BRANCH   3   8
HETATM    8  O3  UNL     1       2.321  -4.566  49.905  1.00  0.00    -0.360 OA
ATOM      9  H3  UNL     1       2.679  -5.214  50.500  1.00  0.00     0.217 HD
ENDBRANCH   3   8
BRANCH   6  10
HETATM   10  N1  UNL     1       4.340  -4.602  44.770  1.00  0.00    -0.116 N 
HETATM   11  O1  UNL     1       4.183  -5.611  44.032  1.00  0.00    -0.532 OA
HETATM   12  O2  UNL     1       5.000  -3.498  44.293  1.00  0.00    -0.532 OA
ENDBRANCH   6  10
ENDBRANCH   1   2
BRANCH   1  13
HETATM   13  N2  UNL     1       4.551  -3.573  50.782  1.00  0.00    -0.363 N 
ATOM     14  H2  UNL     1       3.554  -3.496  50.984  1.00  0.00     0.165 HD
BRANCH  13  15
HETATM   15  C7  UNL     1       5.362  -3.953  51.826  1.00  0.00     0.101 C 
BRANCH  15  16
HETATM   16  C8  UNL     1       4.818  -4.909  52.848  1.00  0.00     0.232 C 
BRANCH  16  17
HETATM   17  O4  UNL     1       3.871  -5.779  52.269  1.00  0.00    -0.382 OA
ATOM     18  H4  UNL     1       4.297  -6.423  51.715  1.00  0.00     0.211 HD
ENDBRANCH  16  17
BRANCH  16  19
HETATM   19  C9  UNL     1       5.913  -5.858  53.305  1.00  0.00     0.174 A 
HETATM   20  N3  UNL     1       6.193  -6.192  54.581  1.00  0.00    -0.279 N 
HETATM   21  N4  UNL     1       7.216  -7.035  54.502  1.00  0.00    -0.276 N 
ATOM     22  H3  UNL     1       5.721  -5.866  55.425  1.00  0.00     0.189 HD
HETATM   23  C10 UNL     1       7.565  -7.225  53.220  1.00  0.00     0.191 A 
ATOM     24  H4  UNL     1       7.670  -7.477  55.302  1.00  0.00     0.189 HD
HETATM   25  O6  UNL     1       6.747  -6.489  52.514  1.00  0.00    -0.273 OA
BRANCH  23  26
HETATM   26  C11 UNL     1       8.650  -8.089  52.757  1.00  0.00     0.087 A 
HETATM   27  C12 UNL     1       9.420  -8.887  53.572  1.00  0.00     0.038 A 
HETATM   28  C13 UNL     1      10.356  -9.574  52.805  1.00  0.00     0.058 A 
HETATM   29  C14 UNL     1      10.120  -9.160  51.514  1.00  0.00     0.140 A 
HETATM   30  N5  UNL     1       9.090  -8.266  51.503  1.00  0.00    -0.334 N 
ATOM     31  H5  UNL     1       8.715  -7.806  50.674  1.00  0.00     0.168 HD
BRANCH  29  32
HETATM   32  O5  UNL     1      10.794  -9.555  50.358  1.00  0.00    -0.346 OA
ATOM     33  H5  UNL     1      10.553  -9.376  49.457  1.00  0.00     0.219 HD
ENDBRANCH  29  32
ENDBRANCH  23  26
ENDBRANCH  16  19
ENDBRANCH  15  16
ENDBRANCH  13  15
ENDBRANCH   1  13
BRANCH   1  34
HETATM   34  C15 UNL     1       6.365  -3.136  49.131  1.00  0.00     0.165 A 
HETATM   35  N6  UNL     1       7.386  -3.976  49.285  1.00  0.00    -0.267 N 
HETATM   36  N7  UNL     1       8.486  -3.450  48.816  1.00  0.00    -0.227 N 
ATOM     37  H6  UNL     1       7.320  -4.901  49.709  1.00  0.00     0.190 HD
HETATM   38  N8  UNL     1       8.202  -2.255  48.347  1.00  0.00    -0.227 N 
ATOM     39  H7  UNL     1       9.407  -3.889  48.814  1.00  0.00     0.210 HD
HETATM   40  N9  UNL     1       6.923  -2.038  48.525  1.00  0.00    -0.267 N 
ATOM     41  H8  UNL     1       8.865  -1.607  47.918  1.00  0.00     0.210 HD
ATOM     42  H9  UNL     1       6.422  -1.191  48.258  1.00  0.00     0.190 HD
ENDBRANCH   1  34
TORSDOF 11
ENDMDL
MODEL 5
REMARK VINA RESULT: -8.536836852      1.341      1.496
REMARK  11 active torsions:
REMARK  status: ('A' for Active; 'I' for Inactive)
REMARK    1  A    between atoms: N1_2  and  C1_4 
REMARK    2  A    between atoms: C4_7  and  O3_8 
REMARK    3  A    between atoms: C5_10  and  C6_11 
REMARK    4  A    between atoms: C6_11  and  N2_12 
REMARK    5  A    between atoms: C6_11  and  C15_33 
REMARK    6  A    between atoms: N2_12  and  C7_14 
REMARK    7  A    between atoms: C7_14  and  C8_15 
REMARK    8  A    between atoms: C8_15  and  O4_16 
REMARK    9  A    between atoms: C8_15  and  C9_18 
REMARK   10  A    between atoms: C10_23  and  C11_24 
REMARK   11  A    between atoms: C14_27  and  O5_28 
ROOT
HETATM    1  C6  UNL     1       6.709  -5.965  54.806  1.00  0.00     0.092 C 
ENDROOT
BRANCH   1   2
HETATM    2  C5  UNL     1       7.841  -6.948  54.639  1.00  0.00     0.030 A 
HETATM    3  C4  UNL     1       9.146  -6.647  54.970  1.00  0.00     0.078 A 
HETATM    4  C3  UNL     1      10.170  -7.573  54.820  1.00  0.00     0.040 A 
HETATM    5  C2  UNL     1       9.911  -8.822  54.335  1.00  0.00     0.039 A 
HETATM    6  C1  UNL     1       8.626  -9.139  54.001  1.00  0.00     0.103 A 
HETATM    7  C16 UNL     1       7.615  -8.220  54.151  1.00  0.00     0.052 A 
BRANCH   3   8
HETATM    8  O3  UNL     1       9.529  -5.414  55.468  1.00  0.00    -0.360 OA
ATOM      9  H3  UNL     1      10.162  -4.941  54.941  1.00  0.00     0.217 HD
ENDBRANCH   3   8
BRANCH   6  10
HETATM   10  N1  UNL     1       8.353 -10.433  53.497  1.00  0.00    -0.116 N 
HETATM   11  O1  UNL     1       8.049 -10.613  52.289  1.00  0.00    -0.532 OA
HETATM   12  O2  UNL     1       8.428 -11.502  54.355  1.00  0.00    -0.532 OA
ENDBRANCH   6  10
ENDBRANCH   1   2
BRANCH   1  13
HETATM   13  N2  UNL     1       5.774  -5.967  53.789  1.00  0.00    -0.363 N 
ATOM     14  H2  UNL     1       4.891  -6.439  53.982  1.00  0.00     0.165 HD
BRANCH  13  15
HETATM   15  C7  UNL     1       5.910  -5.400  52.543  1.00  0.00     0.101 C 
BRANCH  15  16
HETATM   16  C8  UNL     1       5.168  -4.128  52.249  1.00  0.00     0.232 C 
BRANCH  16  17
HETATM   17  O4  UNL     1       5.986  -3.003  52.479  1.00  0.00    -0.382 OA
ATOM     18  H4  UNL     1       5.461  -2.235  52.668  1.00  0.00     0.211 HD
ENDBRANCH  16  17
BRANCH  16  19
HETATM   19  C9  UNL     1       4.872  -4.033  50.762  1.00  0.00     0.174 A 
HETATM   20  N3  UNL     1       5.752  -3.692  49.798  1.00  0.00    -0.279 N 
HETATM   21  N4  UNL     1       5.060  -3.739  48.665  1.00  0.00    -0.276 N 
ATOM     22  H3  UNL     1       6.736  -3.449  49.914  1.00  0.00     0.189 HD
HETATM   23  C10 UNL     1       3.791  -4.098  48.910  1.00  0.00     0.191 A 
ATOM     24  H4  UNL     1       5.440  -3.533  47.741  1.00  0.00     0.189 HD
HETATM   25  O6  UNL     1       3.710  -4.270  50.203  1.00  0.00    -0.273 OA
BRANCH  23  26
HETATM   26  C11 UNL     1       2.744  -4.251  47.900  1.00  0.00     0.087 A 
HETATM   27  C12 UNL     1       2.839  -5.055  46.786  1.00  0.00     0.038 A 
HETATM   28  C13 UNL     1       1.668  -4.965  46.043  1.00  0.00     0.058 A 
HETATM   29  C14 UNL     1       0.875  -4.086  46.745  1.00  0.00     0.140 A 
HETATM   30  N5  UNL     1       1.539  -3.666  47.861  1.00  0.00    -0.334 N 
ATOM     31  H5  UNL     1       1.176  -3.012  48.554  1.00  0.00     0.168 HD
BRANCH  29  32
HETATM   32  O5  UNL     1      -0.411  -3.654  46.420  1.00  0.00    -0.346 OA
ATOM     33  H5  UNL     1      -1.156  -4.189  46.169  1.00  0.00     0.219 HD
ENDBRANCH  29  32
ENDBRANCH  23  26
ENDBRANCH  16  19
ENDBRANCH  15  16
ENDBRANCH  13  15
ENDBRANCH   1  13
BRANCH   1  34
HETATM   34  C15 UNL     1       6.317  -5.771  56.213  1.00  0.00     0.165 A 
HETATM   35  N6  UNL     1       6.976  -6.041  57.338  1.00  0.00    -0.267 N 
HETATM   36  N7  UNL     1       6.264  -5.700  58.379  1.00  0.00    -0.227 N 
ATOM     37  H6  UNL     1       7.906  -6.457  57.381  1.00  0.00     0.190 HD
HETATM   38  N8  UNL     1       5.126  -5.199  57.952  1.00  0.00    -0.227 N 
ATOM     39  H7  UNL     1       6.543  -5.804  59.354  1.00  0.00     0.210 HD
HETATM   40  N9  UNL     1       5.131  -5.229  56.642  1.00  0.00    -0.267 N 
ATOM     41  H8  UNL     1       4.370  -4.846  58.539  1.00  0.00     0.210 HD
ATOM     42  H9  UNL     1       4.376  -4.904  56.038  1.00  0.00     0.190 HD
ENDBRANCH   1  34
TORSDOF 11
ENDMDL
