MODEL 1
REMARK VINA RESULT: -6.593041283      0.000      0.000
REMARK  11 active torsions:
REMARK  status: ('A' for Active; 'I' for Inactive)
REMARK    1  A    between atoms: O1_3  and  C2_4 
REMARK    2  A    between atoms: C2_4  and  C3_6 
REMARK    3  A    between atoms: C3_6  and  C11_20 
REMARK    4  A    between atoms: C4_7  and  C5_8 
REMARK    5  A    between atoms: C7_10  and  N2_11 
REMARK    6  A    between atoms: C9_15  and  N3_16 
REMARK    7  A    between atoms: C11_20  and  O7_21 
REMARK    8  A    between atoms: C11_20  and  C12_23 
REMARK    9  A    between atoms: C13_24  and  C14_25 
REMARK   10  A    between atoms: C16_30  and  N6_31 
REMARK   11  A    between atoms: C17_36  and  N8_37 
ROOT
HETATM    1  N1  UNL     1       5.544  -4.606  58.583  1.00  0.00    -0.163 NA
HETATM    2  C1  UNL     1       5.887  -5.398  57.808  1.00  0.00     0.237 C 
HETATM    3  O1  UNL     1       6.289  -6.319  56.869  1.00  0.00    -0.200 OA
ENDROOT
BRANCH   3   4
HETATM    4  C2  UNL     1       7.019  -5.979  55.746  1.00  0.00     0.306 C 
HETATM    5  O2  UNL     1       8.199  -5.579  55.917  1.00  0.00    -0.258 OA
BRANCH   4   6
HETATM    6  C3  UNL     1       6.401  -6.097  54.439  1.00  0.00     0.051 C 
HETATM    7  C4  UNL     1       5.581  -5.178  54.032  1.00  0.00     0.027 C 
BRANCH   7   8
HETATM    8  C5  UNL     1       4.850  -5.074  52.796  1.00  0.00    -0.031 A 
HETATM    9  C6  UNL     1       5.326  -4.243  51.770  1.00  0.00     0.047 A 
HETATM   10  C7  UNL     1       4.631  -4.107  50.577  1.00  0.00     0.106 A 
HETATM   11  C8  UNL     1       3.451  -4.781  50.356  1.00  0.00     0.072 A 
HETATM   12  C9  UNL     1       2.976  -5.598  51.357  1.00  0.00     0.106 A 
HETATM   13  C10 UNL     1       3.677  -5.738  52.565  1.00  0.00     0.047 A 
BRANCH  10  14
HETATM   14  N2  UNL     1       5.134  -3.260  49.556  1.00  0.00    -0.116 N 
HETATM   15  O3  UNL     1       5.666  -2.163  49.872  1.00  0.00    -0.532 OA
HETATM   16  O4  UNL     1       5.033  -3.653  48.259  1.00  0.00    -0.532 OA
ENDBRANCH  10  14
BRANCH  12  17
HETATM   17  N3  UNL     1       1.757  -6.329  51.192  1.00  0.00    -0.116 N 
HETATM   18  O5  UNL     1       1.155  -6.259  50.098  1.00  0.00    -0.532 OA
HETATM   19  O6  UNL     1       1.246  -7.098  52.207  1.00  0.00    -0.532 OA
ENDBRANCH  12  17
ENDBRANCH   7   8
BRANCH   6  20
HETATM   20  C11 UNL     1       6.753  -7.253  53.608  1.00  0.00     0.180 C 
BRANCH  20  21
HETATM   21  O7  UNL     1       7.451  -6.707  52.484  1.00  0.00    -0.387 OA
ATOM     22  H7  UNL     1       8.012  -7.409  52.176  1.00  0.00     0.210 HD
ENDBRANCH  20  21
BRANCH  20  23
HETATM   23  C12 UNL     1       7.776  -8.153  54.277  1.00  0.00     0.010 C 
HETATM   24  C13 UNL     1       8.234  -9.197  53.664  1.00  0.00     0.017 C 
BRANCH  24  25
HETATM   25  C14 UNL     1       9.185 -10.198  54.051  1.00  0.00     0.050 A 
HETATM   26  C15 UNL     1      10.517 -10.085  53.616  1.00  0.00     0.145 A 
HETATM   27  N4  UNL     1      10.895  -8.979  52.788  1.00  0.00    -0.081 NA
HETATM   28  N5  UNL     1      11.409 -11.012  53.978  1.00  0.00    -0.178 N 
HETATM   29  C16 UNL     1      11.080 -12.060  54.749  1.00  0.00     0.678 A 
ATOM     30  H5  UNL     1      12.372 -10.920  53.658  1.00  0.00     0.185 HD
HETATM   31  N7  UNL     1       9.818 -12.172  55.164  1.00  0.00    -0.176 N 
HETATM   32  C17 UNL     1       8.849 -11.271  54.841  1.00  0.00     0.128 A 
ATOM     33  H7  UNL     1       9.567 -12.968  55.751  1.00  0.00     0.186 HD
BRANCH  29  34
HETATM   34  N6  UNL     1      11.945 -12.954  55.100  1.00  0.00    -0.234 N 
ATOM     35  H62 UNL     1      11.718 -13.942  54.991  1.00  0.00     0.174 HD
ATOM     36  H61 UNL     1      12.856 -12.705  55.488  1.00  0.00     0.174 HD
ENDBRANCH  29  34
BRANCH  32  37
HETATM   37  N8  UNL     1       7.673 -11.467  55.301  1.00  0.00    -0.384 N 
ATOM     38  H82 UNL     1       6.887 -11.054  54.798  1.00  0.00     0.157 HD
ATOM     39  H81 UNL     1       7.480 -12.018  56.137  1.00  0.00     0.157 HD
ENDBRANCH  32  37
ENDBRANCH  24  25
ENDBRANCH  20  23
ENDBRANCH   6  20
ENDBRANCH   4   6
ENDBRANCH   3   4
TORSDOF 11
ENDMDL
MODEL 2
REMARK VINA RESULT: -6.408061255      1.234      1.494
REMARK  11 active torsions:
REMARK  status: ('A' for Active; 'I' for Inactive)
REMARK    1  A    between atoms: O1_3  and  C2_4 
REMARK    2  A    between atoms: C2_4  and  C3_6 
REMARK    3  A    between atoms: C3_6  and  C11_20 
REMARK    4  A    between atoms: C4_7  and  C5_8 
REMARK    5  A    between atoms: C7_10  and  N2_11 
REMARK    6  A    between atoms: C9_15  and  N3_16 
REMARK    7  A    between atoms: C11_20  and  O7_21 
REMARK    8  A    between atoms: C11_20  and  C12_23 
REMARK    9  A    between atoms: C13_24  and  C14_25 
REMARK   10  A    between atoms: C16_30  and  N6_31 
REMARK   11  A    between atoms: C17_36  and  N8_37 
ROOT
HETATM    1  N1  UNL     1      10.533  -6.408  55.083  1.00  0.00    -0.163 NA
HETATM    2  C1  UNL     1       9.526  -5.879  55.308  1.00  0.00     0.237 C 
HETATM    3  O1  UNL     1       8.319  -5.268  55.554  1.00  0.00    -0.200 OA
ENDROOT
BRANCH   3   4
HETATM    4  C2  UNL     1       7.113  -5.943  55.527  1.00  0.00     0.306 C 
HETATM    5  O2  UNL     1       6.678  -6.403  56.614  1.00  0.00    -0.258 OA
BRANCH   4   6
HETATM    6  C3  UNL     1       6.415  -6.090  54.264  1.00  0.00     0.051 C 
HETATM    7  C4  UNL     1       5.621  -5.148  53.856  1.00  0.00     0.027 C 
BRANCH   7   8
HETATM    8  C5  UNL     1       4.826  -5.064  52.659  1.00  0.00    -0.031 A 
HETATM    9  C6  UNL     1       5.241  -4.241  51.601  1.00  0.00     0.047 A 
HETATM   10  C7  UNL     1       4.484  -4.124  50.444  1.00  0.00     0.106 A 
HETATM   11  C8  UNL     1       3.300  -4.810  50.292  1.00  0.00     0.072 A 
HETATM   12  C9  UNL     1       2.885  -5.619  51.325  1.00  0.00     0.106 A 
HETATM   13  C10 UNL     1       3.649  -5.740  52.497  1.00  0.00     0.047 A 
BRANCH  10  14
HETATM   14  N2  UNL     1       4.926  -3.285  49.389  1.00  0.00    -0.116 N 
HETATM   15  O3  UNL     1       5.540  -2.221  49.664  1.00  0.00    -0.532 OA
HETATM   16  O4  UNL     1       4.678  -3.650  48.104  1.00  0.00    -0.532 OA
ENDBRANCH  10  14
BRANCH  12  17
HETATM   17  N3  UNL     1       1.665  -6.362  51.233  1.00  0.00    -0.116 N 
HETATM   18  O5  UNL     1       1.001  -6.300  50.175  1.00  0.00    -0.532 OA
HETATM   19  O6  UNL     1       1.220  -7.133  52.277  1.00  0.00    -0.532 OA
ENDBRANCH  12  17
ENDBRANCH   7   8
BRANCH   6  20
HETATM   20  C11 UNL     1       6.658  -7.302  53.475  1.00  0.00     0.180 C 
BRANCH  20  21
HETATM   21  O7  UNL     1       7.465  -6.876  52.373  1.00  0.00    -0.387 OA
ATOM     22  H7  UNL     1       7.136  -6.015  52.144  1.00  0.00     0.210 HD
ENDBRANCH  20  21
BRANCH  20  23
HETATM   23  C12 UNL     1       7.533  -8.302  54.209  1.00  0.00     0.010 C 
HETATM   24  C13 UNL     1       8.306  -9.105  53.552  1.00  0.00     0.017 C 
BRANCH  24  25
HETATM   25  C14 UNL     1       9.218 -10.125  53.982  1.00  0.00     0.050 A 
HETATM   26  C15 UNL     1      10.568 -10.049  53.593  1.00  0.00     0.145 A 
HETATM   27  N4  UNL     1      11.002  -8.960  52.770  1.00  0.00    -0.081 NA
HETATM   28  N5  UNL     1      11.423 -10.994  53.995  1.00  0.00    -0.178 N 
HETATM   29  C16 UNL     1      11.041 -12.026  54.763  1.00  0.00     0.678 A 
ATOM     30  H5  UNL     1      12.399 -10.928  53.709  1.00  0.00     0.185 HD
HETATM   31  N7  UNL     1       9.763 -12.103  55.134  1.00  0.00    -0.176 N 
HETATM   32  C17 UNL     1       8.828 -11.182  54.769  1.00  0.00     0.128 A 
ATOM     33  H7  UNL     1       9.472 -12.887  55.718  1.00  0.00     0.186 HD
BRANCH  29  34
HETATM   34  N6  UNL     1      11.871 -12.937  55.152  1.00  0.00    -0.234 N 
ATOM     35  H62 UNL     1      11.840 -13.266  56.117  1.00  0.00     0.174 HD
ATOM     36  H61 UNL     1      12.565 -13.343  54.523  1.00  0.00     0.174 HD
ENDBRANCH  29  34
BRANCH  32  37
HETATM   37  N8  UNL     1       7.632 -11.344  55.189  1.00  0.00    -0.384 N 
ATOM     38  H82 UNL     1       7.476 -11.350  56.197  1.00  0.00     0.157 HD
ATOM     39  H81 UNL     1       6.830 -11.459  54.571  1.00  0.00     0.157 HD
ENDBRANCH  32  37
ENDBRANCH  24  25
ENDBRANCH  20  23
ENDBRANCH   6  20
ENDBRANCH   4   6
ENDBRANCH   3   4
TORSDOF 11
ENDMDL
MODEL 3
REMARK VINA RESULT: -6.390374964      0.113      2.667
REMARK  11 active torsions:
REMARK  status: ('A' for Active; 'I' for Inactive)
REMARK    1  A    between atoms: O1_3  and  C2_4 
REMARK    2  A    between atoms: C2_4  and  C3_6 
REMARK    3  A    between atoms: C3_6  and  C11_20 
REMARK    4  A    between atoms: C4_7  and  C5_8 
REMARK    5  A    between atoms: C7_10  and  N2_11 
REMARK    6  A    between atoms: C9_15  and  N3_16 
REMARK    7  A    between atoms: C11_20  and  O7_21 
REMARK    8  A    between atoms: C11_20  and  C12_23 
REMARK    9  A    between atoms: C13_24  and  C14_25 
REMARK   10  A    between atoms: C16_30  and  N6_31 
REMARK   11  A    between atoms: C17_36  and  N8_37 
ROOT
HETATM    1  N1  UNL     1       5.560  -4.711  58.600  1.00  0.00    -0.163 NA
HETATM    2  C1  UNL     1       5.888  -5.466  57.784  1.00  0.00     0.237 C 
HETATM    3  O1  UNL     1       6.272  -6.343  56.796  1.00  0.00    -0.200 OA
ENDROOT
BRANCH   3   4
HETATM    4  C2  UNL     1       6.989  -5.954  55.681  1.00  0.00     0.306 C 
HETATM    5  O2  UNL     1       8.160  -5.531  55.859  1.00  0.00    -0.258 OA
BRANCH   4   6
HETATM    6  C3  UNL     1       6.367  -6.047  54.373  1.00  0.00     0.051 C 
HETATM    7  C4  UNL     1       5.579  -5.101  53.968  1.00  0.00     0.027 C 
BRANCH   7   8
HETATM    8  C5  UNL     1       4.853  -4.969  52.732  1.00  0.00    -0.031 A 
HETATM    9  C6  UNL     1       3.648  -5.664  52.551  1.00  0.00     0.047 A 
HETATM   10  C7  UNL     1       2.938  -5.572  51.363  1.00  0.00     0.106 A 
HETATM   11  C8  UNL     1       3.389  -4.796  50.319  1.00  0.00     0.072 A 
HETATM   12  C9  UNL     1       4.570  -4.110  50.487  1.00  0.00     0.106 A 
HETATM   13  C10 UNL     1       5.291  -4.201  51.689  1.00  0.00     0.047 A 
BRANCH  10  14
HETATM   14  N2  UNL     1       1.722  -6.287  51.205  1.00  0.00    -0.116 N 
HETATM   15  O3  UNL     1       1.063  -6.153  50.141  1.00  0.00    -0.532 OA
HETATM   16  O4  UNL     1       1.298  -7.101  52.207  1.00  0.00    -0.532 OA
ENDBRANCH  10  14
BRANCH  12  17
HETATM   17  N3  UNL     1       5.095  -3.283  49.444  1.00  0.00    -0.116 N 
HETATM   18  O5  UNL     1       5.623  -2.191  49.748  1.00  0.00    -0.532 OA
HETATM   19  O6  UNL     1       5.029  -3.670  48.129  1.00  0.00    -0.532 OA
ENDBRANCH  12  17
ENDBRANCH   7   8
BRANCH   6  20
HETATM   20  C11 UNL     1       6.682  -7.212  53.539  1.00  0.00     0.180 C 
BRANCH  20  21
HETATM   21  O7  UNL     1       7.487  -6.702  52.472  1.00  0.00    -0.387 OA
ATOM     22  H7  UNL     1       7.515  -7.399  51.828  1.00  0.00     0.210 HD
ENDBRANCH  20  21
BRANCH  20  23
HETATM   23  C12 UNL     1       7.590  -8.200  54.248  1.00  0.00     0.010 C 
HETATM   24  C13 UNL     1       8.283  -9.059  53.570  1.00  0.00     0.017 C 
BRANCH  24  25
HETATM   25  C14 UNL     1       9.202 -10.083  53.974  1.00  0.00     0.050 A 
HETATM   26  C15 UNL     1      10.548  -9.994  53.579  1.00  0.00     0.145 A 
HETATM   27  N4  UNL     1      10.973  -8.887  52.775  1.00  0.00    -0.081 NA
HETATM   28  N5  UNL     1      11.409 -10.944  53.957  1.00  0.00    -0.178 N 
HETATM   29  C16 UNL     1      11.036 -11.993  54.706  1.00  0.00     0.678 A 
ATOM     30  H5  UNL     1      12.383 -10.868  53.666  1.00  0.00     0.185 HD
HETATM   31  N7  UNL     1       9.761 -12.082  55.083  1.00  0.00    -0.176 N 
HETATM   32  C17 UNL     1       8.820 -11.157  54.742  1.00  0.00     0.128 A 
ATOM     33  H7  UNL     1       9.476 -12.878  55.653  1.00  0.00     0.186 HD
BRANCH  29  34
HETATM   34  N6  UNL     1      11.872 -12.908  55.072  1.00  0.00    -0.234 N 
ATOM     35  H62 UNL     1      12.800 -12.639  55.399  1.00  0.00     0.174 HD
ATOM     36  H61 UNL     1      11.636 -13.900  55.044  1.00  0.00     0.174 HD
ENDBRANCH  29  34
BRANCH  32  37
HETATM   37  N8  UNL     1       7.627 -11.332  55.166  1.00  0.00    -0.384 N 
ATOM     38  H82 UNL     1       7.486 -11.427  56.172  1.00  0.00     0.157 HD
ATOM     39  H81 UNL     1       6.813 -11.374  54.554  1.00  0.00     0.157 HD
ENDBRANCH  32  37
ENDBRANCH  24  25
ENDBRANCH  20  23
ENDBRANCH   6  20
ENDBRANCH   4   6
ENDBRANCH   3   4
TORSDOF 11
ENDMDL
MODEL 4
REMARK VINA RESULT: -6.280193586      0.131      1.457
REMARK  11 active torsions:
REMARK  status: ('A' for Active; 'I' for Inactive)
REMARK    1  A    between atoms: O1_3  and  C2_4 
REMARK    2  A    between atoms: C2_4  and  C3_6 
REMARK    3  A    between atoms: C3_6  and  C11_20 
REMARK    4  A    between atoms: C4_7  and  C5_8 
REMARK    5  A    between atoms: C7_10  and  N2_11 
REMARK    6  A    between atoms: C9_15  and  N3_16 
REMARK    7  A    between atoms: C11_20  and  O7_21 
REMARK    8  A    between atoms: C11_20  and  C12_23 
REMARK    9  A    between atoms: C13_24  and  C14_25 
REMARK   10  A    between atoms: C16_30  and  N6_31 
REMARK   11  A    between atoms: C17_36  and  N8_37 
ROOT
HETATM    1  N1  UNL     1       5.550  -4.643  58.536  1.00  0.00    -0.163 NA
HETATM    2  C1  UNL     1       5.910  -5.426  57.759  1.00  0.00     0.237 C 
HETATM    3  O1  UNL     1       6.331  -6.335  56.817  1.00  0.00    -0.200 OA
ENDROOT
BRANCH   3   4
HETATM    4  C2  UNL     1       7.048  -5.976  55.692  1.00  0.00     0.306 C 
HETATM    5  O2  UNL     1       8.225  -5.566  55.858  1.00  0.00    -0.258 OA
BRANCH   4   6
HETATM    6  C3  UNL     1       6.419  -6.086  54.389  1.00  0.00     0.051 C 
HETATM    7  C4  UNL     1       5.587  -5.171  53.999  1.00  0.00     0.027 C 
BRANCH   7   8
HETATM    8  C5  UNL     1       4.844  -5.060  52.771  1.00  0.00    -0.031 A 
HETATM    9  C6  UNL     1       5.313  -4.228  51.743  1.00  0.00     0.047 A 
HETATM   10  C7  UNL     1       4.607  -4.086  50.557  1.00  0.00     0.106 A 
HETATM   11  C8  UNL     1       3.423  -4.755  50.345  1.00  0.00     0.072 A 
HETATM   12  C9  UNL     1       2.955  -5.574  51.348  1.00  0.00     0.106 A 
HETATM   13  C10 UNL     1       3.667  -5.719  52.550  1.00  0.00     0.047 A 
BRANCH  10  14
HETATM   14  N2  UNL     1       5.103  -3.237  49.534  1.00  0.00    -0.116 N 
HETATM   15  O3  UNL     1       5.595  -2.120  49.844  1.00  0.00    -0.532 OA
HETATM   16  O4  UNL     1       5.037  -3.650  48.241  1.00  0.00    -0.532 OA
ENDBRANCH  10  14
BRANCH  12  17
HETATM   17  N3  UNL     1       1.732  -6.300  51.193  1.00  0.00    -0.116 N 
HETATM   18  O5  UNL     1       1.112  -6.212  50.111  1.00  0.00    -0.532 OA
HETATM   19  O6  UNL     1       1.237  -7.084  52.205  1.00  0.00    -0.532 OA
ENDBRANCH  12  17
ENDBRANCH   7   8
BRANCH   6  20
HETATM   20  C11 UNL     1       6.776  -7.229  53.543  1.00  0.00     0.180 C 
BRANCH  20  21
HETATM   21  O7  UNL     1       7.274  -6.655  52.330  1.00  0.00    -0.387 OA
ATOM     22  H7  UNL     1       6.916  -7.196  51.635  1.00  0.00     0.210 HD
ENDBRANCH  20  21
BRANCH  20  23
HETATM   23  C12 UNL     1       7.955  -8.009  54.094  1.00  0.00     0.010 C 
HETATM   24  C13 UNL     1       8.141  -9.245  53.758  1.00  0.00     0.017 C 
BRANCH  24  25
HETATM   25  C14 UNL     1       9.150 -10.198  54.121  1.00  0.00     0.050 A 
HETATM   26  C15 UNL     1       8.782 -11.349  54.840  1.00  0.00     0.145 A 
HETATM   27  N4  UNL     1       7.410 -11.542  55.203  1.00  0.00    -0.081 NA
HETATM   28  N5  UNL     1       9.717 -12.242  55.176  1.00  0.00    -0.178 N 
HETATM   29  C16 UNL     1      11.010 -12.083  54.851  1.00  0.00     0.678 A 
ATOM     30  H5  UNL     1       9.439 -13.074  55.696  1.00  0.00     0.185 HD
HETATM   31  N7  UNL     1      11.363 -10.994  54.169  1.00  0.00    -0.176 N 
HETATM   32  C17 UNL     1      10.473 -10.035  53.788  1.00  0.00     0.128 A 
ATOM     33  H7  UNL     1      12.345 -10.872  53.922  1.00  0.00     0.186 HD
BRANCH  29  34
HETATM   34  N6  UNL     1      11.912 -12.950  55.176  1.00  0.00    -0.234 N 
ATOM     35  H62 UNL     1      11.813 -13.916  54.865  1.00  0.00     0.174 HD
ATOM     36  H61 UNL     1      12.725 -12.701  55.739  1.00  0.00     0.174 HD
ENDBRANCH  29  34
BRANCH  32  37
HETATM   37  N8  UNL     1      10.916  -9.036  53.127  1.00  0.00    -0.384 N 
ATOM     38  H82 UNL     1      10.888  -8.118  53.572  1.00  0.00     0.157 HD
ATOM     39  H81 UNL     1      11.302  -9.110  52.186  1.00  0.00     0.157 HD
ENDBRANCH  32  37
ENDBRANCH  24  25
ENDBRANCH  20  23
ENDBRANCH   6  20
ENDBRANCH   4   6
ENDBRANCH   3   4
TORSDOF 11
ENDMDL
MODEL 5
REMARK VINA RESULT: -6.271129225      1.256      3.060
REMARK  11 active torsions:
REMARK  status: ('A' for Active; 'I' for Inactive)
REMARK    1  A    between atoms: O1_3  and  C2_4 
REMARK    2  A    between atoms: C2_4  and  C3_6 
REMARK    3  A    between atoms: C3_6  and  C11_20 
REMARK    4  A    between atoms: C4_7  and  C5_8 
REMARK    5  A    between atoms: C7_10  and  N2_11 
REMARK    6  A    between atoms: C9_15  and  N3_16 
REMARK    7  A    between atoms: C11_20  and  O7_21 
REMARK    8  A    between atoms: C11_20  and  C12_23 
REMARK    9  A    between atoms: C13_24  and  C14_25 
REMARK   10  A    between atoms: C16_30  and  N6_31 
REMARK   11  A    between atoms: C17_36  and  N8_37 
ROOT
HETATM    1  N1  UNL     1      10.509  -6.458  55.058  1.00  0.00    -0.163 NA
HETATM    2  C1  UNL     1       9.513  -5.898  55.255  1.00  0.00     0.237 C 
HETATM    3  O1  UNL     1       8.319  -5.249  55.469  1.00  0.00    -0.200 OA
ENDROOT
BRANCH   3   4
HETATM    4  C2  UNL     1       7.097  -5.893  55.444  1.00  0.00     0.306 C 
HETATM    5  O2  UNL     1       6.645  -6.329  56.534  1.00  0.00    -0.258 OA
BRANCH   4   6
HETATM    6  C3  UNL     1       6.400  -6.037  54.179  1.00  0.00     0.051 C 
HETATM    7  C4  UNL     1       5.622  -5.086  53.764  1.00  0.00     0.027 C 
BRANCH   7   8
HETATM    8  C5  UNL     1       4.833  -4.997  52.563  1.00  0.00    -0.031 A 
HETATM    9  C6  UNL     1       3.623  -5.701  52.468  1.00  0.00     0.047 A 
HETATM   10  C7  UNL     1       2.852  -5.650  51.315  1.00  0.00     0.106 A 
HETATM   11  C8  UNL     1       3.246  -4.908  50.224  1.00  0.00     0.072 A 
HETATM   12  C9  UNL     1       4.432  -4.215  50.308  1.00  0.00     0.106 A 
HETATM   13  C10 UNL     1       5.214  -4.264  51.474  1.00  0.00     0.047 A 
BRANCH  10  14
HETATM   14  N2  UNL     1       1.632  -6.371  51.245  1.00  0.00    -0.116 N 
HETATM   15  O3  UNL     1       0.936  -6.304  50.198  1.00  0.00    -0.532 OA
HETATM   16  O4  UNL     1       1.243  -7.120  52.310  1.00  0.00    -0.532 OA
ENDBRANCH  10  14
BRANCH  12  17
HETATM   17  N3  UNL     1       4.899  -3.423  49.212  1.00  0.00    -0.116 N 
HETATM   18  O5  UNL     1       5.678  -2.472  49.444  1.00  0.00    -0.532 OA
HETATM   19  O6  UNL     1       4.511  -3.692  47.923  1.00  0.00    -0.532 OA
ENDBRANCH  12  17
ENDBRANCH   7   8
BRANCH   6  20
HETATM   20  C11 UNL     1       6.628  -7.257  53.398  1.00  0.00     0.180 C 
BRANCH  20  21
HETATM   21  O7  UNL     1       7.459  -6.852  52.306  1.00  0.00    -0.387 OA
ATOM     22  H7  UNL     1       7.134  -7.335  51.555  1.00  0.00     0.210 HD
ENDBRANCH  20  21
BRANCH  20  23
HETATM   23  C12 UNL     1       7.472  -8.272  54.148  1.00  0.00     0.010 C 
HETATM   24  C13 UNL     1       8.284  -9.052  53.509  1.00  0.00     0.017 C 
BRANCH  24  25
HETATM   25  C14 UNL     1       9.181 -10.078  53.956  1.00  0.00     0.050 A 
HETATM   26  C15 UNL     1      10.543  -9.998  53.616  1.00  0.00     0.145 A 
HETATM   27  N4  UNL     1      11.006  -8.898  52.823  1.00  0.00    -0.081 NA
HETATM   28  N5  UNL     1      11.383 -10.949  54.034  1.00  0.00    -0.178 N 
HETATM   29  C16 UNL     1      10.975 -11.991  54.774  1.00  0.00     0.678 A 
ATOM     30  H5  UNL     1      12.369 -10.880  53.783  1.00  0.00     0.185 HD
HETATM   31  N7  UNL     1       9.685 -12.072  55.099  1.00  0.00    -0.176 N 
HETATM   32  C17 UNL     1       8.763 -11.146  54.714  1.00  0.00     0.128 A 
ATOM     33  H7  UNL     1       9.373 -12.864  55.662  1.00  0.00     0.186 HD
BRANCH  29  34
HETATM   34  N6  UNL     1      11.790 -12.908  55.179  1.00  0.00    -0.234 N 
ATOM     35  H62 UNL     1      12.338 -13.431  54.495  1.00  0.00     0.174 HD
ATOM     36  H61 UNL     1      11.907 -13.132  56.168  1.00  0.00     0.174 HD
ENDBRANCH  29  34
BRANCH  32  37
HETATM   37  N8  UNL     1       7.553 -11.313  55.090  1.00  0.00    -0.384 N 
ATOM     38  H82 UNL     1       6.924 -11.816  54.465  1.00  0.00     0.157 HD
ATOM     39  H81 UNL     1       7.190 -10.977  55.982  1.00  0.00     0.157 HD
ENDBRANCH  32  37
ENDBRANCH  24  25
ENDBRANCH  20  23
ENDBRANCH   6  20
ENDBRANCH   4   6
ENDBRANCH   3   4
TORSDOF 11
ENDMDL
