MODEL 1
REMARK VINA RESULT: -8.432418601      0.000      0.000
REMARK  8 active torsions:
REMARK  status: ('A' for Active; 'I' for Inactive)
REMARK    1  A    between atoms: C2_2  and  C3_3 
REMARK    2  A    between atoms: C4_8  and  S1_9 
REMARK    3  A    between atoms: S1_9  and  C5_10 
REMARK    4  A    between atoms: C5_10  and  C6_11 
REMARK    5  A    between atoms: C6_11  and  N3_12 
REMARK    6  A    between atoms: N3_12  and  C9_15 
REMARK    7  A    between atoms: C9_15  and  C10_16 
REMARK    8  A    between atoms: N5_18  and  N6_20 
ROOT
HETATM    1  C5  UNL     1      -4.676  -6.576  -5.860  1.00  0.00     0.110 C 
ENDROOT
BRANCH   1   2
HETATM    2  S1  UNL     1      -4.998  -6.342  -7.613  1.00  0.00    -0.091 SA
BRANCH   2   3
HETATM    3  C4  UNL     1      -6.630  -6.882  -8.079  1.00  0.00     0.161 A 
HETATM    4  N2  UNL     1      -7.658  -7.026  -7.230  1.00  0.00    -0.279 N 
HETATM    5  N1  UNL     1      -8.874  -7.445  -7.601  1.00  0.00    -0.297 N 
ATOM      6  H2  UNL     1      -7.505  -6.803  -6.247  1.00  0.00     0.189 HD
HETATM    7  C3  UNL     1      -9.138  -7.754  -8.882  1.00  0.00     0.093 A 
ATOM      8  H1  UNL     1      -9.611  -7.532  -6.901  1.00  0.00     0.187 HD
HETATM    9  C12 UNL     1      -8.097  -7.614  -9.773  1.00  0.00     0.271 A 
HETATM   10  N9  UNL     1      -6.885  -7.192  -9.380  1.00  0.00    -0.301 N 
HETATM   11  O1  UNL     1      -8.348  -7.907 -10.984  1.00  0.00    -0.266 OA
ATOM     12  H9  UNL     1      -6.140  -7.102 -10.070  1.00  0.00     0.171 HD
BRANCH   7  13
HETATM   13  C2  UNL     1     -10.487  -8.223  -9.309  1.00  0.00     0.060 C 
HETATM   14  C1  UNL     1     -11.206  -9.001  -8.259  1.00  0.00     0.011 C 
ENDBRANCH   7  13
ENDBRANCH   2   3
ENDBRANCH   1   2
BRANCH   1  15
HETATM   15  C6  UNL     1      -3.552  -5.784  -5.312  1.00  0.00     0.247 C 
BRANCH  15  16
HETATM   16  N3  UNL     1      -2.428  -6.523  -4.791  1.00  0.00    -0.068 N 
HETATM   17  C7  UNL     1      -2.558  -6.403  -3.326  1.00  0.00     0.272 C 
HETATM   18  C8  UNL     1      -2.461  -7.935  -5.068  1.00  0.00     0.272 C 
BRANCH  16  19
HETATM   19  C9  UNL     1      -1.219  -5.900  -5.251  1.00  0.00     0.310 C 
BRANCH  19  20
HETATM   20  C10 UNL     1      -1.423  -4.886  -6.285  1.00  0.00     0.133 C 
HETATM   21  N4  UNL     1      -1.532  -5.148  -7.669  1.00  0.00    -0.084 NA
HETATM   22  N5  UNL     1      -1.515  -3.641  -5.913  1.00  0.00    -0.288 N 
ATOM     23  H5  UNL     1      -1.656  -2.924  -6.624  1.00  0.00     0.188 HD
BRANCH  22  24
HETATM   24  N6  UNL     1      -1.428  -3.260  -4.580  1.00  0.00    -0.275 N 
HETATM   25  C11 UNL     1      -1.693  -2.044  -4.260  1.00  0.00     0.215 C 
HETATM   26  N7  UNL     1      -1.600  -1.660  -2.884  1.00  0.00    -0.065 NA
HETATM   27  N8  UNL     1      -2.071  -1.059  -5.205  1.00  0.00    -0.065 NA
ATOM     28  H6  UNL     1      -1.157  -3.935  -3.865  1.00  0.00     0.189 HD
ENDBRANCH  22  24
ENDBRANCH  19  20
ENDBRANCH  16  19
ENDBRANCH  15  16
ENDBRANCH   1  15
TORSDOF 8
ENDMDL
MODEL 2
REMARK VINA RESULT: -8.431294837      1.554      2.143
REMARK  8 active torsions:
REMARK  status: ('A' for Active; 'I' for Inactive)
REMARK    1  A    between atoms: C2_2  and  C3_3 
REMARK    2  A    between atoms: C4_8  and  S1_9 
REMARK    3  A    between atoms: S1_9  and  C5_10 
REMARK    4  A    between atoms: C5_10  and  C6_11 
REMARK    5  A    between atoms: C6_11  and  N3_12 
REMARK    6  A    between atoms: N3_12  and  C9_15 
REMARK    7  A    between atoms: C9_15  and  C10_16 
REMARK    8  A    between atoms: N5_18  and  N6_20 
ROOT
HETATM    1  C5  UNL     1      -5.117  -6.654  -6.765  1.00  0.00     0.110 C 
ENDROOT
BRANCH   1   2
HETATM    2  S1  UNL     1      -5.161  -6.604  -8.560  1.00  0.00    -0.091 SA
BRANCH   2   3
HETATM    3  C4  UNL     1      -6.642  -7.341  -9.222  1.00  0.00     0.161 A 
HETATM    4  N2  UNL     1      -7.135  -7.098 -10.445  1.00  0.00    -0.279 N 
HETATM    5  N1  UNL     1      -8.257  -7.655 -10.917  1.00  0.00    -0.297 N 
ATOM      6  H2  UNL     1      -6.627  -6.452 -11.049  1.00  0.00     0.189 HD
HETATM    7  C3  UNL     1      -8.971  -8.512 -10.169  1.00  0.00     0.093 A 
ATOM      8  H1  UNL     1      -8.575  -7.424 -11.858  1.00  0.00     0.187 HD
HETATM    9  C12 UNL     1      -8.484  -8.778  -8.909  1.00  0.00     0.271 A 
HETATM   10  N9  UNL     1      -7.357  -8.209  -8.454  1.00  0.00    -0.301 N 
HETATM   11  O1  UNL     1      -9.161  -9.590  -8.202  1.00  0.00    -0.266 OA
ATOM     12  H9  UNL     1      -7.029  -8.432  -7.515  1.00  0.00     0.171 HD
BRANCH   7  13
HETATM   13  C2  UNL     1     -10.223  -9.139 -10.682  1.00  0.00     0.060 C 
HETATM   14  C1  UNL     1     -11.438  -8.302 -10.470  1.00  0.00     0.011 C 
ENDBRANCH   7  13
ENDBRANCH   2   3
ENDBRANCH   1   2
BRANCH   1  15
HETATM   15  C6  UNL     1      -4.329  -5.579  -6.120  1.00  0.00     0.247 C 
BRANCH  15  16
HETATM   16  N3  UNL     1      -2.958  -5.885  -5.792  1.00  0.00    -0.068 N 
HETATM   17  C7  UNL     1      -2.940  -7.351  -5.625  1.00  0.00     0.272 C 
HETATM   18  C8  UNL     1      -2.014  -5.603  -6.841  1.00  0.00     0.272 C 
BRANCH  16  19
HETATM   19  C9  UNL     1      -2.626  -5.225  -4.561  1.00  0.00     0.310 C 
BRANCH  19  20
HETATM   20  C10 UNL     1      -1.196  -4.973  -4.381  1.00  0.00     0.133 C 
HETATM   21  N4  UNL     1      -0.218  -5.970  -4.163  1.00  0.00    -0.084 NA
HETATM   22  N5  UNL     1      -0.780  -3.741  -4.428  1.00  0.00    -0.288 N 
ATOM     23  H5  UNL     1       0.215  -3.551  -4.304  1.00  0.00     0.188 HD
BRANCH  22  24
HETATM   24  N6  UNL     1      -1.646  -2.676  -4.641  1.00  0.00    -0.275 N 
HETATM   25  C11 UNL     1      -1.419  -1.558  -4.050  1.00  0.00     0.215 C 
HETATM   26  N7  UNL     1      -2.318  -0.466  -4.276  1.00  0.00    -0.065 NA
HETATM   27  N8  UNL     1      -0.321  -1.352  -3.179  1.00  0.00    -0.065 NA
ATOM     28  H6  UNL     1      -2.452  -2.779  -5.259  1.00  0.00     0.189 HD
ENDBRANCH  22  24
ENDBRANCH  19  20
ENDBRANCH  16  19
ENDBRANCH  15  16
ENDBRANCH   1  15
TORSDOF 8
ENDMDL
MODEL 3
REMARK VINA RESULT: -8.420640051      1.170      1.741
REMARK  8 active torsions:
REMARK  status: ('A' for Active; 'I' for Inactive)
REMARK    1  A    between atoms: C2_2  and  C3_3 
REMARK    2  A    between atoms: C4_8  and  S1_9 
REMARK    3  A    between atoms: S1_9  and  C5_10 
REMARK    4  A    between atoms: C5_10  and  C6_11 
REMARK    5  A    between atoms: C6_11  and  N3_12 
REMARK    6  A    between atoms: N3_12  and  C9_15 
REMARK    7  A    between atoms: C9_15  and  C10_16 
REMARK    8  A    between atoms: N5_18  and  N6_20 
ROOT
HETATM    1  C5  UNL     1      -5.024  -6.556  -6.681  1.00  0.00     0.110 C 
ENDROOT
BRANCH   1   2
HETATM    2  S1  UNL     1      -5.693  -6.645  -8.347  1.00  0.00    -0.091 SA
BRANCH   2   3
HETATM    3  C4  UNL     1      -7.380  -7.218  -8.369  1.00  0.00     0.161 A 
HETATM    4  N2  UNL     1      -8.207  -7.198  -7.313  1.00  0.00    -0.279 N 
HETATM    5  N1  UNL     1      -9.468  -7.645  -7.349  1.00  0.00    -0.297 N 
ATOM      6  H2  UNL     1      -7.854  -6.822  -6.433  1.00  0.00     0.189 HD
HETATM    7  C3  UNL     1      -9.989  -8.153  -8.479  1.00  0.00     0.093 A 
ATOM      8  H1  UNL     1     -10.041  -7.600  -6.507  1.00  0.00     0.187 HD
HETATM    9  C12 UNL     1      -9.158  -8.183  -9.577  1.00  0.00     0.271 A 
HETATM   10  N9  UNL     1      -7.897  -7.730  -9.519  1.00  0.00    -0.301 N 
HETATM   11  O1  UNL     1      -9.653  -8.664 -10.645  1.00  0.00    -0.266 OA
ATOM     12  H9  UNL     1      -7.313  -7.769 -10.355  1.00  0.00     0.171 HD
BRANCH   7  13
HETATM   13  C2  UNL     1     -11.392  -8.655  -8.533  1.00  0.00     0.060 C 
HETATM   14  C1  UNL     1     -11.545 -10.048  -8.024  1.00  0.00     0.011 C 
ENDBRANCH   7  13
ENDBRANCH   2   3
ENDBRANCH   1   2
BRANCH   1  15
HETATM   15  C6  UNL     1      -4.062  -5.457  -6.443  1.00  0.00     0.247 C 
BRANCH  15  16
HETATM   16  N3  UNL     1      -2.760  -5.828  -5.943  1.00  0.00    -0.068 N 
HETATM   17  C7  UNL     1      -2.844  -7.288  -5.752  1.00  0.00     0.272 C 
HETATM   18  C8  UNL     1      -1.681  -5.621  -6.874  1.00  0.00     0.272 C 
BRANCH  16  19
HETATM   19  C9  UNL     1      -2.544  -5.158  -4.692  1.00  0.00     0.310 C 
BRANCH  19  20
HETATM   20  C10 UNL     1      -1.136  -4.932  -4.368  1.00  0.00     0.133 C 
HETATM   21  N4  UNL     1      -0.207  -5.943  -4.033  1.00  0.00    -0.084 NA
HETATM   22  N5  UNL     1      -0.690  -3.709  -4.390  1.00  0.00    -0.288 N 
ATOM     23  H5  UNL     1       0.290  -3.537  -4.165  1.00  0.00     0.188 HD
BRANCH  22  24
HETATM   24  N6  UNL     1      -1.506  -2.631  -4.710  1.00  0.00    -0.275 N 
HETATM   25  C11 UNL     1      -1.496  -1.594  -3.951  1.00  0.00     0.215 C 
HETATM   26  N7  UNL     1      -2.341  -0.487  -4.289  1.00  0.00    -0.065 NA
HETATM   27  N8  UNL     1      -0.690  -1.491  -2.791  1.00  0.00    -0.065 NA
ATOM     28  H6  UNL     1      -2.105  -2.662  -5.535  1.00  0.00     0.189 HD
ENDBRANCH  22  24
ENDBRANCH  19  20
ENDBRANCH  16  19
ENDBRANCH  15  16
ENDBRANCH   1  15
TORSDOF 8
ENDMDL
MODEL 4
REMARK VINA RESULT: -8.369248761      1.308      1.746
REMARK  8 active torsions:
REMARK  status: ('A' for Active; 'I' for Inactive)
REMARK    1  A    between atoms: C2_2  and  C3_3 
REMARK    2  A    between atoms: C4_8  and  S1_9 
REMARK    3  A    between atoms: S1_9  and  C5_10 
REMARK    4  A    between atoms: C5_10  and  C6_11 
REMARK    5  A    between atoms: C6_11  and  N3_12 
REMARK    6  A    between atoms: N3_12  and  C9_15 
REMARK    7  A    between atoms: C9_15  and  C10_16 
REMARK    8  A    between atoms: N5_18  and  N6_20 
ROOT
HETATM    1  C5  UNL     1      -4.351  -6.823  -8.074  1.00  0.00     0.110 C 
ENDROOT
BRANCH   1   2
HETATM    2  S1  UNL     1      -5.622  -6.592  -9.323  1.00  0.00    -0.091 SA
BRANCH   2   3
HETATM    3  C4  UNL     1      -7.211  -7.200  -8.792  1.00  0.00     0.161 A 
HETATM    4  N2  UNL     1      -7.705  -7.064  -7.553  1.00  0.00    -0.279 N 
HETATM    5  N1  UNL     1      -8.897  -7.539  -7.173  1.00  0.00    -0.297 N 
ATOM      6  H2  UNL     1      -7.140  -6.570  -6.861  1.00  0.00     0.189 HD
HETATM    7  C3  UNL     1      -9.686  -8.198  -8.037  1.00  0.00     0.093 A 
ATOM      8  H1  UNL     1      -9.210  -7.400  -6.212  1.00  0.00     0.187 HD
HETATM    9  C12 UNL     1      -9.200  -8.350  -9.317  1.00  0.00     0.271 A 
HETATM   10  N9  UNL     1      -8.002  -7.866  -9.678  1.00  0.00    -0.301 N 
HETATM   11  O1  UNL     1      -9.948  -8.974 -10.134  1.00  0.00    -0.266 OA
ATOM     12  H9  UNL     1      -7.677  -7.999 -10.635  1.00  0.00     0.171 HD
BRANCH   7  13
HETATM   13  C2  UNL     1     -11.016  -8.733  -7.627  1.00  0.00     0.060 C 
HETATM   14  C1  UNL     1     -10.939 -10.053  -6.936  1.00  0.00     0.011 C 
ENDBRANCH   7  13
ENDBRANCH   2   3
ENDBRANCH   1   2
BRANCH   1  15
HETATM   15  C6  UNL     1      -4.015  -5.619  -7.282  1.00  0.00     0.247 C 
BRANCH  15  16
HETATM   16  N3  UNL     1      -3.189  -5.816  -6.116  1.00  0.00    -0.068 N 
HETATM   17  C7  UNL     1      -3.988  -5.267  -5.004  1.00  0.00     0.272 C 
HETATM   18  C8  UNL     1      -2.950  -7.194  -5.778  1.00  0.00     0.272 C 
BRANCH  16  19
HETATM   19  C9  UNL     1      -1.972  -5.073  -6.289  1.00  0.00     0.310 C 
BRANCH  19  20
HETATM   20  C10 UNL     1      -1.084  -5.098  -5.127  1.00  0.00     0.133 C 
HETATM   21  N4  UNL     1      -0.401  -6.240  -4.651  1.00  0.00    -0.084 NA
HETATM   22  N5  UNL     1      -0.898  -3.987  -4.474  1.00  0.00    -0.288 N 
ATOM     23  H5  UNL     1      -0.281  -3.990  -3.661  1.00  0.00     0.188 HD
BRANCH  22  24
HETATM   24  N6  UNL     1      -1.511  -2.798  -4.849  1.00  0.00    -0.275 N 
HETATM   25  C11 UNL     1      -1.677  -1.877  -3.969  1.00  0.00     0.215 C 
HETATM   26  N7  UNL     1      -2.310  -0.654  -4.364  1.00  0.00    -0.065 NA
HETATM   27  N8  UNL     1      -1.265  -2.011  -2.620  1.00  0.00    -0.065 NA
ATOM     28  H6  UNL     1      -1.826  -2.658  -5.809  1.00  0.00     0.189 HD
ENDBRANCH  22  24
ENDBRANCH  19  20
ENDBRANCH  16  19
ENDBRANCH  15  16
ENDBRANCH   1  15
TORSDOF 8
ENDMDL
MODEL 5
REMARK VINA RESULT: -8.305485954      1.924      3.532
REMARK  8 active torsions:
REMARK  status: ('A' for Active; 'I' for Inactive)
REMARK    1  A    between atoms: C2_2  and  C3_3 
REMARK    2  A    between atoms: C4_8  and  S1_9 
REMARK    3  A    between atoms: S1_9  and  C5_10 
REMARK    4  A    between atoms: C5_10  and  C6_11 
REMARK    5  A    between atoms: C6_11  and  N3_12 
REMARK    6  A    between atoms: N3_12  and  C9_15 
REMARK    7  A    between atoms: C9_15  and  C10_16 
REMARK    8  A    between atoms: N5_18  and  N6_20 
ROOT
HETATM    1  C5  UNL     1      -4.221  -6.824  -7.148  1.00  0.00     0.110 C 
ENDROOT
BRANCH   1   2
HETATM    2  S1  UNL     1      -5.146  -6.435  -8.638  1.00  0.00    -0.091 SA
BRANCH   2   3
HETATM    3  C4  UNL     1      -6.830  -7.012  -8.560  1.00  0.00     0.161 A 
HETATM    4  N2  UNL     1      -7.588  -7.007  -7.454  1.00  0.00    -0.279 N 
HETATM    5  N1  UNL     1      -8.847  -7.457  -7.415  1.00  0.00    -0.297 N 
ATOM      6  H2  UNL     1      -7.180  -6.641  -6.593  1.00  0.00     0.189 HD
HETATM    7  C3  UNL     1      -9.440  -7.952  -8.515  1.00  0.00     0.093 A 
ATOM      8  H1  UNL     1      -9.366  -7.424  -6.537  1.00  0.00     0.187 HD
HETATM    9  C12 UNL     1      -8.681  -7.967  -9.664  1.00  0.00     0.271 A 
HETATM   10  N9  UNL     1      -7.419  -7.511  -9.681  1.00  0.00    -0.301 N 
HETATM   11  O1  UNL     1      -9.242  -8.435 -10.705  1.00  0.00    -0.266 OA
ATOM     12  H9  UNL     1      -6.890  -7.539 -10.553  1.00  0.00     0.171 HD
BRANCH   7  13
HETATM   13  C2  UNL     1     -10.842  -8.457  -8.486  1.00  0.00     0.060 C 
HETATM   14  C1  UNL     1     -11.013  -9.691  -7.667  1.00  0.00     0.011 C 
ENDBRANCH   7  13
ENDBRANCH   2   3
ENDBRANCH   1   2
BRANCH   1  15
HETATM   15  C6  UNL     1      -4.349  -5.841  -6.048  1.00  0.00     0.247 C 
BRANCH  15  16
HETATM   16  N3  UNL     1      -3.139  -5.486  -5.348  1.00  0.00    -0.068 N 
HETATM   17  C7  UNL     1      -2.857  -4.104  -5.782  1.00  0.00     0.272 C 
HETATM   18  C8  UNL     1      -3.274  -5.422  -3.916  1.00  0.00     0.272 C 
BRANCH  16  19
HETATM   19  C9  UNL     1      -2.093  -6.378  -5.763  1.00  0.00     0.310 C 
BRANCH  19  20
HETATM   20  C10 UNL     1      -0.935  -6.401  -4.871  1.00  0.00     0.133 C 
HETATM   21  N4  UNL     1      -0.064  -5.311  -4.643  1.00  0.00    -0.084 NA
HETATM   22  N5  UNL     1      -0.677  -7.504  -4.229  1.00  0.00    -0.288 N 
ATOM     23  H5  UNL     1       0.129  -7.534  -3.604  1.00  0.00     0.188 HD
BRANCH  22  24
HETATM   24  N6  UNL     1      -1.464  -8.641  -4.368  1.00  0.00    -0.275 N 
HETATM   25  C11 UNL     1      -2.089  -9.096  -3.343  1.00  0.00     0.215 C 
HETATM   26  N7  UNL     1      -2.897 -10.268  -3.495  1.00  0.00    -0.065 NA
HETATM   27  N8  UNL     1      -2.017  -8.496  -2.062  1.00  0.00    -0.065 NA
ATOM     28  H6  UNL     1      -1.543  -9.108  -5.271  1.00  0.00     0.189 HD
ENDBRANCH  22  24
ENDBRANCH  19  20
ENDBRANCH  16  19
ENDBRANCH  15  16
ENDBRANCH   1  15
TORSDOF 8
ENDMDL
