MODEL 1
REMARK VINA RESULT: -8.335572797      0.000      0.000
REMARK  10 active torsions:
REMARK  status: ('A' for Active; 'I' for Inactive)
REMARK    1  A    between atoms: N1_1  and  C1_5 
REMARK    2  A    between atoms: C1_5  and  C2_6 
REMARK    3  A    between atoms: C2_6  and  C3_7 
REMARK    4  A    between atoms: C4_8  and  C5_9 
REMARK    5  A    between atoms: N2_10  and  C6_12 
REMARK    6  A    between atoms: C6_12  and  C7_13 
REMARK    7  A    between atoms: C7_13  and  C8_14 
REMARK    8  A    between atoms: C8_14  and  N3_15 
REMARK    9  A    between atoms: N3_15  and  C9_18 
REMARK   10  A    between atoms: C16_30  and  O1_31 
ROOT
HETATM    1  N3  UNL     1      -6.906  -6.411  -8.543  1.00  0.00    -0.043 N 
ATOM      2  H31 UNL     1      -7.442  -5.705  -8.037  1.00  0.00     0.279 HD
ATOM      3  H32 UNL     1      -6.491  -5.811  -9.255  1.00  0.00     0.279 HD
ENDROOT
BRANCH   1   4
HETATM    4  C8  UNL     1      -7.748  -7.391  -9.114  1.00  0.00     0.236 C 
BRANCH   4   5
HETATM    5  C7  UNL     1      -7.317  -7.973 -10.418  1.00  0.00     0.047 C 
BRANCH   5   6
HETATM    6  C6  UNL     1      -8.289  -9.050 -10.888  1.00  0.00     0.120 C 
BRANCH   6   7
HETATM    7  N2  UNL     1      -9.441  -8.449 -11.519  1.00  0.00    -0.399 N 
HETATM    8  C5  UNL     1     -10.647  -8.527 -11.132  1.00  0.00     0.082 C 
ATOM      9  H2  UNL     1      -9.267  -7.904 -12.365  1.00  0.00     0.158 HD
BRANCH   8  10
HETATM   10  C4  UNL     1     -11.122  -9.247  -9.957  1.00  0.00     0.013 C 
HETATM   11  C3  UNL     1     -11.281  -8.618  -8.813  1.00  0.00    -0.024 C 
BRANCH  11  12
HETATM   12  C2  UNL     1     -11.764  -9.369  -7.632  1.00  0.00     0.054 C 
BRANCH  12  13
HETATM   13  C1  UNL     1     -10.732  -9.326  -6.517  1.00  0.00     0.233 C 
BRANCH  13  14
HETATM   14  N1  UNL     1     -10.119  -8.011  -6.551  1.00  0.00    -0.079 N 
ATOM     15  H13 UNL     1      -9.140  -8.019  -6.262  1.00  0.00     0.274 HD
ATOM     16  H12 UNL     1      -9.974  -7.663  -7.498  1.00  0.00     0.274 HD
ATOM     17  H11 UNL     1     -10.698  -7.393  -5.982  1.00  0.00     0.274 HD
ENDBRANCH  13  14
ENDBRANCH  12  13
ENDBRANCH  11  12
ENDBRANCH   8  10
ENDBRANCH   6   7
ENDBRANCH   5   6
ENDBRANCH   4   5
ENDBRANCH   1   4
BRANCH   1  18
HETATM   18  C9  UNL     1      -5.891  -7.019  -7.698  1.00  0.00     0.411 C 
HETATM   19  N4  UNL     1      -5.753  -6.300  -6.453  1.00  0.00    -0.037 N 
HETATM   20  C10 UNL     1      -4.461  -6.711  -5.965  1.00  0.00     0.225 C 
ATOM     21  H42 UNL     1      -5.871  -5.290  -6.534  1.00  0.00     0.280 HD
ATOM     22  H41 UNL     1      -6.519  -6.446  -5.795  1.00  0.00     0.280 HD
HETATM   23  C11 UNL     1      -3.921  -5.607  -5.080  1.00  0.00     0.308 C 
HETATM   24  C15 UNL     1      -3.607  -7.029  -7.140  1.00  0.00     0.079 C 
HETATM   25  N5  UNL     1      -2.744  -5.983  -4.365  1.00  0.00     0.120 N 
HETATM   26  C12 UNL     1      -1.869  -4.801  -4.271  1.00  0.00     0.304 C 
HETATM   27  C17 UNL     1      -1.870  -6.879  -5.108  1.00  0.00     0.542 C 
HETATM   28  C13 UNL     1      -1.372  -4.723  -5.687  1.00  0.00     0.304 C 
HETATM   29  N6  UNL     1      -1.516  -6.075  -6.235  1.00  0.00     0.118 N 
HETATM   30  C14 UNL     1      -2.429  -6.099  -7.327  1.00  0.00     0.284 C 
HETATM   31  C16 UNL     1      -4.524  -6.858  -8.319  1.00  0.00     0.184 C 
BRANCH  31  32
HETATM   32  O1  UNL     1      -4.447  -5.593  -8.893  1.00  0.00    -0.391 OA
ATOM     33  H1  UNL     1      -4.351  -4.952  -8.200  1.00  0.00     0.210 HD
ENDBRANCH  31  32
ENDBRANCH   1  18
TORSDOF 10
ENDMDL
MODEL 2
REMARK VINA RESULT: -8.187421999      2.931      4.892
REMARK  10 active torsions:
REMARK  status: ('A' for Active; 'I' for Inactive)
REMARK    1  A    between atoms: N1_1  and  C1_5 
REMARK    2  A    between atoms: C1_5  and  C2_6 
REMARK    3  A    between atoms: C2_6  and  C3_7 
REMARK    4  A    between atoms: C4_8  and  C5_9 
REMARK    5  A    between atoms: N2_10  and  C6_12 
REMARK    6  A    between atoms: C6_12  and  C7_13 
REMARK    7  A    between atoms: C7_13  and  C8_14 
REMARK    8  A    between atoms: C8_14  and  N3_15 
REMARK    9  A    between atoms: N3_15  and  C9_18 
REMARK   10  A    between atoms: C16_30  and  O1_31 
ROOT
HETATM    1  N3  UNL     1      -2.150  -4.759  -7.059  1.00  0.00    -0.043 N 
ATOM      2  H31 UNL     1      -1.802  -4.011  -7.659  1.00  0.00     0.279 HD
ATOM      3  H32 UNL     1      -1.351  -5.390  -7.119  1.00  0.00     0.279 HD
ENDROOT
BRANCH   1   4
HETATM    4  C8  UNL     1      -3.318  -5.349  -7.588  1.00  0.00     0.236 C 
BRANCH   4   5
HETATM    5  C7  UNL     1      -4.340  -5.820  -6.608  1.00  0.00     0.047 C 
BRANCH   5   6
HETATM    6  C6  UNL     1      -5.471  -6.566  -7.307  1.00  0.00     0.120 C 
BRANCH   6   7
HETATM    7  N2  UNL     1      -5.151  -6.777  -8.700  1.00  0.00    -0.399 N 
HETATM    8  C5  UNL     1      -5.974  -6.903  -9.658  1.00  0.00     0.082 C 
ATOM      9  H2  UNL     1      -4.160  -6.831  -8.938  1.00  0.00     0.158 HD
BRANCH   8  10
HETATM   10  C4  UNL     1      -7.427  -6.858  -9.549  1.00  0.00     0.013 C 
HETATM   11  C3  UNL     1      -8.113  -7.966  -9.370  1.00  0.00    -0.024 C 
BRANCH  11  12
HETATM   12  C2  UNL     1      -9.588  -7.897  -9.262  1.00  0.00     0.054 C 
BRANCH  12  13
HETATM   13  C1  UNL     1     -10.050  -8.473  -7.933  1.00  0.00     0.233 C 
BRANCH  13  14
HETATM   14  N1  UNL     1      -9.726  -7.498  -6.908  1.00  0.00    -0.079 N 
ATOM     15  H13 UNL     1      -8.723  -7.399  -6.753  1.00  0.00     0.274 HD
ATOM     16  H12 UNL     1      -9.910  -6.538  -7.198  1.00  0.00     0.274 HD
ATOM     17  H11 UNL     1     -10.235  -7.766  -6.066  1.00  0.00     0.274 HD
ENDBRANCH  13  14
ENDBRANCH  12  13
ENDBRANCH  11  12
ENDBRANCH   8  10
ENDBRANCH   6   7
ENDBRANCH   5   6
ENDBRANCH   4   5
ENDBRANCH   1   4
BRANCH   1  18
HETATM   18  C9  UNL     1      -2.365  -4.298  -5.697  1.00  0.00     0.411 C 
HETATM   19  N4  UNL     1      -2.109  -2.882  -5.583  1.00  0.00    -0.037 N 
HETATM   20  C10 UNL     1      -1.913  -2.684  -4.169  1.00  0.00     0.225 C 
ATOM     21  H42 UNL     1      -1.344  -2.543  -6.166  1.00  0.00     0.280 HD
ATOM     22  H41 UNL     1      -2.830  -2.288  -5.996  1.00  0.00     0.280 HD
HETATM   23  C11 UNL     1      -1.030  -1.469  -3.983  1.00  0.00     0.308 C 
HETATM   24  C15 UNL     1      -1.354  -3.941  -3.605  1.00  0.00     0.079 C 
HETATM   25  N5  UNL     1      -0.936  -1.043  -2.623  1.00  0.00     0.120 N 
HETATM   26  C12 UNL     1       0.431  -0.541  -2.395  1.00  0.00     0.304 C 
HETATM   27  C17 UNL     1      -0.959  -2.139  -1.665  1.00  0.00     0.542 C 
HETATM   28  C13 UNL     1       1.192  -1.835  -2.378  1.00  0.00     0.304 C 
HETATM   29  N6  UNL     1       0.214  -2.870  -2.026  1.00  0.00     0.118 N 
HETATM   30  C14 UNL     1       0.058  -3.817  -3.077  1.00  0.00     0.284 C 
HETATM   31  C16 UNL     1      -1.330  -4.890  -4.771  1.00  0.00     0.184 C 
BRANCH  31  32
HETATM   32  O1  UNL     1      -0.107  -4.913  -5.433  1.00  0.00    -0.391 OA
ATOM     33  H1  UNL     1       0.139  -4.021  -5.643  1.00  0.00     0.210 HD
ENDBRANCH  31  32
ENDBRANCH   1  18
TORSDOF 10
ENDMDL
MODEL 3
REMARK VINA RESULT: -8.034598049      1.970      3.277
REMARK  10 active torsions:
REMARK  status: ('A' for Active; 'I' for Inactive)
REMARK    1  A    between atoms: N1_1  and  C1_5 
REMARK    2  A    between atoms: C1_5  and  C2_6 
REMARK    3  A    between atoms: C2_6  and  C3_7 
REMARK    4  A    between atoms: C4_8  and  C5_9 
REMARK    5  A    between atoms: N2_10  and  C6_12 
REMARK    6  A    between atoms: C6_12  and  C7_13 
REMARK    7  A    between atoms: C7_13  and  C8_14 
REMARK    8  A    between atoms: C8_14  and  N3_15 
REMARK    9  A    between atoms: N3_15  and  C9_18 
REMARK   10  A    between atoms: C16_30  and  O1_31 
ROOT
HETATM    1  N3  UNL     1      -2.819  -5.219  -7.954  1.00  0.00    -0.043 N 
ATOM      2  H31 UNL     1      -2.589  -4.225  -7.930  1.00  0.00     0.279 HD
ATOM      3  H32 UNL     1      -2.000  -5.556  -8.459  1.00  0.00     0.279 HD
ENDROOT
BRANCH   1   4
HETATM    4  C8  UNL     1      -4.009  -5.459  -8.676  1.00  0.00     0.236 C 
BRANCH   4   5
HETATM    5  C7  UNL     1      -4.652  -6.794  -8.492  1.00  0.00     0.047 C 
BRANCH   5   6
HETATM    6  C6  UNL     1      -6.123  -6.755  -8.890  1.00  0.00     0.120 C 
BRANCH   6   7
HETATM    7  N2  UNL     1      -6.304  -7.317 -10.209  1.00  0.00    -0.399 N 
HETATM    8  C5  UNL     1      -7.232  -8.098 -10.582  1.00  0.00     0.082 C 
ATOM      9  H2  UNL     1      -5.613  -7.060 -10.914  1.00  0.00     0.158 HD
BRANCH   8  10
HETATM   10  C4  UNL     1      -8.320  -8.592  -9.747  1.00  0.00     0.013 C 
HETATM   11  C3  UNL     1      -9.499  -8.009  -9.780  1.00  0.00    -0.024 C 
BRANCH  11  12
HETATM   12  C2  UNL     1     -10.590  -8.527  -8.923  1.00  0.00     0.054 C 
BRANCH  12  13
HETATM   13  C1  UNL     1     -10.096  -8.732  -7.500  1.00  0.00     0.233 C 
BRANCH  13  14
HETATM   14  N1  UNL     1      -9.963  -7.419  -6.899  1.00  0.00    -0.079 N 
ATOM     15  H13 UNL     1      -8.999  -7.184  -6.659  1.00  0.00     0.274 HD
ATOM     16  H12 UNL     1     -10.123  -6.659  -7.560  1.00  0.00     0.274 HD
ATOM     17  H11 UNL     1     -10.592  -7.390  -6.096  1.00  0.00     0.274 HD
ENDBRANCH  13  14
ENDBRANCH  12  13
ENDBRANCH  11  12
ENDBRANCH   8  10
ENDBRANCH   6   7
ENDBRANCH   5   6
ENDBRANCH   4   5
ENDBRANCH   1   4
BRANCH   1  18
HETATM   18  C9  UNL     1      -2.893  -5.784  -6.617  1.00  0.00     0.411 C 
HETATM   19  N4  UNL     1      -3.401  -4.817  -5.673  1.00  0.00    -0.037 N 
HETATM   20  C10 UNL     1      -2.989  -5.340  -4.395  1.00  0.00     0.225 C 
ATOM     21  H42 UNL     1      -3.105  -3.858  -5.851  1.00  0.00     0.280 HD
ATOM     22  H41 UNL     1      -4.402  -4.637  -5.751  1.00  0.00     0.280 HD
HETATM   23  C11 UNL     1      -2.864  -4.179  -3.431  1.00  0.00     0.308 C 
HETATM   24  C15 UNL     1      -1.731  -6.107  -4.598  1.00  0.00     0.079 C 
HETATM   25  N5  UNL     1      -2.668  -4.589  -2.077  1.00  0.00     0.120 N 
HETATM   26  C12 UNL     1      -1.765  -3.620  -1.432  1.00  0.00     0.304 C 
HETATM   27  C17 UNL     1      -1.869  -5.799  -1.942  1.00  0.00     0.542 C 
HETATM   28  C13 UNL     1      -0.461  -4.002  -2.073  1.00  0.00     0.304 C 
HETATM   29  N6  UNL     1      -0.623  -5.392  -2.511  1.00  0.00     0.118 N 
HETATM   30  C14 UNL     1      -0.516  -5.508  -3.925  1.00  0.00     0.284 C 
HETATM   31  C16 UNL     1      -1.507  -6.060  -6.084  1.00  0.00     0.184 C 
BRANCH  31  32
HETATM   32  O1  UNL     1      -0.669  -5.023  -6.479  1.00  0.00    -0.391 OA
ATOM     33  H1  UNL     1       0.168  -5.392  -6.735  1.00  0.00     0.210 HD
ENDBRANCH  31  32
ENDBRANCH   1  18
TORSDOF 10
ENDMDL
MODEL 4
REMARK VINA RESULT: -8.017928990      1.148      1.305
REMARK  10 active torsions:
REMARK  status: ('A' for Active; 'I' for Inactive)
REMARK    1  A    between atoms: N1_1  and  C1_5 
REMARK    2  A    between atoms: C1_5  and  C2_6 
REMARK    3  A    between atoms: C2_6  and  C3_7 
REMARK    4  A    between atoms: C4_8  and  C5_9 
REMARK    5  A    between atoms: N2_10  and  C6_12 
REMARK    6  A    between atoms: C6_12  and  C7_13 
REMARK    7  A    between atoms: C7_13  and  C8_14 
REMARK    8  A    between atoms: C8_14  and  N3_15 
REMARK    9  A    between atoms: N3_15  and  C9_18 
REMARK   10  A    between atoms: C16_30  and  O1_31 
ROOT
HETATM    1  N3  UNL     1      -6.204  -6.627  -8.993  1.00  0.00    -0.043 N 
ATOM      2  H31 UNL     1      -6.164  -5.620  -9.148  1.00  0.00     0.279 HD
ATOM      3  H32 UNL     1      -6.001  -6.939  -9.943  1.00  0.00     0.279 HD
ENDROOT
BRANCH   1   4
HETATM    4  C8  UNL     1      -7.488  -7.038  -8.575  1.00  0.00     0.236 C 
BRANCH   4   5
HETATM    5  C7  UNL     1      -7.833  -8.478  -8.767  1.00  0.00     0.047 C 
BRANCH   5   6
HETATM    6  C6  UNL     1      -7.715  -8.880 -10.233  1.00  0.00     0.120 C 
BRANCH   6   7
HETATM    7  N2  UNL     1      -8.365  -7.905 -11.078  1.00  0.00    -0.399 N 
HETATM    8  C5  UNL     1      -9.578  -7.911 -11.452  1.00  0.00     0.082 C 
ATOM      9  H2  UNL     1      -7.789  -7.130 -11.409  1.00  0.00     0.158 HD
BRANCH   8  10
HETATM   10  C4  UNL     1     -10.576  -8.914 -11.100  1.00  0.00     0.013 C 
HETATM   11  C3  UNL     1     -11.561  -8.611 -10.282  1.00  0.00    -0.024 C 
BRANCH  11  12
HETATM   12  C2  UNL     1     -12.564  -9.644  -9.938  1.00  0.00     0.054 C 
BRANCH  12  13
HETATM   13  C1  UNL     1     -12.409 -10.070  -8.487  1.00  0.00     0.233 C 
BRANCH  13  14
HETATM   14  N1  UNL     1     -12.676  -8.904  -7.666  1.00  0.00    -0.079 N 
ATOM     15  H13 UNL     1     -13.671  -8.695  -7.580  1.00  0.00     0.274 HD
ATOM     16  H12 UNL     1     -12.488  -9.061  -6.676  1.00  0.00     0.274 HD
ATOM     17  H11 UNL     1     -12.139  -8.130  -8.057  1.00  0.00     0.274 HD
ENDBRANCH  13  14
ENDBRANCH  12  13
ENDBRANCH  11  12
ENDBRANCH   8  10
ENDBRANCH   6   7
ENDBRANCH   5   6
ENDBRANCH   4   5
ENDBRANCH   1   4
BRANCH   1  18
HETATM   18  C9  UNL     1      -5.182  -7.065  -8.056  1.00  0.00     0.411 C 
HETATM   19  N4  UNL     1      -5.418  -6.521  -6.740  1.00  0.00    -0.037 N 
HETATM   20  C10 UNL     1      -4.140  -6.649  -6.085  1.00  0.00     0.225 C 
ATOM     21  H42 UNL     1      -5.801  -5.576  -6.736  1.00  0.00     0.280 HD
ATOM     22  H41 UNL     1      -6.194  -6.954  -6.238  1.00  0.00     0.280 HD
HETATM   23  C11 UNL     1      -4.053  -5.581  -5.015  1.00  0.00     0.308 C 
HETATM   24  C15 UNL     1      -3.082  -6.562  -7.126  1.00  0.00     0.079 C 
HETATM   25  N5  UNL     1      -2.924  -5.737  -4.154  1.00  0.00     0.120 N 
HETATM   26  C12 UNL     1      -2.434  -4.394  -3.796  1.00  0.00     0.304 C 
HETATM   27  C17 UNL     1      -1.743  -6.259  -4.828  1.00  0.00     0.542 C 
HETATM   28  C13 UNL     1      -1.793  -3.988  -5.092  1.00  0.00     0.304 C 
HETATM   29  N6  UNL     1      -1.480  -5.238  -5.792  1.00  0.00     0.118 N 
HETATM   30  C14 UNL     1      -2.195  -5.341  -7.018  1.00  0.00     0.284 C 
HETATM   31  C16 UNL     1      -3.844  -6.468  -8.419  1.00  0.00     0.184 C 
BRANCH  31  32
HETATM   32  O1  UNL     1      -4.045  -5.158  -8.841  1.00  0.00    -0.391 OA
ATOM     33  H1  UNL     1      -4.526  -4.694  -8.166  1.00  0.00     0.210 HD
ENDBRANCH  31  32
ENDBRANCH   1  18
TORSDOF 10
ENDMDL
MODEL 5
REMARK VINA RESULT: -8.010523658      1.559      2.054
REMARK  10 active torsions:
REMARK  status: ('A' for Active; 'I' for Inactive)
REMARK    1  A    between atoms: N1_1  and  C1_5 
REMARK    2  A    between atoms: C1_5  and  C2_6 
REMARK    3  A    between atoms: C2_6  and  C3_7 
REMARK    4  A    between atoms: C4_8  and  C5_9 
REMARK    5  A    between atoms: N2_10  and  C6_12 
REMARK    6  A    between atoms: C6_12  and  C7_13 
REMARK    7  A    between atoms: C7_13  and  C8_14 
REMARK    8  A    between atoms: C8_14  and  N3_15 
REMARK    9  A    between atoms: N3_15  and  C9_18 
REMARK   10  A    between atoms: C16_30  and  O1_31 
ROOT
HETATM    1  N3  UNL     1      -5.089  -6.348  -8.092  1.00  0.00    -0.043 N 
ATOM      2  H31 UNL     1      -5.008  -5.337  -8.202  1.00  0.00     0.279 HD
ATOM      3  H32 UNL     1      -4.935  -6.624  -9.061  1.00  0.00     0.279 HD
ENDROOT
BRANCH   1   4
HETATM    4  C8  UNL     1      -6.375  -6.720  -7.643  1.00  0.00     0.236 C 
BRANCH   4   5
HETATM    5  C7  UNL     1      -7.149  -7.654  -8.513  1.00  0.00     0.047 C 
BRANCH   5   6
HETATM    6  C6  UNL     1      -7.743  -6.924  -9.712  1.00  0.00     0.120 C 
BRANCH   6   7
HETATM    7  N2  UNL     1      -7.934  -7.837 -10.816  1.00  0.00    -0.399 N 
HETATM    8  C5  UNL     1      -8.976  -8.515 -11.070  1.00  0.00     0.082 C 
ATOM      9  H2  UNL     1      -7.148  -7.949 -11.457  1.00  0.00     0.158 HD
BRANCH   8  10
HETATM   10  C4  UNL     1     -10.210  -8.509 -10.294  1.00  0.00     0.013 C 
HETATM   11  C3  UNL     1     -11.375  -8.433 -10.900  1.00  0.00    -0.024 C 
BRANCH  11  12
HETATM   12  C2  UNL     1     -12.616  -8.429 -10.092  1.00  0.00     0.054 C 
BRANCH  12  13
HETATM   13  C1  UNL     1     -12.576  -9.538  -9.053  1.00  0.00     0.233 C 
BRANCH  13  14
HETATM   14  N1  UNL     1     -12.678  -8.909  -7.750  1.00  0.00    -0.079 N 
ATOM     15  H13 UNL     1     -13.193  -8.029  -7.770  1.00  0.00     0.274 HD
ATOM     16  H12 UNL     1     -13.298  -9.409  -7.113  1.00  0.00     0.274 HD
ATOM     17  H11 UNL     1     -11.730  -8.810  -7.387  1.00  0.00     0.274 HD
ENDBRANCH  13  14
ENDBRANCH  12  13
ENDBRANCH  11  12
ENDBRANCH   8  10
ENDBRANCH   6   7
ENDBRANCH   5   6
ENDBRANCH   4   5
ENDBRANCH   1   4
BRANCH   1  18
HETATM   18  C9  UNL     1      -4.055  -6.875  -7.216  1.00  0.00     0.411 C 
HETATM   19  N4  UNL     1      -4.334  -6.559  -5.835  1.00  0.00    -0.037 N 
HETATM   20  C10 UNL     1      -3.058  -6.722  -5.184  1.00  0.00     0.225 C 
ATOM     21  H42 UNL     1      -4.767  -5.647  -5.690  1.00  0.00     0.280 HD
ATOM     22  H41 UNL     1      -5.091  -7.105  -5.422  1.00  0.00     0.280 HD
HETATM   23  C11 UNL     1      -3.041  -5.833  -3.958  1.00  0.00     0.308 C 
HETATM   24  C15 UNL     1      -1.995  -6.417  -6.178  1.00  0.00     0.079 C 
HETATM   25  N5  UNL     1      -1.914  -6.064  -3.111  1.00  0.00     0.120 N 
HETATM   26  C12 UNL     1      -1.502  -4.772  -2.536  1.00  0.00     0.304 C 
HETATM   27  C17 UNL     1      -0.700  -6.412  -3.835  1.00  0.00     0.542 C 
HETATM   28  C13 UNL     1      -0.870  -4.133  -3.740  1.00  0.00     0.304 C 
HETATM   29  N6  UNL     1      -0.482  -5.239  -4.622  1.00  0.00     0.118 N 
HETATM   30  C14 UNL     1      -1.177  -5.184  -5.862  1.00  0.00     0.284 C 
HETATM   31  C16 UNL     1      -2.747  -6.159  -7.455  1.00  0.00     0.184 C 
BRANCH  31  32
HETATM   32  O1  UNL     1      -3.015  -4.811  -7.669  1.00  0.00    -0.391 OA
ATOM     33  H1  UNL     1      -3.722  -4.741  -8.299  1.00  0.00     0.210 HD
ENDBRANCH  31  32
ENDBRANCH   1  18
TORSDOF 10
ENDMDL
