MODEL 1
REMARK VINA RESULT: -7.438770908      0.000      0.000
REMARK  10 active torsions:
REMARK  status: ('A' for Active; 'I' for Inactive)
REMARK    1  A    between atoms: N1_1  and  C1_5 
REMARK    2  A    between atoms: C1_5  and  C2_6 
REMARK    3  A    between atoms: C2_6  and  C3_7 
REMARK    4  A    between atoms: C3_7  and  N5_19 
REMARK    5  A    between atoms: N2_8  and  S1_10 
REMARK    6  A    between atoms: S1_10  and  C4_11 
REMARK    7  A    between atoms: C4_11  and  C5_12 
REMARK    8  A    between atoms: N5_19  and  C8_21 
REMARK    9  A    between atoms: C8_21  and  C9_22 
REMARK   10  A    between atoms: C9_22  and  N6_23 
ROOT
HETATM    1  C3  UNL     1      -5.929  -6.665  -7.210  1.00  0.00     0.084 C 
HETATM    2  N2  UNL     1      -5.682  -6.407  -5.992  1.00  0.00    -0.320 N 
ATOM      3  H2  UNL     1      -6.448  -6.198  -5.352  1.00  0.00     0.175 HD
ENDROOT
BRANCH   1   4
HETATM    4  C2  UNL     1      -4.817  -6.967  -8.135  1.00  0.00     0.104 C 
BRANCH   4   5
HETATM    5  C1  UNL     1      -4.509  -5.805  -9.056  1.00  0.00     0.237 C 
BRANCH   5   6
HETATM    6  N1  UNL     1      -3.439  -4.973  -8.503  1.00  0.00    -0.079 N 
ATOM      7  H13 UNL     1      -3.235  -5.216  -7.533  1.00  0.00     0.274 HD
ATOM      8  H12 UNL     1      -2.533  -5.202  -8.911  1.00  0.00     0.274 HD
ATOM      9  H11 UNL     1      -3.661  -3.983  -8.606  1.00  0.00     0.274 HD
ENDBRANCH   5   6
ENDBRANCH   4   5
ENDBRANCH   1   4
BRANCH   1  10
HETATM   10  N5  UNL     1      -7.251  -6.670  -7.685  1.00  0.00    -0.378 N 
ATOM     11  H5  UNL     1      -7.952  -6.176  -7.132  1.00  0.00     0.160 HD
BRANCH  10  12
HETATM   12  C8  UNL     1      -7.691  -7.314  -8.886  1.00  0.00     0.151 C 
BRANCH  12  13
HETATM   13  C9  UNL     1      -8.018  -8.762  -8.750  1.00  0.00     0.292 C 
BRANCH  13  14
HETATM   14  N6  UNL     1      -9.436  -9.028  -8.914  1.00  0.00     0.091 N 
HETATM   15  C10 UNL     1     -10.136  -7.938  -9.564  1.00  0.00     0.274 C 
HETATM   16  C11 UNL     1     -11.267  -8.460 -10.437  1.00  0.00     0.057 C 
HETATM   17  C12 UNL     1     -12.559  -8.599  -9.672  1.00  0.00     0.234 C 
HETATM   18  N7  UNL     1     -12.240  -8.712  -8.263  1.00  0.00    -0.073 N 
HETATM   19  C13 UNL     1     -11.478  -9.899  -7.969  1.00  0.00     0.262 C 
ATOM     20  H72 UNL     1     -11.765  -7.876  -7.924  1.00  0.00     0.277 HD
ATOM     21  H71 UNL     1     -13.083  -8.664  -7.689  1.00  0.00     0.277 HD
HETATM   22  C14 UNL     1     -10.049  -9.439  -7.683  1.00  0.00     0.300 C 
ENDBRANCH  13  14
ENDBRANCH  12  13
ENDBRANCH  10  12
ENDBRANCH   1  10
BRANCH   2  23
HETATM   23  S1  UNL     1      -4.032  -6.408  -5.403  1.00  0.00    -0.047 SA
BRANCH  23  24
HETATM   24  C4  UNL     1      -3.674  -4.772  -4.718  1.00  0.00     0.173 C 
BRANCH  24  25
HETATM   25  C5  UNL     1      -3.078  -4.940  -3.364  1.00  0.00     0.084 C 
HETATM   26  N3  UNL     1      -2.817  -4.024  -2.529  1.00  0.00    -0.378 N 
HETATM   27  C6  UNL     1      -2.238  -4.513  -1.296  1.00  0.00     0.140 C 
ATOM     28  H3  UNL     1      -2.997  -3.036  -2.708  1.00  0.00     0.160 HD
HETATM   29  C7  UNL     1      -1.879  -5.946  -1.647  1.00  0.00     0.140 C 
HETATM   30  N4  UNL     1      -2.708  -6.182  -2.813  1.00  0.00    -0.378 N 
ATOM     31  H4  UNL     1      -2.978  -7.096  -3.175  1.00  0.00     0.160 HD
ENDBRANCH  24  25
ENDBRANCH  23  24
ENDBRANCH   2  23
TORSDOF 10
ENDMDL
MODEL 2
REMARK VINA RESULT: -7.424894524      2.956      8.170
REMARK  10 active torsions:
REMARK  status: ('A' for Active; 'I' for Inactive)
REMARK    1  A    between atoms: N1_1  and  C1_5 
REMARK    2  A    between atoms: C1_5  and  C2_6 
REMARK    3  A    between atoms: C2_6  and  C3_7 
REMARK    4  A    between atoms: C3_7  and  N5_19 
REMARK    5  A    between atoms: N2_8  and  S1_10 
REMARK    6  A    between atoms: S1_10  and  C4_11 
REMARK    7  A    between atoms: C4_11  and  C5_12 
REMARK    8  A    between atoms: N5_19  and  C8_21 
REMARK    9  A    between atoms: C8_21  and  C9_22 
REMARK   10  A    between atoms: C9_22  and  N6_23 
ROOT
HETATM    1  C3  UNL     1      -8.851  -7.457  -8.338  1.00  0.00     0.084 C 
HETATM    2  N2  UNL     1      -9.314  -7.654  -7.172  1.00  0.00    -0.320 N 
ATOM      3  H2  UNL     1      -8.834  -7.262  -6.363  1.00  0.00     0.175 HD
ENDROOT
BRANCH   1   4
HETATM    4  C2  UNL     1      -9.548  -8.027  -9.509  1.00  0.00     0.104 C 
BRANCH   4   5
HETATM    5  C1  UNL     1      -8.614  -8.239 -10.683  1.00  0.00     0.237 C 
BRANCH   5   6
HETATM    6  N1  UNL     1      -7.930  -9.528 -10.575  1.00  0.00    -0.079 N 
ATOM      7  H13 UNL     1      -7.658  -9.732  -9.613  1.00  0.00     0.274 HD
ATOM      8  H12 UNL     1      -8.570 -10.309 -10.721  1.00  0.00     0.274 HD
ATOM      9  H11 UNL     1      -7.133  -9.568 -11.210  1.00  0.00     0.274 HD
ENDBRANCH   5   6
ENDBRANCH   4   5
ENDBRANCH   1   4
BRANCH   1  10
HETATM   10  N5  UNL     1      -7.683  -6.698  -8.523  1.00  0.00    -0.378 N 
ATOM     11  H5  UNL     1      -7.725  -5.923  -9.186  1.00  0.00     0.160 HD
BRANCH  10  12
HETATM   12  C8  UNL     1      -6.439  -6.928  -7.852  1.00  0.00     0.151 C 
BRANCH  12  13
HETATM   13  C9  UNL     1      -5.232  -6.391  -8.542  1.00  0.00     0.292 C 
BRANCH  13  14
HETATM   14  N6  UNL     1      -4.233  -5.897  -7.611  1.00  0.00     0.091 N 
HETATM   15  C10 UNL     1      -2.908  -6.415  -7.889  1.00  0.00     0.274 C 
HETATM   16  C11 UNL     1      -1.840  -5.385  -7.555  1.00  0.00     0.057 C 
HETATM   17  C12 UNL     1      -1.384  -5.481  -6.121  1.00  0.00     0.234 C 
HETATM   18  N7  UNL     1      -2.430  -6.130  -5.357  1.00  0.00    -0.073 N 
HETATM   19  C13 UNL     1      -3.647  -5.360  -5.333  1.00  0.00     0.262 C 
ATOM     20  H72 UNL     1      -2.600  -7.078  -5.695  1.00  0.00     0.277 HD
ATOM     21  H71 UNL     1      -2.114  -6.350  -4.411  1.00  0.00     0.277 HD
HETATM   22  C14 UNL     1      -4.637  -6.082  -6.246  1.00  0.00     0.300 C 
ENDBRANCH  13  14
ENDBRANCH  12  13
ENDBRANCH  10  12
ENDBRANCH   1  10
BRANCH   2  23
HETATM   23  S1  UNL     1     -10.773  -8.597  -6.947  1.00  0.00    -0.047 SA
BRANCH  23  24
HETATM   24  C4  UNL     1     -10.339 -10.350  -7.068  1.00  0.00     0.173 C 
BRANCH  24  25
HETATM   25  C5  UNL     1     -10.664 -11.013  -5.775  1.00  0.00     0.084 C 
HETATM   26  N3  UNL     1      -9.877 -11.206  -4.800  1.00  0.00    -0.378 N 
HETATM   27  C6  UNL     1     -10.497 -11.882  -3.681  1.00  0.00     0.140 C 
ATOM     28  H3  UNL     1      -8.900 -10.912  -4.804  1.00  0.00     0.160 HD
HETATM   29  C7  UNL     1     -11.800 -12.381  -4.280  1.00  0.00     0.140 C 
HETATM   30  N4  UNL     1     -11.930 -11.538  -5.453  1.00  0.00    -0.378 N 
ATOM     31  H4  UNL     1     -12.795 -11.355  -5.960  1.00  0.00     0.160 HD
ENDBRANCH  24  25
ENDBRANCH  23  24
ENDBRANCH   2  23
TORSDOF 10
ENDMDL
MODEL 3
REMARK VINA RESULT: -7.420556763      1.002      1.221
REMARK  10 active torsions:
REMARK  status: ('A' for Active; 'I' for Inactive)
REMARK    1  A    between atoms: N1_1  and  C1_5 
REMARK    2  A    between atoms: C1_5  and  C2_6 
REMARK    3  A    between atoms: C2_6  and  C3_7 
REMARK    4  A    between atoms: C3_7  and  N5_19 
REMARK    5  A    between atoms: N2_8  and  S1_10 
REMARK    6  A    between atoms: S1_10  and  C4_11 
REMARK    7  A    between atoms: C4_11  and  C5_12 
REMARK    8  A    between atoms: N5_19  and  C8_21 
REMARK    9  A    between atoms: C8_21  and  C9_22 
REMARK   10  A    between atoms: C9_22  and  N6_23 
ROOT
HETATM    1  C3  UNL     1      -5.921  -6.677  -7.221  1.00  0.00     0.084 C 
HETATM    2  N2  UNL     1      -5.668  -6.416  -6.004  1.00  0.00    -0.320 N 
ATOM      3  H2  UNL     1      -6.430  -6.195  -5.364  1.00  0.00     0.175 HD
ENDROOT
BRANCH   1   4
HETATM    4  C2  UNL     1      -4.816  -6.997  -8.146  1.00  0.00     0.104 C 
BRANCH   4   5
HETATM    5  C1  UNL     1      -4.511  -5.853  -9.091  1.00  0.00     0.237 C 
BRANCH   5   6
HETATM    6  N1  UNL     1      -3.499  -4.964  -8.519  1.00  0.00    -0.079 N 
ATOM      7  H13 UNL     1      -3.385  -5.117  -7.516  1.00  0.00     0.274 HD
ATOM      8  H12 UNL     1      -2.558  -5.219  -8.820  1.00  0.00     0.274 HD
ATOM      9  H11 UNL     1      -3.713  -3.989  -8.731  1.00  0.00     0.274 HD
ENDBRANCH   5   6
ENDBRANCH   4   5
ENDBRANCH   1   4
BRANCH   1  10
HETATM   10  N5  UNL     1      -7.245  -6.666  -7.692  1.00  0.00    -0.378 N 
ATOM     11  H5  UNL     1      -7.937  -6.154  -7.144  1.00  0.00     0.160 HD
BRANCH  10  12
HETATM   12  C8  UNL     1      -7.698  -7.321  -8.884  1.00  0.00     0.151 C 
BRANCH  12  13
HETATM   13  C9  UNL     1      -8.020  -8.768  -8.733  1.00  0.00     0.292 C 
BRANCH  13  14
HETATM   14  N6  UNL     1      -9.439  -9.040  -8.886  1.00  0.00     0.091 N 
HETATM   15  C10 UNL     1     -10.143  -7.964  -9.555  1.00  0.00     0.274 C 
HETATM   16  C11 UNL     1     -11.277  -8.505 -10.412  1.00  0.00     0.057 C 
HETATM   17  C12 UNL     1     -12.566  -8.631  -9.638  1.00  0.00     0.234 C 
HETATM   18  N7  UNL     1     -12.240  -8.714  -8.229  1.00  0.00    -0.073 N 
HETATM   19  C13 UNL     1     -11.475  -9.893  -7.914  1.00  0.00     0.262 C 
ATOM     20  H72 UNL     1     -11.764  -7.870  -7.910  1.00  0.00     0.277 HD
ATOM     21  H71 UNL     1     -13.080  -8.655  -7.652  1.00  0.00     0.277 HD
HETATM   22  C14 UNL     1     -10.046  -9.426  -7.643  1.00  0.00     0.300 C 
ENDBRANCH  13  14
ENDBRANCH  12  13
ENDBRANCH  10  12
ENDBRANCH   1  10
BRANCH   2  23
HETATM   23  S1  UNL     1      -4.017  -6.436  -5.419  1.00  0.00    -0.047 SA
BRANCH  23  24
HETATM   24  C4  UNL     1      -3.609  -4.778  -4.821  1.00  0.00     0.173 C 
BRANCH  24  25
HETATM   25  C5  UNL     1      -2.254  -4.812  -4.204  1.00  0.00     0.084 C 
HETATM   26  N3  UNL     1      -1.810  -5.676  -3.390  1.00  0.00    -0.378 N 
HETATM   27  C6  UNL     1      -0.447  -5.430  -2.971  1.00  0.00     0.140 C 
ATOM     28  H3  UNL     1      -2.361  -6.470  -3.062  1.00  0.00     0.160 HD
HETATM   29  C7  UNL     1      -0.206  -4.012  -3.455  1.00  0.00     0.140 C 
HETATM   30  N4  UNL     1      -1.251  -3.855  -4.448  1.00  0.00    -0.378 N 
ATOM     31  H4  UNL     1      -1.258  -3.165  -5.199  1.00  0.00     0.160 HD
ENDBRANCH  24  25
ENDBRANCH  23  24
ENDBRANCH   2  23
TORSDOF 10
ENDMDL
MODEL 4
REMARK VINA RESULT: -7.396954330      2.703      8.405
REMARK  10 active torsions:
REMARK  status: ('A' for Active; 'I' for Inactive)
REMARK    1  A    between atoms: N1_1  and  C1_5 
REMARK    2  A    between atoms: C1_5  and  C2_6 
REMARK    3  A    between atoms: C2_6  and  C3_7 
REMARK    4  A    between atoms: C3_7  and  N5_19 
REMARK    5  A    between atoms: N2_8  and  S1_10 
REMARK    6  A    between atoms: S1_10  and  C4_11 
REMARK    7  A    between atoms: C4_11  and  C5_12 
REMARK    8  A    between atoms: N5_19  and  C8_21 
REMARK    9  A    between atoms: C8_21  and  C9_22 
REMARK   10  A    between atoms: C9_22  and  N6_23 
ROOT
HETATM    1  C3  UNL     1      -8.070  -7.267  -8.392  1.00  0.00     0.084 C 
HETATM    2  N2  UNL     1      -8.686  -7.476  -7.301  1.00  0.00    -0.320 N 
ATOM      3  H2  UNL     1      -8.241  -7.238  -6.414  1.00  0.00     0.175 HD
ENDROOT
BRANCH   1   4
HETATM    4  C2  UNL     1      -8.716  -7.612  -9.675  1.00  0.00     0.104 C 
BRANCH   4   5
HETATM    5  C1  UNL     1      -7.733  -8.190 -10.672  1.00  0.00     0.237 C 
BRANCH   5   6
HETATM    6  N1  UNL     1      -7.745  -9.653 -10.622  1.00  0.00    -0.079 N 
ATOM      7  H13 UNL     1      -8.083  -9.998  -9.723  1.00  0.00     0.274 HD
ATOM      8  H12 UNL     1      -8.471 -10.046 -11.220  1.00  0.00     0.274 HD
ATOM      9  H11 UNL     1      -6.824 -10.029 -10.849  1.00  0.00     0.274 HD
ENDBRANCH   5   6
ENDBRANCH   4   5
ENDBRANCH   1   4
BRANCH   1  10
HETATM   10  N5  UNL     1      -6.782  -6.707  -8.388  1.00  0.00    -0.378 N 
ATOM     11  H5  UNL     1      -6.477  -6.219  -9.231  1.00  0.00     0.160 HD
BRANCH  10  12
HETATM   12  C8  UNL     1      -5.863  -6.767  -7.290  1.00  0.00     0.151 C 
BRANCH  12  13
HETATM   13  C9  UNL     1      -4.459  -7.114  -7.652  1.00  0.00     0.292 C 
BRANCH  13  14
HETATM   14  N6  UNL     1      -3.485  -6.376  -6.867  1.00  0.00     0.091 N 
HETATM   15  C10 UNL     1      -4.104  -5.430  -5.959  1.00  0.00     0.274 C 
HETATM   16  C11 UNL     1      -3.299  -5.302  -4.674  1.00  0.00     0.057 C 
HETATM   17  C12 UNL     1      -2.233  -4.240  -4.774  1.00  0.00     0.234 C 
HETATM   18  N7  UNL     1      -1.931  -4.032  -6.176  1.00  0.00    -0.073 N 
HETATM   19  C13 UNL     1      -1.376  -5.208  -6.795  1.00  0.00     0.262 C 
ATOM     20  H72 UNL     1      -2.751  -3.701  -6.684  1.00  0.00     0.277 HD
ATOM     21  H71 UNL     1      -1.322  -3.224  -6.306  1.00  0.00     0.277 HD
HETATM   22  C14 UNL     1      -2.469  -5.786  -7.692  1.00  0.00     0.300 C 
ENDBRANCH  13  14
ENDBRANCH  12  13
ENDBRANCH  10  12
ENDBRANCH   1  10
BRANCH   2  23
HETATM   23  S1  UNL     1     -10.294  -8.169  -7.311  1.00  0.00    -0.047 SA
BRANCH  23  24
HETATM   24  C4  UNL     1     -10.140  -9.953  -7.575  1.00  0.00     0.173 C 
BRANCH  24  25
HETATM   25  C5  UNL     1     -10.705 -10.662  -6.394  1.00  0.00     0.084 C 
HETATM   26  N3  UNL     1     -10.175 -10.773  -5.249  1.00  0.00    -0.378 N 
HETATM   27  C6  UNL     1     -10.978 -11.527  -4.310  1.00  0.00     0.140 C 
ATOM     28  H3  UNL     1      -9.268 -10.370  -5.011  1.00  0.00     0.160 HD
HETATM   29  C7  UNL     1     -12.022 -12.165  -5.209  1.00  0.00     0.140 C 
HETATM   30  N4  UNL     1     -11.944 -11.331  -6.392  1.00  0.00    -0.378 N 
ATOM     31  H4  UNL     1     -12.667 -11.242  -7.106  1.00  0.00     0.160 HD
ENDBRANCH  24  25
ENDBRANCH  23  24
ENDBRANCH   2  23
TORSDOF 10
ENDMDL
MODEL 5
REMARK VINA RESULT: -7.377368408      2.536      8.999
REMARK  10 active torsions:
REMARK  status: ('A' for Active; 'I' for Inactive)
REMARK    1  A    between atoms: N1_1  and  C1_5 
REMARK    2  A    between atoms: C1_5  and  C2_6 
REMARK    3  A    between atoms: C2_6  and  C3_7 
REMARK    4  A    between atoms: C3_7  and  N5_19 
REMARK    5  A    between atoms: N2_8  and  S1_10 
REMARK    6  A    between atoms: S1_10  and  C4_11 
REMARK    7  A    between atoms: C4_11  and  C5_12 
REMARK    8  A    between atoms: N5_19  and  C8_21 
REMARK    9  A    between atoms: C8_21  and  C9_22 
REMARK   10  A    between atoms: C9_22  and  N6_23 
ROOT
HETATM    1  C3  UNL     1      -7.332  -7.465  -9.389  1.00  0.00     0.084 C 
HETATM    2  N2  UNL     1      -7.459  -7.779 -10.613  1.00  0.00    -0.320 N 
ATOM      3  H2  UNL     1      -6.971  -7.239 -11.327  1.00  0.00     0.175 HD
ENDROOT
BRANCH   1   4
HETATM    4  C2  UNL     1      -8.041  -8.248  -8.356  1.00  0.00     0.104 C 
BRANCH   4   5
HETATM    5  C1  UNL     1      -9.149  -7.453  -7.697  1.00  0.00     0.237 C 
BRANCH   5   6
HETATM    6  N1  UNL     1      -9.707  -8.186  -6.559  1.00  0.00    -0.079 N 
ATOM      7  H13 UNL     1     -10.290  -7.588  -5.973  1.00  0.00     0.274 HD
ATOM      8  H12 UNL     1     -10.420  -8.854  -6.853  1.00  0.00     0.274 HD
ATOM      9  H11 UNL     1      -8.966  -8.636  -6.021  1.00  0.00     0.274 HD
ENDBRANCH   5   6
ENDBRANCH   4   5
ENDBRANCH   1   4
BRANCH   1  10
HETATM   10  N5  UNL     1      -6.522  -6.382  -9.010  1.00  0.00    -0.378 N 
ATOM     11  H5  UNL     1      -6.921  -5.446  -9.082  1.00  0.00     0.160 HD
BRANCH  10  12
HETATM   12  C8  UNL     1      -5.176  -6.492  -8.529  1.00  0.00     0.151 C 
BRANCH  12  13
HETATM   13  C9  UNL     1      -5.038  -6.683  -7.057  1.00  0.00     0.292 C 
BRANCH  13  14
HETATM   14  N6  UNL     1      -3.780  -6.168  -6.547  1.00  0.00     0.091 N 
HETATM   15  C10 UNL     1      -3.954  -5.332  -5.375  1.00  0.00     0.274 C 
HETATM   16  C11 UNL     1      -2.781  -5.484  -4.419  1.00  0.00     0.057 C 
HETATM   17  C12 UNL     1      -1.666  -4.515  -4.726  1.00  0.00     0.234 C 
HETATM   18  N7  UNL     1      -1.791  -4.108  -6.112  1.00  0.00    -0.073 N 
HETATM   19  C13 UNL     1      -1.616  -5.211  -7.022  1.00  0.00     0.262 C 
ATOM     20  H72 UNL     1      -2.676  -3.630  -6.277  1.00  0.00     0.277 HD
ATOM     21  H71 UNL     1      -1.150  -3.345  -6.330  1.00  0.00     0.277 HD
HETATM   22  C14 UNL     1      -3.001  -5.540  -7.578  1.00  0.00     0.300 C 
ENDBRANCH  13  14
ENDBRANCH  12  13
ENDBRANCH  10  12
ENDBRANCH   1  10
BRANCH   2  23
HETATM   23  S1  UNL     1      -8.466  -9.133 -11.080  1.00  0.00    -0.047 SA
BRANCH  23  24
HETATM   24  C4  UNL     1     -10.126  -8.507 -11.438  1.00  0.00     0.173 C 
BRANCH  24  25
HETATM   25  C5  UNL     1     -11.045  -8.941 -10.350  1.00  0.00     0.084 C 
HETATM   26  N3  UNL     1     -11.949  -8.246  -9.796  1.00  0.00    -0.378 N 
HETATM   27  C6  UNL     1     -12.676  -8.957  -8.766  1.00  0.00     0.140 C 
ATOM     28  H3  UNL     1     -12.145  -7.278 -10.051  1.00  0.00     0.160 HD
HETATM   29  C7  UNL     1     -11.816 -10.190  -8.550  1.00  0.00     0.140 C 
HETATM   30  N4  UNL     1     -11.032 -10.223  -9.769  1.00  0.00    -0.378 N 
ATOM     31  H4  UNL     1     -10.550 -11.040 -10.144  1.00  0.00     0.160 HD
ENDBRANCH  24  25
ENDBRANCH  23  24
ENDBRANCH   2  23
TORSDOF 10
ENDMDL
