MODEL 1
REMARK VINA RESULT: -7.751472182      0.000      0.000
REMARK  10 active torsions:
REMARK  status: ('A' for Active; 'I' for Inactive)
REMARK    1  A    between atoms: N1_1  and  N2_4 
REMARK    2  A    between atoms: N2_4  and  C1_6 
REMARK    3  A    between atoms: C1_6  and  C2_7 
REMARK    4  A    between atoms: C2_7  and  C3_8 
REMARK    5  A    between atoms: C3_8  and  N3_9 
REMARK    6  A    between atoms: N3_9  and  C4_11 
REMARK    7  A    between atoms: C4_11  and  C5_12 
REMARK    8  A    between atoms: C6_13  and  N4_14 
REMARK       I    between atoms: N4_14  and  C7_16 
REMARK       I    between atoms: C7_16  and  N5_17 
REMARK       I    between atoms: C7_16  and  N6_20 
REMARK    9  A    between atoms: N6_20  and  N7_22 
REMARK   10  A    between atoms: C11_32  and  C12_33 
ROOT
HETATM    1  C5  UNL     1      -3.783  -7.087  -6.500  1.00  0.00     0.060 C 
HETATM    2  C6  UNL     1      -2.873  -6.980  -5.299  1.00  0.00     0.109 C 
HETATM    3  C9  UNL     1      -1.747  -6.062  -5.655  1.00  0.00     0.027 C 
HETATM    4  C10 UNL     1      -2.312  -5.306  -6.842  1.00  0.00     0.016 C 
HETATM    5  C11 UNL     1      -2.947  -6.479  -7.602  1.00  0.00     0.086 C 
ENDROOT
BRANCH   2   6
HETATM    6  N4  UNL     1      -2.325  -8.280  -4.949  1.00  0.00    -0.220 N 
HETATM    7  C7  UNL     1      -1.603  -8.470  -3.740  1.00  0.00     0.688 C 
HETATM    8  N5  UNL     1      -1.422  -9.675  -3.324  1.00  0.00    -0.234 N 
HETATM    9  N6  UNL     1      -1.085  -7.367  -2.995  1.00  0.00    -0.109 N 
ATOM     10  H52 UNL     1      -1.793 -10.463  -3.856  1.00  0.00     0.174 HD
ATOM     11  H51 UNL     1      -0.904  -9.812  -2.456  1.00  0.00     0.174 HD
ATOM     12  H6  UNL     1      -0.195  -6.943  -3.259  1.00  0.00     0.208 HD
ATOM     13  H4  UNL     1      -2.462  -9.068  -5.581  1.00  0.00     0.178 HD
BRANCH   9  14
HETATM   14  N7  UNL     1      -1.800  -6.872  -1.907  1.00  0.00    -0.161 N 
HETATM   15  C8  UNL     1      -1.919  -7.409  -0.680  1.00  0.00     0.246 A 
HETATM   16  N8  UNL     1      -2.701  -6.592   0.047  1.00  0.00    -0.277 N 
HETATM   17  N9  UNL     1      -3.065  -5.565  -0.710  1.00  0.00    -0.226 N 
ATOM     18  H8  UNL     1      -2.970  -6.737   1.020  1.00  0.00     0.189 HD
HETATM   19  N10 UNL     1      -2.509  -5.759  -1.879  1.00  0.00    -0.205 N 
ATOM     20  H9  UNL     1      -3.659  -4.781  -0.436  1.00  0.00     0.210 HD
ATOM     21  H10 UNL     1      -2.610  -5.126  -2.672  1.00  0.00     0.212 HD
ENDBRANCH   9  14
ENDBRANCH   2   6
BRANCH   1  22
HETATM   22  C4  UNL     1      -5.050  -6.377  -6.269  1.00  0.00     0.067 C 
BRANCH  22  23
HETATM   23  N3  UNL     1      -6.211  -6.814  -6.505  1.00  0.00    -0.382 N 
ATOM     24  H3  UNL     1      -6.649  -7.356  -5.760  1.00  0.00     0.164 HD
BRANCH  23  25
HETATM   25  C3  UNL     1      -6.970  -6.639  -7.678  1.00  0.00     0.061 C 
BRANCH  25  26
HETATM   26  C2  UNL     1      -7.524  -7.931  -8.234  1.00  0.00     0.065 C 
BRANCH  26  27
HETATM   27  C1  UNL     1      -9.035  -7.810  -8.429  1.00  0.00     0.144 C 
BRANCH  27  28
HETATM   28  N2  UNL     1      -9.674  -7.382  -7.217  1.00  0.00    -0.343 N 
ATOM     29  H2  UNL     1      -9.804  -6.381  -7.068  1.00  0.00     0.179 HD
BRANCH  28  30
HETATM   30  N1  UNL     1     -10.077  -8.163  -6.341  1.00  0.00    -0.349 N 
ATOM     31  H12 UNL     1     -10.983  -7.961  -5.919  1.00  0.00     0.176 HD
ATOM     32  H11 UNL     1      -9.554  -8.982  -6.030  1.00  0.00     0.176 HD
ENDBRANCH  28  30
ENDBRANCH  27  28
ENDBRANCH  26  27
ENDBRANCH  25  26
ENDBRANCH  23  25
ENDBRANCH  22  23
ENDBRANCH   1  22
BRANCH   5  33
HETATM   33  C12 UNL     1      -3.703  -6.060  -8.767  1.00  0.00     0.236 C 
HETATM   34  N11 UNL     1      -4.376  -7.010  -9.563  1.00  0.00    -0.062 NA
HETATM   35  O1  UNL     1      -3.771  -4.851  -9.086  1.00  0.00    -0.276 OA
ENDBRANCH   5  33
TORSDOF 10
ENDMDL
MODEL 2
REMARK VINA RESULT: -7.633214165      2.181      2.803
REMARK  10 active torsions:
REMARK  status: ('A' for Active; 'I' for Inactive)
REMARK    1  A    between atoms: N1_1  and  N2_4 
REMARK    2  A    between atoms: N2_4  and  C1_6 
REMARK    3  A    between atoms: C1_6  and  C2_7 
REMARK    4  A    between atoms: C2_7  and  C3_8 
REMARK    5  A    between atoms: C3_8  and  N3_9 
REMARK    6  A    between atoms: N3_9  and  C4_11 
REMARK    7  A    between atoms: C4_11  and  C5_12 
REMARK    8  A    between atoms: C6_13  and  N4_14 
REMARK       I    between atoms: N4_14  and  C7_16 
REMARK       I    between atoms: C7_16  and  N5_17 
REMARK       I    between atoms: C7_16  and  N6_20 
REMARK    9  A    between atoms: N6_20  and  N7_22 
REMARK   10  A    between atoms: C11_32  and  C12_33 
ROOT
HETATM    1  C5  UNL     1      -2.341  -7.135  -5.206  1.00  0.00     0.060 C 
HETATM    2  C6  UNL     1      -1.940  -7.832  -3.926  1.00  0.00     0.109 C 
HETATM    3  C9  UNL     1      -0.826  -7.051  -3.306  1.00  0.00     0.027 C 
HETATM    4  C10 UNL     1      -0.968  -5.698  -3.977  1.00  0.00     0.016 C 
HETATM    5  C11 UNL     1      -1.202  -6.163  -5.422  1.00  0.00     0.086 C 
ENDROOT
BRANCH   2   6
HETATM    6  N4  UNL     1      -1.473  -9.181  -4.199  1.00  0.00    -0.220 N 
HETATM    7  C7  UNL     1      -1.377 -10.147  -3.162  1.00  0.00     0.688 C 
HETATM    8  N5  UNL     1      -1.274 -11.386  -3.495  1.00  0.00    -0.234 N 
HETATM    9  N6  UNL     1      -1.394  -9.772  -1.784  1.00  0.00    -0.109 N 
ATOM     10  H52 UNL     1      -1.262 -11.654  -4.479  1.00  0.00     0.174 HD
ATOM     11  H51 UNL     1      -1.205 -12.081  -2.751  1.00  0.00     0.174 HD
ATOM     12  H6  UNL     1      -0.539  -9.451  -1.329  1.00  0.00     0.208 HD
ATOM     13  H4  UNL     1      -1.209  -9.437  -5.150  1.00  0.00     0.178 HD
BRANCH   9  14
HETATM   14  N7  UNL     1      -2.585  -9.845  -1.064  1.00  0.00    -0.161 N 
HETATM   15  C8  UNL     1      -3.208 -10.943  -0.603  1.00  0.00     0.246 A 
HETATM   16  N8  UNL     1      -4.321 -10.541   0.035  1.00  0.00    -0.277 N 
HETATM   17  N9  UNL     1      -4.393  -9.218  -0.025  1.00  0.00    -0.226 N 
ATOM     18  H8  UNL     1      -4.999 -11.152   0.491  1.00  0.00     0.189 HD
HETATM   19  N10 UNL     1      -3.336  -8.826  -0.691  1.00  0.00    -0.205 N 
ATOM     20  H9  UNL     1      -5.125  -8.625   0.367  1.00  0.00     0.210 HD
ATOM     21  H10 UNL     1      -3.119  -7.852  -0.896  1.00  0.00     0.212 HD
ENDBRANCH   9  14
ENDBRANCH   2   6
BRANCH   1  22
HETATM   22  C4  UNL     1      -3.649  -6.478  -5.064  1.00  0.00     0.067 C 
BRANCH  22  23
HETATM   23  N3  UNL     1      -4.662  -6.655  -5.795  1.00  0.00    -0.382 N 
ATOM     24  H3  UNL     1      -5.387  -7.268  -5.422  1.00  0.00     0.164 HD
BRANCH  23  25
HETATM   25  C3  UNL     1      -4.907  -6.102  -7.068  1.00  0.00     0.061 C 
BRANCH  25  26
HETATM   26  C2  UNL     1      -5.438  -7.106  -8.066  1.00  0.00     0.065 C 
BRANCH  26  27
HETATM   27  C1  UNL     1      -6.896  -6.788  -8.399  1.00  0.00     0.144 C 
BRANCH  27  28
HETATM   28  N2  UNL     1      -7.743  -7.021  -7.264  1.00  0.00    -0.343 N 
ATOM     29  H2  UNL     1      -7.348  -6.885  -6.333  1.00  0.00     0.179 HD
BRANCH  28  30
HETATM   30  N1  UNL     1      -8.928  -7.380  -7.353  1.00  0.00    -0.349 N 
ATOM     31  H12 UNL     1      -9.636  -6.737  -6.998  1.00  0.00     0.176 HD
ATOM     32  H11 UNL     1      -9.220  -8.270  -7.757  1.00  0.00     0.176 HD
ENDBRANCH  28  30
ENDBRANCH  27  28
ENDBRANCH  26  27
ENDBRANCH  25  26
ENDBRANCH  23  25
ENDBRANCH  22  23
ENDBRANCH   1  22
BRANCH   5  33
HETATM   33  C12 UNL     1      -1.507  -5.073  -6.328  1.00  0.00     0.236 C 
HETATM   34  N11 UNL     1      -1.362  -5.238  -7.721  1.00  0.00    -0.062 NA
HETATM   35  O1  UNL     1      -1.904  -3.969  -5.892  1.00  0.00    -0.276 OA
ENDBRANCH   5  33
TORSDOF 10
ENDMDL
MODEL 3
REMARK VINA RESULT: -7.548715587      3.089      7.254
REMARK  10 active torsions:
REMARK  status: ('A' for Active; 'I' for Inactive)
REMARK    1  A    between atoms: N1_1  and  N2_4 
REMARK    2  A    between atoms: N2_4  and  C1_6 
REMARK    3  A    between atoms: C1_6  and  C2_7 
REMARK    4  A    between atoms: C2_7  and  C3_8 
REMARK    5  A    between atoms: C3_8  and  N3_9 
REMARK    6  A    between atoms: N3_9  and  C4_11 
REMARK    7  A    between atoms: C4_11  and  C5_12 
REMARK    8  A    between atoms: C6_13  and  N4_14 
REMARK       I    between atoms: N4_14  and  C7_16 
REMARK       I    between atoms: C7_16  and  N5_17 
REMARK       I    between atoms: C7_16  and  N6_20 
REMARK    9  A    between atoms: N6_20  and  N7_22 
REMARK   10  A    between atoms: C11_32  and  C12_33 
ROOT
HETATM    1  C5  UNL     1      -2.376  -5.416  -4.700  1.00  0.00     0.060 C 
HETATM    2  C6  UNL     1      -3.312  -5.836  -5.810  1.00  0.00     0.109 C 
HETATM    3  C9  UNL     1      -3.134  -7.303  -6.031  1.00  0.00     0.027 C 
HETATM    4  C10 UNL     1      -2.486  -7.748  -4.734  1.00  0.00     0.016 C 
HETATM    5  C11 UNL     1      -1.465  -6.615  -4.567  1.00  0.00     0.086 C 
ENDROOT
BRANCH   2   6
HETATM    6  N4  UNL     1      -2.998  -5.133  -7.043  1.00  0.00    -0.220 N 
HETATM    7  C7  UNL     1      -3.644  -5.468  -8.263  1.00  0.00     0.688 C 
HETATM    8  N5  UNL     1      -3.578  -4.628  -9.236  1.00  0.00    -0.234 N 
HETATM    9  N6  UNL     1      -4.352  -6.699  -8.422  1.00  0.00    -0.109 N 
ATOM     10  H52 UNL     1      -3.072  -3.750  -9.122  1.00  0.00     0.174 HD
ATOM     11  H51 UNL     1      -4.041  -4.869 -10.112  1.00  0.00     0.174 HD
ATOM     12  H6  UNL     1      -3.848  -7.554  -8.654  1.00  0.00     0.208 HD
ATOM     13  H4  UNL     1      -2.302  -4.388  -7.032  1.00  0.00     0.178 HD
BRANCH   9  14
HETATM   14  N7  UNL     1      -5.736  -6.725  -8.259  1.00  0.00    -0.161 N 
HETATM   15  C8  UNL     1      -6.684  -6.581  -9.201  1.00  0.00     0.246 A 
HETATM   16  N8  UNL     1      -7.879  -6.676  -8.592  1.00  0.00    -0.277 N 
HETATM   17  N9  UNL     1      -7.683  -6.875  -7.296  1.00  0.00    -0.226 N 
ATOM     18  H8  UNL     1      -8.787  -6.607  -9.052  1.00  0.00     0.189 HD
HETATM   19  N10 UNL     1      -6.386  -6.901  -7.124  1.00  0.00    -0.205 N 
ATOM     20  H9  UNL     1      -8.399  -6.986  -6.577  1.00  0.00     0.210 HD
ATOM     21  H10 UNL     1      -5.932  -7.040  -6.222  1.00  0.00     0.212 HD
ENDBRANCH   9  14
ENDBRANCH   2   6
BRANCH   1  22
HETATM   22  C4  UNL     1      -3.119  -5.108  -3.469  1.00  0.00     0.067 C 
BRANCH  22  23
HETATM   23  N3  UNL     1      -3.146  -4.000  -2.864  1.00  0.00    -0.382 N 
ATOM     24  H3  UNL     1      -3.872  -3.345  -3.153  1.00  0.00     0.164 HD
BRANCH  23  25
HETATM   25  C3  UNL     1      -2.288  -3.565  -1.835  1.00  0.00     0.061 C 
BRANCH  25  26
HETATM   26  C2  UNL     1      -1.104  -2.771  -2.336  1.00  0.00     0.065 C 
BRANCH  26  27
HETATM   27  C1  UNL     1      -1.585  -1.595  -3.186  1.00  0.00     0.144 C 
BRANCH  27  28
HETATM   28  N2  UNL     1      -1.084  -1.695  -4.527  1.00  0.00    -0.343 N 
ATOM     29  H2  UNL     1      -0.082  -1.579  -4.677  1.00  0.00     0.179 HD
BRANCH  28  30
HETATM   30  N1  UNL     1      -1.804  -1.914  -5.514  1.00  0.00    -0.349 N 
ATOM     31  H12 UNL     1      -2.363  -1.137  -5.865  1.00  0.00     0.176 HD
ATOM     32  H11 UNL     1      -1.861  -2.820  -5.981  1.00  0.00     0.176 HD
ENDBRANCH  28  30
ENDBRANCH  27  28
ENDBRANCH  26  27
ENDBRANCH  25  26
ENDBRANCH  23  25
ENDBRANCH  22  23
ENDBRANCH   1  22
BRANCH   5  33
HETATM   33  C12 UNL     1      -0.740  -6.682  -3.313  1.00  0.00     0.236 C 
HETATM   34  N11 UNL     1      -1.004  -7.713  -2.387  1.00  0.00    -0.062 NA
HETATM   35  O1  UNL     1       0.132  -5.829  -3.030  1.00  0.00    -0.276 OA
ENDBRANCH   5  33
TORSDOF 10
ENDMDL
MODEL 4
REMARK VINA RESULT: -7.511166128      2.300      7.100
REMARK  10 active torsions:
REMARK  status: ('A' for Active; 'I' for Inactive)
REMARK    1  A    between atoms: N1_1  and  N2_4 
REMARK    2  A    between atoms: N2_4  and  C1_6 
REMARK    3  A    between atoms: C1_6  and  C2_7 
REMARK    4  A    between atoms: C2_7  and  C3_8 
REMARK    5  A    between atoms: C3_8  and  N3_9 
REMARK    6  A    between atoms: N3_9  and  C4_11 
REMARK    7  A    between atoms: C4_11  and  C5_12 
REMARK    8  A    between atoms: C6_13  and  N4_14 
REMARK       I    between atoms: N4_14  and  C7_16 
REMARK       I    between atoms: C7_16  and  N5_17 
REMARK       I    between atoms: C7_16  and  N6_20 
REMARK    9  A    between atoms: N6_20  and  N7_22 
REMARK   10  A    between atoms: C11_32  and  C12_33 
ROOT
HETATM    1  C5  UNL     1      -4.827  -5.722  -7.727  1.00  0.00     0.060 C 
HETATM    2  C6  UNL     1      -5.368  -6.801  -8.636  1.00  0.00     0.109 C 
HETATM    3  C9  UNL     1      -4.206  -7.481  -9.286  1.00  0.00     0.027 C 
HETATM    4  C10 UNL     1      -3.059  -7.108  -8.365  1.00  0.00     0.016 C 
HETATM    5  C11 UNL     1      -3.381  -5.622  -8.159  1.00  0.00     0.086 C 
ENDROOT
BRANCH   2   6
HETATM    6  N4  UNL     1      -6.214  -6.228  -9.669  1.00  0.00    -0.220 N 
HETATM    7  C7  UNL     1      -7.473  -6.804  -9.989  1.00  0.00     0.688 C 
HETATM    8  N5  UNL     1      -8.311  -6.096 -10.662  1.00  0.00    -0.234 N 
HETATM    9  N6  UNL     1      -7.815  -8.130  -9.583  1.00  0.00    -0.109 N 
ATOM     10  H52 UNL     1      -8.066  -5.149 -10.952  1.00  0.00     0.174 HD
ATOM     11  H51 UNL     1      -9.215  -6.509 -10.892  1.00  0.00     0.174 HD
ATOM     12  H6  UNL     1      -7.502  -8.931 -10.131  1.00  0.00     0.208 HD
ATOM     13  H4  UNL     1      -5.899  -5.399 -10.173  1.00  0.00     0.178 HD
BRANCH   9  14
HETATM   14  N7  UNL     1      -8.577  -8.324  -8.433  1.00  0.00    -0.161 N 
HETATM   15  C8  UNL     1      -9.291  -9.409  -8.086  1.00  0.00     0.246 A 
HETATM   16  N8  UNL     1      -9.865  -9.154  -6.896  1.00  0.00    -0.277 N 
HETATM   17  N9  UNL     1      -9.516  -7.935  -6.507  1.00  0.00    -0.226 N 
ATOM     18  H8  UNL     1     -10.467  -9.794  -6.379  1.00  0.00     0.189 HD
HETATM   19  N10 UNL     1      -8.742  -7.460  -7.449  1.00  0.00    -0.205 N 
ATOM     20  H9  UNL     1      -9.795  -7.463  -5.647  1.00  0.00     0.210 HD
ATOM     21  H10 UNL     1      -8.317  -6.534  -7.426  1.00  0.00     0.212 HD
ENDBRANCH   9  14
ENDBRANCH   2   6
BRANCH   1  22
HETATM   22  C4  UNL     1      -4.988  -6.090  -6.313  1.00  0.00     0.067 C 
BRANCH  22  23
HETATM   23  N3  UNL     1      -4.372  -7.004  -5.698  1.00  0.00    -0.382 N 
ATOM     24  H3  UNL     1      -4.507  -7.953  -6.046  1.00  0.00     0.164 HD
BRANCH  23  25
HETATM   25  C3  UNL     1      -3.517  -6.862  -4.587  1.00  0.00     0.061 C 
BRANCH  25  26
HETATM   26  C2  UNL     1      -2.250  -7.679  -4.697  1.00  0.00     0.065 C 
BRANCH  26  27
HETATM   27  C1  UNL     1      -1.093  -6.942  -4.023  1.00  0.00     0.144 C 
BRANCH  27  28
HETATM   28  N2  UNL     1      -1.315  -5.524  -4.034  1.00  0.00    -0.343 N 
ATOM     29  H2  UNL     1      -2.237  -5.179  -3.767  1.00  0.00     0.179 HD
BRANCH  28  30
HETATM   30  N1  UNL     1      -0.447  -4.696  -4.351  1.00  0.00    -0.349 N 
ATOM     31  H12 UNL     1      -0.753  -3.879  -4.879  1.00  0.00     0.176 HD
ATOM     32  H11 UNL     1       0.541  -4.793  -4.112  1.00  0.00     0.176 HD
ENDBRANCH  28  30
ENDBRANCH  27  28
ENDBRANCH  26  27
ENDBRANCH  25  26
ENDBRANCH  23  25
ENDBRANCH  22  23
ENDBRANCH   1  22
BRANCH   5  33
HETATM   33  C12 UNL     1      -2.509  -4.979  -7.195  1.00  0.00     0.236 C 
HETATM   34  N11 UNL     1      -1.125  -5.250  -7.190  1.00  0.00    -0.062 NA
HETATM   35  O1  UNL     1      -2.968  -4.174  -6.354  1.00  0.00    -0.276 OA
ENDBRANCH   5  33
TORSDOF 10
ENDMDL
MODEL 5
REMARK VINA RESULT: -7.368362531      3.620      5.166
REMARK  10 active torsions:
REMARK  status: ('A' for Active; 'I' for Inactive)
REMARK    1  A    between atoms: N1_1  and  N2_4 
REMARK    2  A    between atoms: N2_4  and  C1_6 
REMARK    3  A    between atoms: C1_6  and  C2_7 
REMARK    4  A    between atoms: C2_7  and  C3_8 
REMARK    5  A    between atoms: C3_8  and  N3_9 
REMARK    6  A    between atoms: N3_9  and  C4_11 
REMARK    7  A    between atoms: C4_11  and  C5_12 
REMARK    8  A    between atoms: C6_13  and  N4_14 
REMARK       I    between atoms: N4_14  and  C7_16 
REMARK       I    between atoms: C7_16  and  N5_17 
REMARK       I    between atoms: C7_16  and  N6_20 
REMARK    9  A    between atoms: N6_20  and  N7_22 
REMARK   10  A    between atoms: C11_32  and  C12_33 
ROOT
HETATM    1  C5  UNL     1      -2.799  -6.048  -3.467  1.00  0.00     0.060 C 
HETATM    2  C6  UNL     1      -1.870  -4.857  -3.440  1.00  0.00     0.109 C 
HETATM    3  C9  UNL     1      -0.482  -5.350  -3.700  1.00  0.00     0.027 C 
HETATM    4  C10 UNL     1      -0.735  -6.698  -4.347  1.00  0.00     0.016 C 
HETATM    5  C11 UNL     1      -1.839  -7.216  -3.414  1.00  0.00     0.086 C 
ENDROOT
BRANCH   2   6
HETATM    6  N4  UNL     1      -1.901  -4.208  -2.140  1.00  0.00    -0.220 N 
HETATM    7  C7  UNL     1      -1.344  -2.915  -1.952  1.00  0.00     0.688 C 
HETATM    8  N5  UNL     1      -1.674  -2.259  -0.895  1.00  0.00    -0.234 N 
HETATM    9  N6  UNL     1      -0.441  -2.343  -2.901  1.00  0.00    -0.109 N 
ATOM     10  H52 UNL     1      -2.319  -2.667  -0.218  1.00  0.00     0.174 HD
ATOM     11  H51 UNL     1      -1.274  -1.330  -0.760  1.00  0.00     0.174 HD
ATOM     12  H6  UNL     1       0.549  -2.585  -2.876  1.00  0.00     0.208 HD
ATOM     13  H4  UNL     1      -2.330  -4.689  -1.349  1.00  0.00     0.178 HD
BRANCH   9  14
HETATM   14  N7  UNL     1      -0.920  -1.454  -3.860  1.00  0.00    -0.161 N 
HETATM   15  C8  UNL     1      -0.992  -0.113  -3.784  1.00  0.00     0.246 A 
HETATM   16  N8  UNL     1      -1.519   0.331  -4.939  1.00  0.00    -0.277 N 
HETATM   17  N9  UNL     1      -1.771  -0.709  -5.721  1.00  0.00    -0.226 N 
ATOM     18  H8  UNL     1      -1.695   1.308  -5.174  1.00  0.00     0.189 HD
HETATM   19  N10 UNL     1      -1.401  -1.769  -5.047  1.00  0.00    -0.205 N 
ATOM     20  H9  UNL     1      -2.173  -0.689  -6.659  1.00  0.00     0.210 HD
ATOM     21  H10 UNL     1      -1.475  -2.723  -5.398  1.00  0.00     0.212 HD
ENDBRANCH   9  14
ENDBRANCH   2   6
BRANCH   1  22
HETATM   22  C4  UNL     1      -3.639  -6.038  -4.673  1.00  0.00     0.067 C 
BRANCH  22  23
HETATM   23  N3  UNL     1      -3.619  -5.177  -5.596  1.00  0.00    -0.382 N 
ATOM     24  H3  UNL     1      -3.407  -4.220  -5.316  1.00  0.00     0.164 HD
BRANCH  23  25
HETATM   25  C3  UNL     1      -3.855  -5.387  -6.969  1.00  0.00     0.061 C 
BRANCH  25  26
HETATM   26  C2  UNL     1      -4.089  -6.838  -7.322  1.00  0.00     0.065 C 
BRANCH  26  27
HETATM   27  C1  UNL     1      -5.461  -7.001  -7.978  1.00  0.00     0.144 C 
BRANCH  27  28
HETATM   28  N2  UNL     1      -6.511  -6.804  -7.020  1.00  0.00    -0.343 N 
ATOM     29  H2  UNL     1      -6.257  -6.493  -6.083  1.00  0.00     0.179 HD
BRANCH  28  30
HETATM   30  N1  UNL     1      -7.712  -6.992  -7.270  1.00  0.00    -0.349 N 
ATOM     31  H12 UNL     1      -8.335  -6.188  -7.190  1.00  0.00     0.176 HD
ATOM     32  H11 UNL     1      -8.097  -7.896  -7.547  1.00  0.00     0.176 HD
ENDBRANCH  28  30
ENDBRANCH  27  28
ENDBRANCH  26  27
ENDBRANCH  25  26
ENDBRANCH  23  25
ENDBRANCH  22  23
ENDBRANCH   1  22
BRANCH   5  33
HETATM   33  C12 UNL     1      -2.405  -8.479  -3.848  1.00  0.00     0.236 C 
HETATM   34  N11 UNL     1      -3.117  -9.293  -2.942  1.00  0.00    -0.062 NA
HETATM   35  O1  UNL     1      -2.273  -8.867  -5.030  1.00  0.00    -0.276 OA
ENDBRANCH   5  33
TORSDOF 10
ENDMDL
