MODEL 1
REMARK VINA RESULT: -7.841561331      0.000      0.000
REMARK  10 active torsions:
REMARK  status: ('A' for Active; 'I' for Inactive)
REMARK    1  A    between atoms: N1_1  and  C1_5 
REMARK    2  A    between atoms: C1_5  and  C2_6 
REMARK    3  A    between atoms: C1_5  and  C9_18 
REMARK    4  A    between atoms: C2_6  and  N2_7 
REMARK    5  A    between atoms: C6_11  and  O1_12 
REMARK    6  A    between atoms: C7_14  and  C8_15 
REMARK    7  A    between atoms: C8_15  and  O2_16 
REMARK    8  A    between atoms: C9_18  and  O3_19 
REMARK    9  A    between atoms: C9_18  and  C10_21 
REMARK   10  A    between atoms: C10_21  and  N3_22 
ROOT
HETATM    1  C1  UNL     1      -5.182  -7.057  -8.372  1.00  0.00     0.231 C 
ENDROOT
BRANCH   1   2
HETATM    2  N1  UNL     1      -4.734  -7.088  -9.728  1.00  0.00    -0.071 N 
ATOM      3  H13 UNL     1      -4.047  -6.357  -9.907  1.00  0.00     0.274 HD
ATOM      4  H12 UNL     1      -4.150  -7.906  -9.906  1.00  0.00     0.274 HD
ATOM      5  H11 UNL     1      -5.508  -7.038 -10.390  1.00  0.00     0.274 HD
ENDBRANCH   1   2
BRANCH   1   6
HETATM    6  C2  UNL     1      -4.731  -5.803  -7.650  1.00  0.00     0.158 C 
BRANCH   6   7
HETATM    7  N2  UNL     1      -3.918  -6.032  -6.521  1.00  0.00    -0.382 N 
HETATM    8  C3  UNL     1      -3.746  -7.339  -6.047  1.00  0.00     0.059 C 
HETATM    9  C4  UNL     1      -2.407  -7.723  -5.525  1.00  0.00     0.047 C 
HETATM   10  C5  UNL     1      -1.609  -6.627  -4.920  1.00  0.00     0.039 C 
HETATM   11  C6  UNL     1      -1.748  -5.301  -5.614  1.00  0.00     0.143 C 
HETATM   12  C7  UNL     1      -3.163  -4.976  -5.997  1.00  0.00     0.135 C 
BRANCH  11  13
HETATM   13  O1  UNL     1      -0.874  -5.262  -6.698  1.00  0.00    -0.393 OA
ATOM     14  H1  UNL     1      -0.914  -4.402  -7.098  1.00  0.00     0.210 HD
ENDBRANCH  11  13
BRANCH  12  15
HETATM   15  C8  UNL     1      -3.847  -4.417  -4.752  1.00  0.00     0.191 C 
BRANCH  15  16
HETATM   16  O2  UNL     1      -3.354  -3.134  -4.480  1.00  0.00    -0.399 OA
ATOM     17  H2  UNL     1      -4.064  -2.574  -4.189  1.00  0.00     0.209 HD
ENDBRANCH  15  16
ENDBRANCH  12  15
ENDBRANCH   6   7
ENDBRANCH   1   6
BRANCH   1  18
HETATM   18  C9  UNL     1      -6.657  -7.260  -8.299  1.00  0.00     0.168 C 
BRANCH  18  19
HETATM   19  O3  UNL     1      -7.193  -6.358  -7.379  1.00  0.00    -0.392 OA
ATOM     20  H3  UNL     1      -7.487  -5.583  -7.844  1.00  0.00     0.210 HD
ENDBRANCH  18  19
BRANCH  18  21
HETATM   21  C10 UNL     1      -7.320  -7.055  -9.622  1.00  0.00     0.155 C 
BRANCH  21  22
HETATM   22  N3  UNL     1      -8.316  -8.004  -9.946  1.00  0.00    -0.391 N 
HETATM   23  C11 UNL     1      -8.602  -8.256 -11.299  1.00  0.00     0.058 C 
HETATM   24  C12 UNL     1      -9.974  -8.839 -11.352  1.00  0.00     0.046 C 
HETATM   25  C13 UNL     1     -10.405  -9.007  -9.924  1.00  0.00     0.025 C 
HETATM   26  C14 UNL     1      -9.514  -7.998  -9.178  1.00  0.00     0.122 C 
ENDBRANCH  21  22
ENDBRANCH  18  21
ENDBRANCH   1  18
TORSDOF 10
ENDMDL
MODEL 2
REMARK VINA RESULT: -7.475934264      2.603      7.660
REMARK  10 active torsions:
REMARK  status: ('A' for Active; 'I' for Inactive)
REMARK    1  A    between atoms: N1_1  and  C1_5 
REMARK    2  A    between atoms: C1_5  and  C2_6 
REMARK    3  A    between atoms: C1_5  and  C9_18 
REMARK    4  A    between atoms: C2_6  and  N2_7 
REMARK    5  A    between atoms: C6_11  and  O1_12 
REMARK    6  A    between atoms: C7_14  and  C8_15 
REMARK    7  A    between atoms: C8_15  and  O2_16 
REMARK    8  A    between atoms: C9_18  and  O3_19 
REMARK    9  A    between atoms: C9_18  and  C10_21 
REMARK   10  A    between atoms: C10_21  and  N3_22 
ROOT
HETATM    1  C1  UNL     1      -7.986  -7.673  -9.762  1.00  0.00     0.231 C 
ENDROOT
BRANCH   1   2
HETATM    2  N1  UNL     1      -7.261  -8.038 -10.937  1.00  0.00    -0.071 N 
ATOM      3  H13 UNL     1      -6.266  -7.837 -10.835  1.00  0.00     0.274 HD
ATOM      4  H12 UNL     1      -7.211  -9.052 -11.040  1.00  0.00     0.274 HD
ATOM      5  H11 UNL     1      -7.642  -7.601 -11.776  1.00  0.00     0.274 HD
ENDBRANCH   1   2
BRANCH   1   6
HETATM    6  C2  UNL     1      -8.531  -8.881  -9.027  1.00  0.00     0.158 C 
BRANCH   6   7
HETATM    7  N2  UNL     1      -9.930  -8.884  -8.853  1.00  0.00    -0.382 N 
HETATM    8  C3  UNL     1     -10.744  -8.231  -9.787  1.00  0.00     0.059 C 
HETATM    9  C4  UNL     1     -12.048  -8.854 -10.136  1.00  0.00     0.047 C 
HETATM   10  C5  UNL     1     -12.687  -9.663  -9.066  1.00  0.00     0.039 C 
HETATM   11  C6  UNL     1     -11.723 -10.453  -8.226  1.00  0.00     0.143 C 
HETATM   12  C7  UNL     1     -10.493  -9.679  -7.848  1.00  0.00     0.135 C 
BRANCH  11  13
HETATM   13  O1  UNL     1     -11.428 -11.649  -8.876  1.00  0.00    -0.393 OA
ATOM     14  H1  UNL     1     -11.872 -12.361  -8.432  1.00  0.00     0.210 HD
ENDBRANCH  11  13
BRANCH  12  15
HETATM   15  C8  UNL     1     -10.859  -8.814  -6.645  1.00  0.00     0.191 C 
BRANCH  15  16
HETATM   16  O2  UNL     1     -10.113  -7.628  -6.673  1.00  0.00    -0.399 OA
ATOM     17  H2  UNL     1     -10.399  -7.054  -5.972  1.00  0.00     0.209 HD
ENDBRANCH  15  16
ENDBRANCH  12  15
ENDBRANCH   6   7
ENDBRANCH   1   6
BRANCH   1  18
HETATM   18  C9  UNL     1      -7.159  -6.794  -8.884  1.00  0.00     0.168 C 
BRANCH  18  19
HETATM   19  O3  UNL     1      -7.796  -6.661  -7.650  1.00  0.00    -0.392 OA
ATOM     20  H3  UNL     1      -7.397  -5.942  -7.175  1.00  0.00     0.210 HD
ENDBRANCH  18  19
BRANCH  18  21
HETATM   21  C10 UNL     1      -5.788  -7.346  -8.667  1.00  0.00     0.155 C 
BRANCH  21  22
HETATM   22  N3  UNL     1      -4.920  -6.516  -7.923  1.00  0.00    -0.391 N 
HETATM   23  C11 UNL     1      -3.971  -5.736  -8.608  1.00  0.00     0.058 C 
HETATM   24  C12 UNL     1      -2.894  -5.405  -7.629  1.00  0.00     0.046 C 
HETATM   25  C13 UNL     1      -3.354  -5.954  -6.310  1.00  0.00     0.025 C 
HETATM   26  C14 UNL     1      -4.361  -7.042  -6.725  1.00  0.00     0.122 C 
ENDBRANCH  21  22
ENDBRANCH  18  21
ENDBRANCH   1  18
TORSDOF 10
ENDMDL
MODEL 3
REMARK VINA RESULT: -7.403212657      1.265      1.546
REMARK  10 active torsions:
REMARK  status: ('A' for Active; 'I' for Inactive)
REMARK    1  A    between atoms: N1_1  and  C1_5 
REMARK    2  A    between atoms: C1_5  and  C2_6 
REMARK    3  A    between atoms: C1_5  and  C9_18 
REMARK    4  A    between atoms: C2_6  and  N2_7 
REMARK    5  A    between atoms: C6_11  and  O1_12 
REMARK    6  A    between atoms: C7_14  and  C8_15 
REMARK    7  A    between atoms: C8_15  and  O2_16 
REMARK    8  A    between atoms: C9_18  and  O3_19 
REMARK    9  A    between atoms: C9_18  and  C10_21 
REMARK   10  A    between atoms: C10_21  and  N3_22 
ROOT
HETATM    1  C1  UNL     1      -5.382  -6.278  -7.835  1.00  0.00     0.231 C 
ENDROOT
BRANCH   1   2
HETATM    2  N1  UNL     1      -6.094  -6.797  -6.710  1.00  0.00    -0.071 N 
ATOM      3  H13 UNL     1      -6.883  -6.199  -6.465  1.00  0.00     0.274 HD
ATOM      4  H12 UNL     1      -6.604  -7.646  -6.956  1.00  0.00     0.274 HD
ATOM      5  H11 UNL     1      -5.485  -6.951  -5.907  1.00  0.00     0.274 HD
ENDBRANCH   1   2
BRANCH   1   6
HETATM    6  C2  UNL     1      -3.896  -6.564  -7.752  1.00  0.00     0.158 C 
BRANCH   6   7
HETATM    7  N2  UNL     1      -3.353  -6.488  -6.453  1.00  0.00    -0.382 N 
HETATM    8  C3  UNL     1      -3.129  -7.664  -5.726  1.00  0.00     0.059 C 
HETATM    9  C4  UNL     1      -1.916  -7.739  -4.870  1.00  0.00     0.047 C 
HETATM   10  C5  UNL     1      -1.435  -6.448  -4.314  1.00  0.00     0.039 C 
HETATM   11  C6  UNL     1      -1.576  -5.279  -5.248  1.00  0.00     0.143 C 
HETATM   12  C7  UNL     1      -2.889  -5.256  -5.976  1.00  0.00     0.135 C 
BRANCH  11  13
HETATM   13  O1  UNL     1      -0.482  -5.251  -6.109  1.00  0.00    -0.393 OA
ATOM     14  H1  UNL     1      -0.086  -6.115  -6.137  1.00  0.00     0.210 HD
ENDBRANCH  11  13
BRANCH  12  15
HETATM   15  C8  UNL     1      -3.917  -4.645  -5.028  1.00  0.00     0.191 C 
BRANCH  15  16
HETATM   16  O2  UNL     1      -3.512  -3.356  -4.660  1.00  0.00    -0.399 OA
ATOM     17  H2  UNL     1      -4.144  -2.981  -4.059  1.00  0.00     0.209 HD
ENDBRANCH  15  16
ENDBRANCH  12  15
ENDBRANCH   6   7
ENDBRANCH   1   6
BRANCH   1  18
HETATM   18  C9  UNL     1      -5.987  -6.761  -9.110  1.00  0.00     0.168 C 
BRANCH  18  19
HETATM   19  O3  UNL     1      -4.964  -7.143  -9.978  1.00  0.00    -0.392 OA
ATOM     20  H3  UNL     1      -5.055  -8.069 -10.171  1.00  0.00     0.210 HD
ENDBRANCH  18  19
BRANCH  18  21
HETATM   21  C10 UNL     1      -6.901  -7.922  -8.895  1.00  0.00     0.155 C 
BRANCH  21  22
HETATM   22  N3  UNL     1      -8.046  -7.943  -9.723  1.00  0.00    -0.391 N 
HETATM   23  C11 UNL     1      -9.316  -8.037  -9.126  1.00  0.00     0.058 C 
HETATM   24  C12 UNL     1     -10.247  -8.565 -10.166  1.00  0.00     0.046 C 
HETATM   25  C13 UNL     1      -9.442  -8.655 -11.430  1.00  0.00     0.025 C 
HETATM   26  C14 UNL     1      -7.995  -8.726 -10.909  1.00  0.00     0.122 C 
ENDBRANCH  21  22
ENDBRANCH  18  21
ENDBRANCH   1  18
TORSDOF 10
ENDMDL
MODEL 4
REMARK VINA RESULT: -7.217320017      1.751      2.594
REMARK  10 active torsions:
REMARK  status: ('A' for Active; 'I' for Inactive)
REMARK    1  A    between atoms: N1_1  and  C1_5 
REMARK    2  A    between atoms: C1_5  and  C2_6 
REMARK    3  A    between atoms: C1_5  and  C9_18 
REMARK    4  A    between atoms: C2_6  and  N2_7 
REMARK    5  A    between atoms: C6_11  and  O1_12 
REMARK    6  A    between atoms: C7_14  and  C8_15 
REMARK    7  A    between atoms: C8_15  and  O2_16 
REMARK    8  A    between atoms: C9_18  and  O3_19 
REMARK    9  A    between atoms: C9_18  and  C10_21 
REMARK   10  A    between atoms: C10_21  and  N3_22 
ROOT
HETATM    1  C1  UNL     1      -6.005  -6.612  -8.044  1.00  0.00     0.231 C 
ENDROOT
BRANCH   1   2
HETATM    2  N1  UNL     1      -6.661  -6.899  -6.808  1.00  0.00    -0.071 N 
ATOM      3  H13 UNL     1      -7.123  -6.070  -6.435  1.00  0.00     0.274 HD
ATOM      4  H12 UNL     1      -7.480  -7.490  -6.952  1.00  0.00     0.274 HD
ATOM      5  H11 UNL     1      -6.027  -7.309  -6.122  1.00  0.00     0.274 HD
ENDBRANCH   1   2
BRANCH   1   6
HETATM    6  C2  UNL     1      -4.735  -7.422  -8.219  1.00  0.00     0.158 C 
BRANCH   6   7
HETATM    7  N2  UNL     1      -3.613  -6.912  -7.535  1.00  0.00    -0.382 N 
HETATM    8  C3  UNL     1      -2.622  -6.224  -8.247  1.00  0.00     0.059 C 
HETATM    9  C4  UNL     1      -1.978  -5.053  -7.596  1.00  0.00     0.047 C 
HETATM   10  C5  UNL     1      -1.898  -5.098  -6.114  1.00  0.00     0.039 C 
HETATM   11  C6  UNL     1      -3.095  -5.714  -5.446  1.00  0.00     0.143 C 
HETATM   12  C7  UNL     1      -3.588  -6.953  -6.136  1.00  0.00     0.135 C 
BRANCH  11  13
HETATM   13  O1  UNL     1      -4.085  -4.745  -5.306  1.00  0.00    -0.393 OA
ATOM     14  H1  UNL     1      -4.920  -5.115  -5.569  1.00  0.00     0.210 HD
ENDBRANCH  11  13
BRANCH  12  15
HETATM   15  C8  UNL     1      -2.709  -8.109  -5.666  1.00  0.00     0.191 C 
BRANCH  15  16
HETATM   16  O2  UNL     1      -3.179  -8.590  -4.437  1.00  0.00    -0.399 OA
ATOM     17  H2  UNL     1      -3.529  -7.871  -3.925  1.00  0.00     0.209 HD
ENDBRANCH  15  16
ENDBRANCH  12  15
ENDBRANCH   6   7
ENDBRANCH   1   6
BRANCH   1  18
HETATM   18  C9  UNL     1      -6.947  -6.771  -9.189  1.00  0.00     0.168 C 
BRANCH  18  19
HETATM   19  O3  UNL     1      -6.227  -6.685 -10.382  1.00  0.00    -0.392 OA
ATOM     20  H3  UNL     1      -6.785  -6.964 -11.098  1.00  0.00     0.210 HD
ENDBRANCH  18  19
BRANCH  18  21
HETATM   21  C10 UNL     1      -7.666  -8.080  -9.150  1.00  0.00     0.155 C 
BRANCH  21  22
HETATM   22  N3  UNL     1      -8.878  -8.119  -9.876  1.00  0.00    -0.391 N 
HETATM   23  C11 UNL     1     -10.089  -8.241  -9.172  1.00  0.00     0.058 C 
HETATM   24  C12 UNL     1     -11.096  -8.782 -10.132  1.00  0.00     0.046 C 
HETATM   25  C13 UNL     1     -10.402  -8.850 -11.460  1.00  0.00     0.025 C 
HETATM   26  C14 UNL     1      -8.914  -8.895 -11.067  1.00  0.00     0.122 C 
ENDBRANCH  21  22
ENDBRANCH  18  21
ENDBRANCH   1  18
TORSDOF 10
ENDMDL
MODEL 5
REMARK VINA RESULT: -7.122696700      2.258      3.766
REMARK  10 active torsions:
REMARK  status: ('A' for Active; 'I' for Inactive)
REMARK    1  A    between atoms: N1_1  and  C1_5 
REMARK    2  A    between atoms: C1_5  and  C2_6 
REMARK    3  A    between atoms: C1_5  and  C9_18 
REMARK    4  A    between atoms: C2_6  and  N2_7 
REMARK    5  A    between atoms: C6_11  and  O1_12 
REMARK    6  A    between atoms: C7_14  and  C8_15 
REMARK    7  A    between atoms: C8_15  and  O2_16 
REMARK    8  A    between atoms: C9_18  and  O3_19 
REMARK    9  A    between atoms: C9_18  and  C10_21 
REMARK   10  A    between atoms: C10_21  and  N3_22 
ROOT
HETATM    1  C1  UNL     1      -3.136  -5.635  -6.665  1.00  0.00     0.231 C 
ENDROOT
BRANCH   1   2
HETATM    2  N1  UNL     1      -3.128  -4.885  -7.880  1.00  0.00    -0.071 N 
ATOM      3  H13 UNL     1      -4.024  -4.424  -8.035  1.00  0.00     0.274 HD
ATOM      4  H12 UNL     1      -2.533  -4.060  -7.801  1.00  0.00     0.274 HD
ATOM      5  H11 UNL     1      -2.862  -5.456  -8.683  1.00  0.00     0.274 HD
ENDBRANCH   1   2
BRANCH   1   6
HETATM    6  C2  UNL     1      -3.605  -4.807  -5.485  1.00  0.00     0.158 C 
BRANCH   6   7
HETATM    7  N2  UNL     1      -2.589  -4.445  -4.577  1.00  0.00    -0.382 N 
HETATM    8  C3  UNL     1      -2.251  -3.095  -4.419  1.00  0.00     0.059 C 
HETATM    9  C4  UNL     1      -1.902  -2.616  -3.055  1.00  0.00     0.047 C 
HETATM   10  C5  UNL     1      -1.286  -3.622  -2.153  1.00  0.00     0.039 C 
HETATM   11  C6  UNL     1      -1.843  -5.010  -2.298  1.00  0.00     0.143 C 
HETATM   12  C7  UNL     1      -2.052  -5.420  -3.728  1.00  0.00     0.135 C 
BRANCH  11  13
HETATM   13  O1  UNL     1      -3.002  -5.117  -1.533  1.00  0.00    -0.393 OA
ATOM     14  H1  UNL     1      -3.731  -5.335  -2.103  1.00  0.00     0.210 HD
ENDBRANCH  11  13
BRANCH  12  15
HETATM   15  C8  UNL     1      -0.700  -5.887  -4.263  1.00  0.00     0.191 C 
BRANCH  15  16
HETATM   16  O2  UNL     1      -0.792  -7.224  -4.672  1.00  0.00    -0.399 OA
ATOM     17  H2  UNL     1      -0.007  -7.692  -4.413  1.00  0.00     0.209 HD
ENDBRANCH  15  16
ENDBRANCH  12  15
ENDBRANCH   6   7
ENDBRANCH   1   6
BRANCH   1  18
HETATM   18  C9  UNL     1      -3.919  -6.894  -6.827  1.00  0.00     0.168 C 
BRANCH  18  19
HETATM   19  O3  UNL     1      -3.657  -7.732  -5.742  1.00  0.00    -0.392 OA
ATOM     20  H3  UNL     1      -3.157  -7.249  -5.095  1.00  0.00     0.210 HD
ENDBRANCH  18  19
BRANCH  18  21
HETATM   21  C10 UNL     1      -5.388  -6.638  -6.901  1.00  0.00     0.155 C 
BRANCH  21  22
HETATM   22  N3  UNL     1      -6.046  -7.237  -7.999  1.00  0.00    -0.391 N 
HETATM   23  C11 UNL     1      -5.530  -7.037  -9.292  1.00  0.00     0.058 C 
HETATM   24  C12 UNL     1      -6.646  -7.293 -10.249  1.00  0.00     0.046 C 
HETATM   25  C13 UNL     1      -7.802  -7.763  -9.416  1.00  0.00     0.025 C 
HETATM   26  C14 UNL     1      -7.468  -7.205  -8.021  1.00  0.00     0.122 C 
ENDBRANCH  21  22
ENDBRANCH  18  21
ENDBRANCH   1  18
TORSDOF 10
ENDMDL
