MODEL 1
REMARK VINA RESULT: -6.635531037      0.000      0.000
REMARK  9 active torsions:
REMARK  status: ('A' for Active; 'I' for Inactive)
REMARK    1  A    between atoms: S1_2  and  C2_4 
REMARK    2  A    between atoms: C2_4  and  C3_5 
REMARK    3  A    between atoms: C3_5  and  S2_6 
REMARK    4  A    between atoms: S2_6  and  C4_7 
REMARK    5  A    between atoms: C4_7  and  C5_8 
REMARK    6  A    between atoms: C7_10  and  O2_11 
REMARK    7  A    between atoms: C8_13  and  O3_14 
REMARK    8  A    between atoms: C9_16  and  C10_17 
REMARK    9  A    between atoms: C10_17  and  N1_18 
ROOT
HETATM    1  C5  UNL     1      -7.274  -6.900 -10.274  1.00  0.00     0.134 C 
HETATM    2  C6  UNL     1      -7.883  -6.618  -8.937  1.00  0.00     0.067 C 
HETATM    3  C7  UNL     1      -8.352  -7.878  -8.234  1.00  0.00     0.151 C 
HETATM    4  C8  UNL     1      -9.063  -8.794  -9.194  1.00  0.00     0.177 C 
HETATM    5  C9  UNL     1      -9.272  -8.020 -10.486  1.00  0.00     0.178 C 
HETATM    6  O4  UNL     1      -8.022  -7.773 -11.030  1.00  0.00    -0.375 OA
ENDROOT
BRANCH   1   7
HETATM    7  C4  UNL     1      -5.828  -7.385 -10.139  1.00  0.00     0.105 C 
BRANCH   7   8
HETATM    8  S2  UNL     1      -4.841  -6.257  -9.157  1.00  0.00    -0.166 SA
BRANCH   8   9
HETATM    9  C3  UNL     1      -4.427  -6.943  -7.531  1.00  0.00     0.086 C 
BRANCH   9  10
HETATM   10  C2  UNL     1      -4.692  -5.913  -6.486  1.00  0.00     0.118 C 
BRANCH  10  11
HETATM   11  S1  UNL     1      -3.206  -5.201  -5.834  1.00  0.00     0.011 S 
HETATM   12  C1  UNL     1      -1.854  -5.340  -6.968  1.00  0.00     0.127 C 
HETATM   13  O1  UNL     1      -3.403  -3.604  -5.424  1.00  0.00    -0.258 OA
ENDBRANCH  10  11
ENDBRANCH   9  10
ENDBRANCH   8   9
ENDBRANCH   7   8
ENDBRANCH   1   7
BRANCH   3  14
HETATM   14  O2  UNL     1      -9.231  -7.500  -7.233  1.00  0.00    -0.393 OA
ATOM     15  H2  UNL     1      -9.959  -8.110  -7.243  1.00  0.00     0.210 HD
ENDBRANCH   3  14
BRANCH   5  16
HETATM   16  C10 UNL     1     -10.068  -8.919 -11.403  1.00  0.00     0.264 C 
BRANCH  16  17
HETATM   17  N1  UNL     1     -10.877  -9.856 -10.688  1.00  0.00    -0.077 N 
ATOM     18  H13 UNL     1     -10.303 -10.577 -10.251  1.00  0.00     0.274 HD
ATOM     19  H12 UNL     1     -11.274  -9.431  -9.849  1.00  0.00     0.274 HD
ATOM     20  H11 UNL     1     -11.606 -10.269 -11.270  1.00  0.00     0.274 HD
ENDBRANCH  16  17
ENDBRANCH   5  16
BRANCH   4  21
HETATM   21  O3  UNL     1      -8.270  -9.916  -9.438  1.00  0.00    -0.390 OA
ATOM     22  H3  UNL     1      -8.124 -10.003 -10.373  1.00  0.00     0.210 HD
ENDBRANCH   4  21
TORSDOF 9
ENDMDL
MODEL 2
REMARK VINA RESULT: -6.487713424      1.144      1.162
REMARK  9 active torsions:
REMARK  status: ('A' for Active; 'I' for Inactive)
REMARK    1  A    between atoms: S1_2  and  C2_4 
REMARK    2  A    between atoms: C2_4  and  C3_5 
REMARK    3  A    between atoms: C3_5  and  S2_6 
REMARK    4  A    between atoms: S2_6  and  C4_7 
REMARK    5  A    between atoms: C4_7  and  C5_8 
REMARK    6  A    between atoms: C7_10  and  O2_11 
REMARK    7  A    between atoms: C8_13  and  O3_14 
REMARK    8  A    between atoms: C9_16  and  C10_17 
REMARK    9  A    between atoms: C10_17  and  N1_18 
ROOT
HETATM    1  C5  UNL     1      -6.985  -6.825 -10.030  1.00  0.00     0.134 C 
HETATM    2  C6  UNL     1      -7.731  -6.610  -8.751  1.00  0.00     0.067 C 
HETATM    3  C7  UNL     1      -8.266  -7.903  -8.165  1.00  0.00     0.151 C 
HETATM    4  C8  UNL     1      -8.869  -8.768  -9.239  1.00  0.00     0.177 C 
HETATM    5  C9  UNL     1      -8.946  -7.929 -10.505  1.00  0.00     0.178 C 
HETATM    6  O4  UNL     1      -7.648  -7.657 -10.903  1.00  0.00    -0.375 OA
ENDROOT
BRANCH   1   7
HETATM    7  C4  UNL     1      -5.559  -7.318  -9.771  1.00  0.00     0.105 C 
BRANCH   7   8
HETATM    8  S2  UNL     1      -4.687  -6.249  -8.627  1.00  0.00    -0.166 SA
BRANCH   8   9
HETATM    9  C3  UNL     1      -4.704  -6.895  -6.934  1.00  0.00     0.086 C 
BRANCH   9  10
HETATM   10  C2  UNL     1      -3.300  -7.015  -6.444  1.00  0.00     0.118 C 
BRANCH  10  11
HETATM   11  S1  UNL     1      -2.442  -5.465  -6.440  1.00  0.00     0.011 S 
HETATM   12  C1  UNL     1      -3.146  -4.322  -5.287  1.00  0.00     0.127 C 
HETATM   13  O1  UNL     1      -0.825  -5.643  -6.103  1.00  0.00    -0.258 OA
ENDBRANCH  10  11
ENDBRANCH   9  10
ENDBRANCH   8   9
ENDBRANCH   7   8
ENDBRANCH   1   7
BRANCH   3  14
HETATM   14  O2  UNL     1      -9.244  -7.575  -7.243  1.00  0.00    -0.393 OA
ATOM     15  H2  UNL     1      -9.653  -8.383  -6.955  1.00  0.00     0.210 HD
ENDBRANCH   3  14
BRANCH   5  16
HETATM   16  C10 UNL     1      -9.639  -8.780 -11.544  1.00  0.00     0.264 C 
BRANCH  16  17
HETATM   17  N1  UNL     1     -10.559  -9.710 -10.967  1.00  0.00    -0.077 N 
ATOM     18  H13 UNL     1     -11.398  -9.236 -10.632  1.00  0.00     0.274 HD
ATOM     19  H12 UNL     1     -10.979 -10.302 -11.684  1.00  0.00     0.274 HD
ATOM     20  H11 UNL     1     -10.135 -10.273 -10.229  1.00  0.00     0.274 HD
ENDBRANCH  16  17
ENDBRANCH   5  16
BRANCH   4  21
HETATM   21  O3  UNL     1      -8.051  -9.878  -9.455  1.00  0.00    -0.390 OA
ATOM     22  H3  UNL     1      -7.380  -9.912  -8.783  1.00  0.00     0.210 HD
ENDBRANCH   4  21
TORSDOF 9
ENDMDL
MODEL 3
REMARK VINA RESULT: -6.383734718      3.828      7.664
REMARK  9 active torsions:
REMARK  status: ('A' for Active; 'I' for Inactive)
REMARK    1  A    between atoms: S1_2  and  C2_4 
REMARK    2  A    between atoms: C2_4  and  C3_5 
REMARK    3  A    between atoms: C3_5  and  S2_6 
REMARK    4  A    between atoms: S2_6  and  C4_7 
REMARK    5  A    between atoms: C4_7  and  C5_8 
REMARK    6  A    between atoms: C7_10  and  O2_11 
REMARK    7  A    between atoms: C8_13  and  O3_14 
REMARK    8  A    between atoms: C9_16  and  C10_17 
REMARK    9  A    between atoms: C10_17  and  N1_18 
ROOT
HETATM    1  C5  UNL     1      -3.766  -6.916  -6.705  1.00  0.00     0.134 C 
HETATM    2  C6  UNL     1      -4.237  -5.570  -6.252  1.00  0.00     0.067 C 
HETATM    3  C7  UNL     1      -3.102  -4.573  -6.113  1.00  0.00     0.151 C 
HETATM    4  C8  UNL     1      -1.911  -5.206  -5.444  1.00  0.00     0.177 C 
HETATM    5  C9  UNL     1      -2.355  -6.564  -4.922  1.00  0.00     0.178 C 
HETATM    6  O4  UNL     1      -2.656  -7.353  -6.020  1.00  0.00    -0.375 OA
ENDROOT
BRANCH   1   7
HETATM    7  C4  UNL     1      -3.531  -6.947  -8.218  1.00  0.00     0.105 C 
BRANCH   7   8
HETATM    8  S2  UNL     1      -4.951  -6.329  -9.120  1.00  0.00    -0.166 SA
BRANCH   8   9
HETATM    9  C3  UNL     1      -6.451  -7.289  -8.782  1.00  0.00     0.086 C 
BRANCH   9  10
HETATM   10  C2  UNL     1      -7.400  -7.128  -9.921  1.00  0.00     0.118 C 
BRANCH  10  11
HETATM   11  S1  UNL     1      -8.860  -8.115  -9.740  1.00  0.00     0.011 S 
HETATM   12  C1  UNL     1      -9.440  -8.728 -11.296  1.00  0.00     0.127 C 
HETATM   13  O1  UNL     1      -8.628  -9.396  -8.709  1.00  0.00    -0.258 OA
ENDBRANCH  10  11
ENDBRANCH   9  10
ENDBRANCH   8   9
ENDBRANCH   7   8
ENDBRANCH   1   7
BRANCH   3  14
HETATM   14  O2  UNL     1      -3.555  -3.524  -5.334  1.00  0.00    -0.393 OA
ATOM     15  H2  UNL     1      -3.182  -2.723  -5.682  1.00  0.00     0.210 HD
ENDBRANCH   3  14
BRANCH   5  16
HETATM   16  C10 UNL     1      -1.179  -7.144  -4.174  1.00  0.00     0.264 C 
BRANCH  16  17
HETATM   17  N1  UNL     1      -0.531  -6.181  -3.338  1.00  0.00    -0.077 N 
ATOM     18  H13 UNL     1       0.249  -5.739  -3.825  1.00  0.00     0.274 HD
ATOM     19  H12 UNL     1      -1.122  -5.362  -3.196  1.00  0.00     0.274 HD
ATOM     20  H11 UNL     1      -0.230  -6.576  -2.447  1.00  0.00     0.274 HD
ENDBRANCH  16  17
ENDBRANCH   5  16
BRANCH   4  21
HETATM   21  O3  UNL     1      -0.887  -5.370  -6.378  1.00  0.00    -0.390 OA
ATOM     22  H3  UNL     1      -0.308  -6.067  -6.092  1.00  0.00     0.210 HD
ENDBRANCH   4  21
TORSDOF 9
ENDMDL
MODEL 4
REMARK VINA RESULT: -6.264081975      1.880      2.767
REMARK  9 active torsions:
REMARK  status: ('A' for Active; 'I' for Inactive)
REMARK    1  A    between atoms: S1_2  and  C2_4 
REMARK    2  A    between atoms: C2_4  and  C3_5 
REMARK    3  A    between atoms: C3_5  and  S2_6 
REMARK    4  A    between atoms: S2_6  and  C4_7 
REMARK    5  A    between atoms: C4_7  and  C5_8 
REMARK    6  A    between atoms: C7_10  and  O2_11 
REMARK    7  A    between atoms: C8_13  and  O3_14 
REMARK    8  A    between atoms: C9_16  and  C10_17 
REMARK    9  A    between atoms: C10_17  and  N1_18 
ROOT
HETATM    1  C5  UNL     1      -7.951  -8.572  -9.039  1.00  0.00     0.134 C 
HETATM    2  C6  UNL     1      -8.320  -9.175 -10.357  1.00  0.00     0.067 C 
HETATM    3  C7  UNL     1      -9.770  -8.922 -10.727  1.00  0.00     0.151 C 
HETATM    4  C8  UNL     1     -10.670  -9.130  -9.538  1.00  0.00     0.177 C 
HETATM    5  C9  UNL     1      -9.828  -9.759  -8.439  1.00  0.00     0.178 C 
HETATM    6  O4  UNL     1      -8.879  -8.825  -8.056  1.00  0.00    -0.375 OA
ENDROOT
BRANCH   1   7
HETATM    7  C4  UNL     1      -7.675  -7.071  -9.167  1.00  0.00     0.105 C 
BRANCH   7   8
HETATM    8  S2  UNL     1      -5.918  -6.720  -9.181  1.00  0.00    -0.166 SA
BRANCH   8   9
HETATM    9  C3  UNL     1      -5.260  -6.442  -7.514  1.00  0.00     0.086 C 
BRANCH   9  10
HETATM   10  C2  UNL     1      -4.073  -5.543  -7.603  1.00  0.00     0.118 C 
BRANCH  10  11
HETATM   11  S1  UNL     1      -3.298  -5.275  -6.032  1.00  0.00     0.011 S 
HETATM   12  C1  UNL     1      -1.573  -5.666  -6.071  1.00  0.00     0.127 C 
HETATM   13  O1  UNL     1      -3.485  -3.714  -5.498  1.00  0.00    -0.258 OA
ENDBRANCH  10  11
ENDBRANCH   9  10
ENDBRANCH   8   9
ENDBRANCH   7   8
ENDBRANCH   1   7
BRANCH   3  14
HETATM   14  O2  UNL     1     -10.115  -9.821 -11.720  1.00  0.00    -0.393 OA
ATOM     15  H2  UNL     1     -10.776 -10.404 -11.365  1.00  0.00     0.210 HD
ENDBRANCH   3  14
BRANCH   5  16
HETATM   16  C10 UNL     1     -10.765 -10.047  -7.289  1.00  0.00     0.264 C 
BRANCH  16  17
HETATM   17  N1  UNL     1     -10.911  -8.931  -6.407  1.00  0.00    -0.077 N 
ATOM     18  H13 UNL     1     -10.002  -8.564  -6.127  1.00  0.00     0.274 HD
ATOM     19  H12 UNL     1     -11.272  -8.117  -6.904  1.00  0.00     0.274 HD
ATOM     20  H11 UNL     1     -11.486  -9.149  -5.593  1.00  0.00     0.274 HD
ENDBRANCH  16  17
ENDBRANCH   5  16
BRANCH   4  21
HETATM   21  O3  UNL     1     -11.165  -7.898  -9.109  1.00  0.00    -0.390 OA
ATOM     22  H3  UNL     1     -11.333  -7.933  -8.174  1.00  0.00     0.210 HD
ENDBRANCH   4  21
TORSDOF 9
ENDMDL
MODEL 5
REMARK VINA RESULT: -6.233473020      3.592      7.611
REMARK  9 active torsions:
REMARK  status: ('A' for Active; 'I' for Inactive)
REMARK    1  A    between atoms: S1_2  and  C2_4 
REMARK    2  A    between atoms: C2_4  and  C3_5 
REMARK    3  A    between atoms: C3_5  and  S2_6 
REMARK    4  A    between atoms: S2_6  and  C4_7 
REMARK    5  A    between atoms: C4_7  and  C5_8 
REMARK    6  A    between atoms: C7_10  and  O2_11 
REMARK    7  A    between atoms: C8_13  and  O3_14 
REMARK    8  A    between atoms: C9_16  and  C10_17 
REMARK    9  A    between atoms: C10_17  and  N1_18 
ROOT
HETATM    1  C5  UNL     1      -3.709  -6.892  -6.665  1.00  0.00     0.134 C 
HETATM    2  C6  UNL     1      -4.167  -5.537  -6.224  1.00  0.00     0.067 C 
HETATM    3  C7  UNL     1      -3.023  -4.549  -6.099  1.00  0.00     0.151 C 
HETATM    4  C8  UNL     1      -1.837  -5.185  -5.426  1.00  0.00     0.177 C 
HETATM    5  C9  UNL     1      -2.291  -6.533  -4.889  1.00  0.00     0.178 C 
HETATM    6  O4  UNL     1      -2.601  -7.332  -5.977  1.00  0.00    -0.375 OA
ENDROOT
BRANCH   1   7
HETATM    7  C4  UNL     1      -3.477  -6.940  -8.177  1.00  0.00     0.105 C 
BRANCH   7   8
HETATM    8  S2  UNL     1      -4.909  -6.360  -9.085  1.00  0.00    -0.166 SA
BRANCH   8   9
HETATM    9  C3  UNL     1      -6.420  -7.251  -8.626  1.00  0.00     0.086 C 
BRANCH   9  10
HETATM   10  C2  UNL     1      -7.481  -6.961  -9.633  1.00  0.00     0.118 C 
BRANCH  10  11
HETATM   11  S1  UNL     1      -8.606  -8.312  -9.851  1.00  0.00     0.011 S 
HETATM   12  C1  UNL     1      -9.979  -8.215  -8.738  1.00  0.00     0.127 C 
HETATM   13  O1  UNL     1      -9.180  -8.408 -11.406  1.00  0.00    -0.258 OA
ENDBRANCH  10  11
ENDBRANCH   9  10
ENDBRANCH   8   9
ENDBRANCH   7   8
ENDBRANCH   1   7
BRANCH   3  14
HETATM   14  O2  UNL     1      -3.465  -3.487  -5.330  1.00  0.00    -0.393 OA
ATOM     15  H2  UNL     1      -3.127  -2.688  -5.716  1.00  0.00     0.210 HD
ENDBRANCH   3  14
BRANCH   5  16
HETATM   16  C10 UNL     1      -1.118  -7.116  -4.136  1.00  0.00     0.264 C 
BRANCH  16  17
HETATM   17  N1  UNL     1      -1.419  -8.383  -3.546  1.00  0.00    -0.077 N 
ATOM     18  H13 UNL     1      -2.247  -8.323  -2.952  1.00  0.00     0.274 HD
ATOM     19  H12 UNL     1      -1.765  -9.040  -4.245  1.00  0.00     0.274 HD
ATOM     20  H11 UNL     1      -0.628  -8.774  -3.035  1.00  0.00     0.274 HD
ENDBRANCH  16  17
ENDBRANCH   5  16
BRANCH   4  21
HETATM   21  O3  UNL     1      -0.815  -5.368  -6.359  1.00  0.00    -0.390 OA
ATOM     22  H3  UNL     1       0.026  -5.239  -5.937  1.00  0.00     0.210 HD
ENDBRANCH   4  21
TORSDOF 9
ENDMDL
