MODEL 1
REMARK VINA RESULT: -7.824988262      0.000      0.000
REMARK  10 active torsions:
REMARK  status: ('A' for Active; 'I' for Inactive)
REMARK    1  A    between atoms: C2_2  and  C3_3 
REMARK    2  A    between atoms: C3_3  and  C4_4 
REMARK    3  A    between atoms: C4_4  and  C5_5 
REMARK    4  A    between atoms: C5_5  and  C6_6 
REMARK    5  A    between atoms: C6_6  and  N1_7 
REMARK    6  A    between atoms: N1_7  and  C7_9 
REMARK    7  A    between atoms: C8_12  and  N3_13 
REMARK    8  A    between atoms: C10_18  and  N5_19 
REMARK    9  A    between atoms: N5_19  and  C11_21 
REMARK   10  A    between atoms: C11_21  and  O1_22 
ROOT
HETATM    1  C7  UNL     1      -7.147  -7.039  -8.544  1.00  0.00     0.707 A 
HETATM    2  N2  UNL     1      -7.441  -7.350  -9.828  1.00  0.00    -0.022 N 
ATOM      3  H2  UNL     1      -6.767  -7.156 -10.569  1.00  0.00     0.203 HD
HETATM    4  C8  UNL     1      -8.622  -7.913 -10.120  1.00  0.00     0.706 A 
HETATM    5  N4  UNL     1      -9.524  -8.174  -9.149  1.00  0.00    -0.021 N 
ATOM      6  H4  UNL     1     -10.417  -8.601  -9.393  1.00  0.00     0.203 HD
HETATM    7  C10 UNL     1      -9.259  -7.876  -7.864  1.00  0.00     0.711 A 
HETATM    8  N6  UNL     1      -8.075  -7.313  -7.579  1.00  0.00    -0.021 N 
ATOM      9  H6  UNL     1      -7.860  -7.083  -6.608  1.00  0.00     0.203 HD
ENDROOT
BRANCH   1  10
HETATM   10  N1  UNL     1      -6.016  -6.498  -8.241  1.00  0.00    -0.225 N 
ATOM     11  H1  UNL     1      -5.832  -6.198  -7.283  1.00  0.00     0.177 HD
BRANCH  10  12
HETATM   12  C6  UNL     1      -5.023  -6.322  -9.255  1.00  0.00     0.138 C 
BRANCH  12  13
HETATM   13  C5  UNL     1      -3.727  -7.097  -8.882  1.00  0.00     0.020 C 
BRANCH  13  14
HETATM   14  C4  UNL     1      -3.290  -6.674  -7.512  1.00  0.00     0.002 C 
BRANCH  14  15
HETATM   15  C3  UNL     1      -2.221  -5.664  -7.401  1.00  0.00    -0.000 C 
BRANCH  15  16
HETATM   16  C2  UNL     1      -1.478  -5.591  -6.126  1.00  0.00    -0.005 C 
HETATM   17  C1  UNL     1      -1.624  -6.720  -5.166  1.00  0.00     0.005 C 
ENDBRANCH  15  16
ENDBRANCH  14  15
ENDBRANCH  13  14
ENDBRANCH  12  13
ENDBRANCH  10  12
ENDBRANCH   1  10
BRANCH   4  18
HETATM   18  N3  UNL     1      -8.891  -8.203 -11.336  1.00  0.00    -0.229 N 
HETATM   19  C9  UNL     1     -10.064  -8.963 -11.669  1.00  0.00     0.165 C 
ATOM     20  H3  UNL     1      -8.266  -7.890 -12.079  1.00  0.00     0.177 HD
ENDBRANCH   4  18
BRANCH   7  21
HETATM   21  N5  UNL     1     -10.080  -8.107  -6.923  1.00  0.00    -0.165 N 
ATOM     22  H5  UNL     1     -10.076  -7.444  -6.148  1.00  0.00     0.183 HD
BRANCH  21  23
HETATM   23  C11 UNL     1     -11.005  -9.183  -6.828  1.00  0.00     0.283 A 
HETATM   24  C12 UNL     1     -10.818 -10.382  -6.045  1.00  0.00     0.267 A 
HETATM   25  O2  UNL     1     -10.327 -10.429  -7.340  1.00  0.00    -0.329 OA
BRANCH  23  26
HETATM   26  O1  UNL     1     -12.204  -9.072  -7.560  1.00  0.00    -0.347 OA
ATOM     27  H1  UNL     1     -12.975  -9.496  -7.201  1.00  0.00     0.215 HD
ENDBRANCH  23  26
ENDBRANCH  21  23
ENDBRANCH   7  21
TORSDOF 10
ENDMDL
MODEL 2
REMARK VINA RESULT: -7.805424335      5.803      8.881
REMARK  10 active torsions:
REMARK  status: ('A' for Active; 'I' for Inactive)
REMARK    1  A    between atoms: C2_2  and  C3_3 
REMARK    2  A    between atoms: C3_3  and  C4_4 
REMARK    3  A    between atoms: C4_4  and  C5_5 
REMARK    4  A    between atoms: C5_5  and  C6_6 
REMARK    5  A    between atoms: C6_6  and  N1_7 
REMARK    6  A    between atoms: N1_7  and  C7_9 
REMARK    7  A    between atoms: C8_12  and  N3_13 
REMARK    8  A    between atoms: C10_18  and  N5_19 
REMARK    9  A    between atoms: N5_19  and  C11_21 
REMARK   10  A    between atoms: C11_21  and  O1_22 
ROOT
HETATM    1  C7  UNL     1      -2.134  -5.217  -6.696  1.00  0.00     0.707 A 
HETATM    2  N2  UNL     1      -1.640  -6.279  -6.018  1.00  0.00    -0.022 N 
ATOM      3  H2  UNL     1      -1.446  -7.153  -6.507  1.00  0.00     0.203 HD
HETATM    4  C8  UNL     1      -1.409  -6.176  -4.702  1.00  0.00     0.706 A 
HETATM    5  N4  UNL     1      -1.664  -5.026  -4.042  1.00  0.00    -0.021 N 
ATOM      6  H4  UNL     1      -1.482  -4.969  -3.040  1.00  0.00     0.203 HD
HETATM    7  C10 UNL     1      -2.154  -3.954  -4.689  1.00  0.00     0.711 A 
HETATM    8  N6  UNL     1      -2.383  -4.063  -6.007  1.00  0.00    -0.021 N 
ATOM      9  H6  UNL     1      -2.754  -3.258  -6.511  1.00  0.00     0.203 HD
ENDROOT
BRANCH   1  10
HETATM   10  N1  UNL     1      -2.363  -5.294  -7.963  1.00  0.00    -0.225 N 
ATOM     11  H1  UNL     1      -1.585  -5.331  -8.623  1.00  0.00     0.177 HD
BRANCH  10  12
HETATM   12  C6  UNL     1      -3.712  -5.328  -8.437  1.00  0.00     0.138 C 
BRANCH  12  13
HETATM   13  C5  UNL     1      -4.209  -6.798  -8.547  1.00  0.00     0.020 C 
BRANCH  13  14
HETATM   14  C4  UNL     1      -5.461  -6.944  -7.734  1.00  0.00     0.002 C 
BRANCH  14  15
HETATM   15  C3  UNL     1      -6.711  -7.295  -8.435  1.00  0.00    -0.000 C 
BRANCH  15  16
HETATM   16  C2  UNL     1      -6.733  -7.154  -9.905  1.00  0.00    -0.005 C 
HETATM   17  C1  UNL     1      -7.511  -8.151 -10.693  1.00  0.00     0.005 C 
ENDBRANCH  15  16
ENDBRANCH  14  15
ENDBRANCH  13  14
ENDBRANCH  12  13
ENDBRANCH  10  12
ENDBRANCH   1  10
BRANCH   4  18
HETATM   18  N3  UNL     1      -0.943  -7.186  -4.069  1.00  0.00    -0.229 N 
HETATM   19  C9  UNL     1      -1.350  -7.460  -2.720  1.00  0.00     0.165 C 
ATOM     20  H3  UNL     1      -0.274  -7.803  -4.529  1.00  0.00     0.177 HD
ENDBRANCH   4  18
BRANCH   7  21
HETATM   21  N5  UNL     1      -2.405  -2.855  -4.105  1.00  0.00    -0.165 N 
ATOM     22  H5  UNL     1      -2.934  -2.917  -3.234  1.00  0.00     0.183 HD
BRANCH  21  23
HETATM   23  C11 UNL     1      -2.035  -1.548  -4.525  1.00  0.00     0.283 A 
HETATM   24  C12 UNL     1      -1.491  -0.517  -3.673  1.00  0.00     0.267 A 
HETATM   25  O2  UNL     1      -2.873  -0.555  -3.760  1.00  0.00    -0.329 OA
BRANCH  23  26
HETATM   26  O1  UNL     1      -2.214  -1.231  -5.886  1.00  0.00    -0.347 OA
ATOM     27  H1  UNL     1      -1.595  -0.628  -6.279  1.00  0.00     0.215 HD
ENDBRANCH  23  26
ENDBRANCH  21  23
ENDBRANCH   7  21
TORSDOF 10
ENDMDL
MODEL 3
REMARK VINA RESULT: -7.625455664      4.414      8.147
REMARK  10 active torsions:
REMARK  status: ('A' for Active; 'I' for Inactive)
REMARK    1  A    between atoms: C2_2  and  C3_3 
REMARK    2  A    between atoms: C3_3  and  C4_4 
REMARK    3  A    between atoms: C4_4  and  C5_5 
REMARK    4  A    between atoms: C5_5  and  C6_6 
REMARK    5  A    between atoms: C6_6  and  N1_7 
REMARK    6  A    between atoms: N1_7  and  C7_9 
REMARK    7  A    between atoms: C8_12  and  N3_13 
REMARK    8  A    between atoms: C10_18  and  N5_19 
REMARK    9  A    between atoms: N5_19  and  C11_21 
REMARK   10  A    between atoms: C11_21  and  O1_22 
ROOT
HETATM    1  C7  UNL     1      -4.164  -6.081  -7.838  1.00  0.00     0.707 A 
HETATM    2  N2  UNL     1      -4.046  -7.218  -7.114  1.00  0.00    -0.022 N 
ATOM      3  H2  UNL     1      -4.574  -8.050  -7.377  1.00  0.00     0.203 HD
HETATM    4  C8  UNL     1      -3.233  -7.245  -6.048  1.00  0.00     0.706 A 
HETATM    5  N4  UNL     1      -2.529  -6.150  -5.686  1.00  0.00    -0.021 N 
ATOM      6  H4  UNL     1      -1.917  -6.191  -4.871  1.00  0.00     0.203 HD
HETATM    7  C10 UNL     1      -2.625  -5.006  -6.387  1.00  0.00     0.711 A 
HETATM    8  N6  UNL     1      -3.441  -4.986  -7.453  1.00  0.00    -0.021 N 
ATOM      9  H6  UNL     1      -3.523  -4.126  -7.994  1.00  0.00     0.203 HD
ENDROOT
BRANCH   1  10
HETATM   10  N1  UNL     1      -4.939  -6.034  -8.867  1.00  0.00    -0.225 N 
ATOM     11  H1  UNL     1      -4.649  -5.528  -9.704  1.00  0.00     0.177 HD
BRANCH  10  12
HETATM   12  C6  UNL     1      -6.207  -6.694  -8.826  1.00  0.00     0.138 C 
BRANCH  12  13
HETATM   13  C5  UNL     1      -6.491  -7.404 -10.180  1.00  0.00     0.020 C 
BRANCH  13  14
HETATM   14  C4  UNL     1      -7.974  -7.547 -10.348  1.00  0.00     0.002 C 
BRANCH  14  15
HETATM   15  C3  UNL     1      -8.494  -8.806 -10.914  1.00  0.00    -0.000 C 
BRANCH  15  16
HETATM   16  C2  UNL     1      -9.802  -8.760 -11.598  1.00  0.00    -0.005 C 
HETATM   17  C1  UNL     1     -11.030  -8.941 -10.775  1.00  0.00     0.005 C 
ENDBRANCH  15  16
ENDBRANCH  14  15
ENDBRANCH  13  14
ENDBRANCH  12  13
ENDBRANCH  10  12
ENDBRANCH   1  10
BRANCH   4  18
HETATM   18  N3  UNL     1      -3.129  -8.324  -5.369  1.00  0.00    -0.229 N 
HETATM   19  C9  UNL     1      -2.037  -8.516  -4.456  1.00  0.00     0.165 C 
ATOM     20  H3  UNL     1      -3.830  -9.057  -5.478  1.00  0.00     0.177 HD
ENDBRANCH   4  18
BRANCH   7  21
HETATM   21  N5  UNL     1      -1.980  -3.957  -6.080  1.00  0.00    -0.165 N 
ATOM     22  H5  UNL     1      -1.108  -3.798  -6.586  1.00  0.00     0.183 HD
BRANCH  21  23
HETATM   23  C11 UNL     1      -2.333  -2.978  -5.111  1.00  0.00     0.283 A 
HETATM   24  C12 UNL     1      -2.541  -3.228  -3.703  1.00  0.00     0.267 A 
HETATM   25  O2  UNL     1      -3.659  -3.373  -4.510  1.00  0.00    -0.329 OA
BRANCH  23  26
HETATM   26  O1  UNL     1      -2.497  -1.653  -5.560  1.00  0.00    -0.347 OA
ATOM     27  H1  UNL     1      -3.210  -1.482  -6.164  1.00  0.00     0.215 HD
ENDBRANCH  23  26
ENDBRANCH  21  23
ENDBRANCH   7  21
TORSDOF 10
ENDMDL
MODEL 4
REMARK VINA RESULT: -7.543577255      4.540      8.077
REMARK  10 active torsions:
REMARK  status: ('A' for Active; 'I' for Inactive)
REMARK    1  A    between atoms: C2_2  and  C3_3 
REMARK    2  A    between atoms: C3_3  and  C4_4 
REMARK    3  A    between atoms: C4_4  and  C5_5 
REMARK    4  A    between atoms: C5_5  and  C6_6 
REMARK    5  A    between atoms: C6_6  and  N1_7 
REMARK    6  A    between atoms: N1_7  and  C7_9 
REMARK    7  A    between atoms: C8_12  and  N3_13 
REMARK    8  A    between atoms: C10_18  and  N5_19 
REMARK    9  A    between atoms: N5_19  and  C11_21 
REMARK   10  A    between atoms: C11_21  and  O1_22 
ROOT
HETATM    1  C7  UNL     1      -3.955  -5.912  -7.950  1.00  0.00     0.707 A 
HETATM    2  N2  UNL     1      -3.873  -7.067  -7.249  1.00  0.00    -0.022 N 
ATOM      3  H2  UNL     1      -4.293  -7.920  -7.617  1.00  0.00     0.203 HD
HETATM    4  C8  UNL     1      -3.238  -7.083  -6.068  1.00  0.00     0.706 A 
HETATM    5  N4  UNL     1      -2.679  -5.960  -5.568  1.00  0.00    -0.021 N 
ATOM      6  H4  UNL     1      -2.201  -5.993  -4.667  1.00  0.00     0.203 HD
HETATM    7  C10 UNL     1      -2.743  -4.798  -6.242  1.00  0.00     0.711 A 
HETATM    8  N6  UNL     1      -3.380  -4.789  -7.423  1.00  0.00    -0.021 N 
ATOM      9  H6  UNL     1      -3.437  -3.915  -7.946  1.00  0.00     0.203 HD
ENDROOT
BRANCH   1  10
HETATM   10  N1  UNL     1      -4.560  -5.875  -9.087  1.00  0.00    -0.225 N 
ATOM     11  H1  UNL     1      -4.518  -5.035  -9.664  1.00  0.00     0.177 HD
BRANCH  10  12
HETATM   12  C6  UNL     1      -5.290  -7.020  -9.537  1.00  0.00     0.138 C 
BRANCH  12  13
HETATM   13  C5  UNL     1      -6.820  -6.746  -9.470  1.00  0.00     0.020 C 
BRANCH  13  14
HETATM   14  C4  UNL     1      -7.491  -7.917  -8.817  1.00  0.00     0.002 C 
BRANCH  14  15
HETATM   15  C3  UNL     1      -7.976  -9.013  -9.678  1.00  0.00    -0.000 C 
BRANCH  15  16
HETATM   16  C2  UNL     1      -8.452  -8.659 -11.031  1.00  0.00    -0.005 C 
HETATM   17  C1  UNL     1      -9.873  -8.952 -11.372  1.00  0.00     0.005 C 
ENDBRANCH  15  16
ENDBRANCH  14  15
ENDBRANCH  13  14
ENDBRANCH  12  13
ENDBRANCH  10  12
ENDBRANCH   1  10
BRANCH   4  18
HETATM   18  N3  UNL     1      -3.166  -8.179  -5.413  1.00  0.00    -0.229 N 
HETATM   19  C9  UNL     1      -2.029  -8.467  -4.584  1.00  0.00     0.165 C 
ATOM     20  H3  UNL     1      -3.926  -8.856  -5.478  1.00  0.00     0.177 HD
ENDBRANCH   4  18
BRANCH   7  21
HETATM   21  N5  UNL     1      -2.230  -3.722  -5.806  1.00  0.00    -0.165 N 
ATOM     22  H5  UNL     1      -1.507  -3.298  -6.388  1.00  0.00     0.183 HD
BRANCH  21  23
HETATM   23  C11 UNL     1      -2.547  -3.041  -4.599  1.00  0.00     0.283 A 
HETATM   24  C12 UNL     1      -1.869  -1.869  -4.094  1.00  0.00     0.267 A 
HETATM   25  O2  UNL     1      -1.334  -3.086  -3.703  1.00  0.00    -0.329 OA
BRANCH  23  26
HETATM   26  O1  UNL     1      -3.611  -3.551  -3.828  1.00  0.00    -0.347 OA
ATOM     27  H1  UNL     1      -4.065  -4.314  -4.164  1.00  0.00     0.215 HD
ENDBRANCH  23  26
ENDBRANCH  21  23
ENDBRANCH   7  21
TORSDOF 10
ENDMDL
MODEL 5
REMARK VINA RESULT: -7.443791333      4.386      7.654
REMARK  10 active torsions:
REMARK  status: ('A' for Active; 'I' for Inactive)
REMARK    1  A    between atoms: C2_2  and  C3_3 
REMARK    2  A    between atoms: C3_3  and  C4_4 
REMARK    3  A    between atoms: C4_4  and  C5_5 
REMARK    4  A    between atoms: C5_5  and  C6_6 
REMARK    5  A    between atoms: C6_6  and  N1_7 
REMARK    6  A    between atoms: N1_7  and  C7_9 
REMARK    7  A    between atoms: C8_12  and  N3_13 
REMARK    8  A    between atoms: C10_18  and  N5_19 
REMARK    9  A    between atoms: N5_19  and  C11_21 
REMARK   10  A    between atoms: C11_21  and  O1_22 
ROOT
HETATM    1  C7  UNL     1      -3.953  -5.829  -7.916  1.00  0.00     0.707 A 
HETATM    2  N2  UNL     1      -3.418  -4.692  -7.414  1.00  0.00    -0.022 N 
ATOM      3  H2  UNL     1      -3.468  -3.823  -7.946  1.00  0.00     0.203 HD
HETATM    4  C8  UNL     1      -2.822  -4.714  -6.212  1.00  0.00     0.706 A 
HETATM    5  N4  UNL     1      -2.747  -5.857  -5.498  1.00  0.00    -0.021 N 
ATOM      6  H4  UNL     1      -2.288  -5.853  -4.587  1.00  0.00     0.203 HD
HETATM    7  C10 UNL     1      -3.270  -7.002  -5.971  1.00  0.00     0.711 A 
HETATM    8  N6  UNL     1      -3.866  -6.973  -7.174  1.00  0.00    -0.021 N 
ATOM      9  H6  UNL     1      -4.268  -7.834  -7.546  1.00  0.00     0.203 HD
ENDROOT
BRANCH   1  10
HETATM   10  N1  UNL     1      -4.532  -5.830  -9.068  1.00  0.00    -0.225 N 
ATOM     11  H1  UNL     1      -4.571  -4.974  -9.623  1.00  0.00     0.177 HD
BRANCH  10  12
HETATM   12  C6  UNL     1      -5.120  -7.037  -9.563  1.00  0.00     0.138 C 
BRANCH  12  13
HETATM   13  C5  UNL     1      -6.650  -6.849  -9.767  1.00  0.00     0.020 C 
BRANCH  13  14
HETATM   14  C4  UNL     1      -7.375  -7.853  -8.921  1.00  0.00     0.002 C 
BRANCH  14  15
HETATM   15  C3  UNL     1      -8.024  -8.994  -9.595  1.00  0.00    -0.000 C 
BRANCH  15  16
HETATM   16  C2  UNL     1      -8.420  -8.818 -11.006  1.00  0.00    -0.005 C 
HETATM   17  C1  UNL     1      -9.855  -9.010 -11.360  1.00  0.00     0.005 C 
ENDBRANCH  15  16
ENDBRANCH  14  15
ENDBRANCH  13  14
ENDBRANCH  12  13
ENDBRANCH  10  12
ENDBRANCH   1  10
BRANCH   4  18
HETATM   18  N3  UNL     1      -2.319  -3.635  -5.746  1.00  0.00    -0.229 N 
HETATM   19  C9  UNL     1      -2.428  -3.316  -4.349  1.00  0.00     0.165 C 
ATOM     20  H3  UNL     1      -1.834  -2.993  -6.372  1.00  0.00     0.177 HD
ENDBRANCH   4  18
BRANCH   7  21
HETATM   21  N5  UNL     1      -3.221  -8.097  -5.329  1.00  0.00    -0.165 N 
ATOM     22  H5  UNL     1      -4.091  -8.626  -5.272  1.00  0.00     0.183 HD
BRANCH  21  23
HETATM   23  C11 UNL     1      -2.091  -8.668  -4.683  1.00  0.00     0.283 A 
HETATM   24  C12 UNL     1      -2.040  -9.986  -4.094  1.00  0.00     0.267 A 
HETATM   25  O2  UNL     1      -2.473  -8.971  -3.255  1.00  0.00    -0.329 OA
BRANCH  23  26
HETATM   26  O1  UNL     1      -0.923  -7.884  -4.607  1.00  0.00    -0.347 OA
ATOM     27  H1  UNL     1      -0.642  -7.601  -3.745  1.00  0.00     0.215 HD
ENDBRANCH  23  26
ENDBRANCH  21  23
ENDBRANCH   7  21
TORSDOF 10
ENDMDL
