MODEL 1
REMARK VINA RESULT: -7.540586177      0.000      0.000
REMARK  9 active torsions:
REMARK  status: ('A' for Active; 'I' for Inactive)
REMARK    1  A    between atoms: C2_2  and  C3_3 
REMARK    2  A    between atoms: C3_3  and  C4_4 
REMARK    3  A    between atoms: C4_4  and  C5_5 
REMARK    4  A    between atoms: C5_5  and  C6_6 
REMARK    5  A    between atoms: C6_6  and  N1_7 
REMARK    6  A    between atoms: N1_7  and  C8_9 
REMARK    7  A    between atoms: C12_16  and  O2_17 
REMARK    8  A    between atoms: C13_19  and  O3_20 
REMARK    9  A    between atoms: C14_22  and  O4_23 
ROOT
HETATM    1  C8  UNL     1      -3.307  -7.019  -6.448  1.00  0.00     0.105 A 
HETATM    2  N2  UNL     1      -3.070  -7.986  -5.685  1.00  0.00    -0.377 N 
ATOM      3  H2  UNL     1      -3.586  -8.866  -5.711  1.00  0.00     0.160 HD
HETATM    4  C9  UNL     1      -2.010  -7.723  -4.784  1.00  0.00     0.131 A 
HETATM    5  C10 UNL     1      -1.574  -6.334  -5.063  1.00  0.00     0.071 A 
HETATM    6  C11 UNL     1      -2.406  -5.880  -6.183  1.00  0.00     0.200 A 
HETATM    7  O1  UNL     1      -3.183  -4.779  -6.006  1.00  0.00    -0.345 OA
HETATM    8  C12 UNL     1      -2.809  -3.801  -5.166  1.00  0.00     0.288 C 
HETATM    9  C13 UNL     1      -1.625  -4.051  -4.301  1.00  0.00     0.202 C 
HETATM   10  C14 UNL     1      -1.749  -5.497  -3.801  1.00  0.00     0.160 C 
ENDROOT
BRANCH   1  11
HETATM   11  N1  UNL     1      -4.329  -6.987  -7.473  1.00  0.00    -0.373 N 
HETATM   12  C7  UNL     1      -3.880  -7.102  -8.839  1.00  0.00     0.150 C 
BRANCH  11  13
HETATM   13  C6  UNL     1      -5.725  -6.847  -7.134  1.00  0.00     0.123 C 
BRANCH  13  14
HETATM   14  C5  UNL     1      -6.501  -6.828  -8.433  1.00  0.00     0.020 C 
BRANCH  14  15
HETATM   15  C4  UNL     1      -7.771  -7.619  -8.362  1.00  0.00     0.002 C 
BRANCH  15  16
HETATM   16  C3  UNL     1      -7.706  -8.689  -9.434  1.00  0.00    -0.000 C 
BRANCH  16  17
HETATM   17  C2  UNL     1      -7.997  -8.097 -10.802  1.00  0.00    -0.005 C 
HETATM   18  C1  UNL     1      -9.319  -8.658 -11.272  1.00  0.00     0.005 C 
ENDBRANCH  16  17
ENDBRANCH  15  16
ENDBRANCH  14  15
ENDBRANCH  13  14
ENDBRANCH  11  13
ENDBRANCH   1  11
BRANCH  10  19
HETATM   19  O4  UNL     1      -0.747  -5.732  -2.879  1.00  0.00    -0.392 OA
ATOM     20  H4  UNL     1      -0.931  -5.326  -2.040  1.00  0.00     0.210 HD
ENDBRANCH  10  19
BRANCH   8  21
HETATM   21  O2  UNL     1      -3.896  -3.539  -4.294  1.00  0.00    -0.368 OA
ATOM     22  H2  UNL     1      -4.071  -2.606  -4.321  1.00  0.00     0.212 HD
ENDBRANCH   8  21
BRANCH   9  23
HETATM   23  O3  UNL     1      -1.613  -3.178  -3.213  1.00  0.00    -0.388 OA
ATOM     24  H3  UNL     1      -2.424  -3.238  -2.722  1.00  0.00     0.210 HD
ENDBRANCH   9  23
TORSDOF 9
ENDMDL
MODEL 2
REMARK VINA RESULT: -7.180247541      4.104      7.967
REMARK  9 active torsions:
REMARK  status: ('A' for Active; 'I' for Inactive)
REMARK    1  A    between atoms: C2_2  and  C3_3 
REMARK    2  A    between atoms: C3_3  and  C4_4 
REMARK    3  A    between atoms: C4_4  and  C5_5 
REMARK    4  A    between atoms: C5_5  and  C6_6 
REMARK    5  A    between atoms: C6_6  and  N1_7 
REMARK    6  A    between atoms: N1_7  and  C8_9 
REMARK    7  A    between atoms: C12_16  and  O2_17 
REMARK    8  A    between atoms: C13_19  and  O3_20 
REMARK    9  A    between atoms: C14_22  and  O4_23 
ROOT
HETATM    1  C8  UNL     1      -6.856  -7.463  -9.404  1.00  0.00     0.105 A 
HETATM    2  N2  UNL     1      -7.123  -7.132 -10.584  1.00  0.00    -0.377 N 
ATOM      3  H2  UNL     1      -6.591  -6.439 -11.112  1.00  0.00     0.160 HD
HETATM    4  C9  UNL     1      -8.243  -7.824 -11.104  1.00  0.00     0.131 A 
HETATM    5  C10 UNL     1      -8.728  -8.696 -10.007  1.00  0.00     0.071 A 
HETATM    6  C11 UNL     1      -7.794  -8.484  -8.897  1.00  0.00     0.200 A 
HETATM    7  O1  UNL     1      -8.288  -8.031  -7.714  1.00  0.00    -0.345 OA
HETATM    8  C12 UNL     1      -9.538  -8.330  -7.331  1.00  0.00     0.288 C 
HETATM    9  C13 UNL     1     -10.420  -9.005  -8.322  1.00  0.00     0.202 C 
HETATM   10  C14 UNL     1     -10.166  -8.315  -9.670  1.00  0.00     0.160 C 
ENDROOT
BRANCH   1  11
HETATM   11  N1  UNL     1      -5.771  -6.929  -8.607  1.00  0.00    -0.373 N 
HETATM   12  C7  UNL     1      -6.011  -6.803  -7.190  1.00  0.00     0.150 C 
BRANCH  11  13
HETATM   13  C6  UNL     1      -4.517  -6.545  -9.210  1.00  0.00     0.123 C 
BRANCH  13  14
HETATM   14  C5  UNL     1      -3.429  -6.833  -8.199  1.00  0.00     0.020 C 
BRANCH  14  15
HETATM   15  C4  UNL     1      -2.444  -5.711  -8.073  1.00  0.00     0.002 C 
BRANCH  15  16
HETATM   16  C3  UNL     1      -1.916  -5.722  -6.651  1.00  0.00    -0.000 C 
BRANCH  16  17
HETATM   17  C2  UNL     1      -2.495  -6.891  -5.872  1.00  0.00    -0.005 C 
HETATM   18  C1  UNL     1      -1.493  -7.273  -4.808  1.00  0.00     0.005 C 
ENDBRANCH  16  17
ENDBRANCH  15  16
ENDBRANCH  14  15
ENDBRANCH  13  14
ENDBRANCH  11  13
ENDBRANCH   1  11
BRANCH  10  19
HETATM   19  O4  UNL     1     -11.064  -8.812 -10.595  1.00  0.00    -0.392 OA
ATOM     20  H4  UNL     1     -10.841  -9.692 -10.873  1.00  0.00     0.210 HD
ENDBRANCH  10  19
BRANCH   8  21
HETATM   21  O2  UNL     1     -10.186  -7.120  -6.977  1.00  0.00    -0.368 OA
ATOM     22  H2  UNL     1     -10.788  -7.309  -6.267  1.00  0.00     0.212 HD
ENDBRANCH   8  21
BRANCH   9  23
HETATM   23  O3  UNL     1     -11.762  -8.864  -7.970  1.00  0.00    -0.388 OA
ATOM     24  H3  UNL     1     -11.951  -7.971  -7.708  1.00  0.00     0.210 HD
ENDBRANCH   9  23
TORSDOF 9
ENDMDL
MODEL 3
REMARK VINA RESULT: -7.156513885      4.429      8.299
REMARK  9 active torsions:
REMARK  status: ('A' for Active; 'I' for Inactive)
REMARK    1  A    between atoms: C2_2  and  C3_3 
REMARK    2  A    between atoms: C3_3  and  C4_4 
REMARK    3  A    between atoms: C4_4  and  C5_5 
REMARK    4  A    between atoms: C5_5  and  C6_6 
REMARK    5  A    between atoms: C6_6  and  N1_7 
REMARK    6  A    between atoms: N1_7  and  C8_9 
REMARK    7  A    between atoms: C12_16  and  O2_17 
REMARK    8  A    between atoms: C13_19  and  O3_20 
REMARK    9  A    between atoms: C14_22  and  O4_23 
ROOT
HETATM    1  C8  UNL     1      -7.705  -7.213  -8.231  1.00  0.00     0.105 A 
HETATM    2  N2  UNL     1      -8.460  -7.485  -7.266  1.00  0.00    -0.377 N 
ATOM      3  H2  UNL     1      -8.162  -7.459  -6.290  1.00  0.00     0.160 HD
HETATM    4  C9  UNL     1      -9.769  -7.829  -7.678  1.00  0.00     0.131 A 
HETATM    5  C10 UNL     1      -9.757  -7.773  -9.160  1.00  0.00     0.071 A 
HETATM    6  C11 UNL     1      -8.407  -7.334  -9.524  1.00  0.00     0.200 A 
HETATM    7  O1  UNL     1      -7.657  -8.142 -10.319  1.00  0.00    -0.345 OA
HETATM    8  C12 UNL     1      -8.236  -8.946 -11.223  1.00  0.00     0.288 C 
HETATM    9  C13 UNL     1      -9.719  -9.064 -11.191  1.00  0.00     0.202 C 
HETATM   10  C14 UNL     1     -10.117  -9.149  -9.710  1.00  0.00     0.160 C 
ENDROOT
BRANCH   1  11
HETATM   11  N1  UNL     1      -6.314  -6.827  -8.126  1.00  0.00    -0.373 N 
HETATM   12  C7  UNL     1      -5.759  -6.761  -6.796  1.00  0.00     0.150 C 
BRANCH  11  13
HETATM   13  C6  UNL     1      -5.530  -6.525  -9.300  1.00  0.00     0.123 C 
BRANCH  13  14
HETATM   14  C5  UNL     1      -4.074  -6.668  -8.914  1.00  0.00     0.020 C 
BRANCH  14  15
HETATM   15  C4  UNL     1      -3.421  -5.352  -8.616  1.00  0.00     0.002 C 
BRANCH  15  16
HETATM   16  C3  UNL     1      -2.080  -5.641  -7.970  1.00  0.00    -0.000 C 
BRANCH  16  17
HETATM   17  C2  UNL     1      -2.100  -5.262  -6.499  1.00  0.00    -0.005 C 
HETATM   18  C1  UNL     1      -1.766  -6.502  -5.702  1.00  0.00     0.005 C 
ENDBRANCH  16  17
ENDBRANCH  15  16
ENDBRANCH  14  15
ENDBRANCH  13  14
ENDBRANCH  11  13
ENDBRANCH   1  11
BRANCH  10  19
HETATM   19  O4  UNL     1     -11.473  -9.401  -9.632  1.00  0.00    -0.392 OA
ATOM     20  H4  UNL     1     -11.722 -10.173 -10.127  1.00  0.00     0.210 HD
ENDBRANCH  10  19
BRANCH   8  21
HETATM   21  O2  UNL     1      -7.726 -10.255 -11.031  1.00  0.00    -0.368 OA
ATOM     22  H2  UNL     1      -6.914 -10.325 -11.518  1.00  0.00     0.212 HD
ENDBRANCH   8  21
BRANCH   9  23
HETATM   23  O3  UNL     1     -10.141 -10.216 -11.855  1.00  0.00    -0.388 OA
ATOM     24  H3  UNL     1     -10.122 -10.967 -11.275  1.00  0.00     0.210 HD
ENDBRANCH   9  23
TORSDOF 9
ENDMDL
MODEL 4
REMARK VINA RESULT: -7.094745889      4.431      8.355
REMARK  9 active torsions:
REMARK  status: ('A' for Active; 'I' for Inactive)
REMARK    1  A    between atoms: C2_2  and  C3_3 
REMARK    2  A    between atoms: C3_3  and  C4_4 
REMARK    3  A    between atoms: C4_4  and  C5_5 
REMARK    4  A    between atoms: C5_5  and  C6_6 
REMARK    5  A    between atoms: C6_6  and  N1_7 
REMARK    6  A    between atoms: N1_7  and  C8_9 
REMARK    7  A    between atoms: C12_16  and  O2_17 
REMARK    8  A    between atoms: C13_19  and  O3_20 
REMARK    9  A    between atoms: C14_22  and  O4_23 
ROOT
HETATM    1  C8  UNL     1      -7.563  -7.175  -8.314  1.00  0.00     0.105 A 
HETATM    2  N2  UNL     1      -8.252  -7.438  -7.299  1.00  0.00    -0.377 N 
ATOM      3  H2  UNL     1      -7.889  -7.408  -6.346  1.00  0.00     0.160 HD
HETATM    4  C9  UNL     1      -9.587  -7.779  -7.621  1.00  0.00     0.131 A 
HETATM    5  C10 UNL     1      -9.675  -7.731  -9.100  1.00  0.00     0.071 A 
HETATM    6  C11 UNL     1      -8.350  -7.299  -9.556  1.00  0.00     0.200 A 
HETATM    7  O1  UNL     1      -7.659  -8.115 -10.396  1.00  0.00    -0.345 OA
HETATM    8  C12 UNL     1      -8.301  -8.922 -11.254  1.00  0.00     0.288 C 
HETATM    9  C13 UNL     1      -9.779  -9.033 -11.122  1.00  0.00     0.202 C 
HETATM   10  C14 UNL     1     -10.076  -9.108  -9.617  1.00  0.00     0.160 C 
ENDROOT
BRANCH   1  11
HETATM   11  N1  UNL     1      -6.166  -6.794  -8.306  1.00  0.00    -0.373 N 
HETATM   12  C7  UNL     1      -5.564  -6.515  -9.587  1.00  0.00     0.150 C 
BRANCH  11  13
HETATM   13  C6  UNL     1      -5.421  -6.703  -7.073  1.00  0.00     0.123 C 
BRANCH  13  14
HETATM   14  C5  UNL     1      -4.215  -5.831  -7.343  1.00  0.00     0.020 C 
BRANCH  14  15
HETATM   15  C4  UNL     1      -2.920  -6.528  -7.054  1.00  0.00     0.002 C 
BRANCH  15  16
HETATM   16  C3  UNL     1      -1.873  -5.461  -6.795  1.00  0.00    -0.000 C 
BRANCH  16  17
HETATM   17  C2  UNL     1      -1.188  -5.695  -5.460  1.00  0.00    -0.005 C 
HETATM   18  C1  UNL     1      -1.600  -7.062  -4.966  1.00  0.00     0.005 C 
ENDBRANCH  16  17
ENDBRANCH  15  16
ENDBRANCH  14  15
ENDBRANCH  13  14
ENDBRANCH  11  13
ENDBRANCH   1  11
BRANCH  10  19
HETATM   19  O4  UNL     1     -11.424  -9.354  -9.446  1.00  0.00    -0.392 OA
ATOM     20  H4  UNL     1     -11.652  -9.477  -8.532  1.00  0.00     0.210 HD
ENDBRANCH  10  19
BRANCH   8  21
HETATM   21  O2  UNL     1      -7.784 -10.231 -11.089  1.00  0.00    -0.368 OA
ATOM     22  H2  UNL     1      -8.518 -10.821 -10.964  1.00  0.00     0.212 HD
ENDBRANCH   8  21
BRANCH   9  23
HETATM   23  O3  UNL     1     -10.248 -10.187 -11.750  1.00  0.00    -0.388 OA
ATOM     24  H3  UNL     1     -11.184 -10.284 -11.623  1.00  0.00     0.210 HD
ENDBRANCH   9  23
TORSDOF 9
ENDMDL
MODEL 5
REMARK VINA RESULT: -6.998544615      4.277      8.113
REMARK  9 active torsions:
REMARK  status: ('A' for Active; 'I' for Inactive)
REMARK    1  A    between atoms: C2_2  and  C3_3 
REMARK    2  A    between atoms: C3_3  and  C4_4 
REMARK    3  A    between atoms: C4_4  and  C5_5 
REMARK    4  A    between atoms: C5_5  and  C6_6 
REMARK    5  A    between atoms: C6_6  and  N1_7 
REMARK    6  A    between atoms: N1_7  and  C8_9 
REMARK    7  A    between atoms: C12_16  and  O2_17 
REMARK    8  A    between atoms: C13_19  and  O3_20 
REMARK    9  A    between atoms: C14_22  and  O4_23 
ROOT
HETATM    1  C8  UNL     1      -7.278  -7.596  -9.641  1.00  0.00     0.105 A 
HETATM    2  N2  UNL     1      -7.660  -7.290 -10.796  1.00  0.00    -0.377 N 
ATOM      3  H2  UNL     1      -7.185  -6.607 -11.386  1.00  0.00     0.160 HD
HETATM    4  C9  UNL     1      -8.822  -7.996 -11.191  1.00  0.00     0.131 A 
HETATM    5  C10 UNL     1      -9.193  -8.846 -10.034  1.00  0.00     0.071 A 
HETATM    6  C11 UNL     1      -8.157  -8.609  -9.025  1.00  0.00     0.200 A 
HETATM    7  O1  UNL     1      -8.536  -8.133  -7.809  1.00  0.00    -0.345 OA
HETATM    8  C12 UNL     1      -9.742  -8.428  -7.301  1.00  0.00     0.288 C 
HETATM    9  C13 UNL     1     -10.712  -9.125  -8.187  1.00  0.00     0.202 C 
HETATM   10  C14 UNL     1     -10.594  -8.463  -9.567  1.00  0.00     0.160 C 
ENDROOT
BRANCH   1  11
HETATM   11  N1  UNL     1      -6.124  -7.043  -8.964  1.00  0.00    -0.373 N 
HETATM   12  C7  UNL     1      -5.069  -6.526  -9.802  1.00  0.00     0.150 C 
BRANCH  11  13
HETATM   13  C6  UNL     1      -6.041  -7.017  -7.523  1.00  0.00     0.123 C 
BRANCH  13  14
HETATM   14  C5  UNL     1      -4.865  -6.138  -7.159  1.00  0.00     0.020 C 
BRANCH  14  15
HETATM   15  C4  UNL     1      -3.765  -6.894  -6.478  1.00  0.00     0.002 C 
BRANCH  15  16
HETATM   16  C3  UNL     1      -2.450  -6.261  -6.889  1.00  0.00    -0.000 C 
BRANCH  16  17
HETATM   17  C2  UNL     1      -1.552  -6.058  -5.681  1.00  0.00    -0.005 C 
HETATM   18  C1  UNL     1      -1.579  -7.332  -4.870  1.00  0.00     0.005 C 
ENDBRANCH  16  17
ENDBRANCH  15  16
ENDBRANCH  14  15
ENDBRANCH  13  14
ENDBRANCH  11  13
ENDBRANCH   1  11
BRANCH  10  19
HETATM   19  O4  UNL     1     -11.575  -8.981 -10.391  1.00  0.00    -0.392 OA
ATOM     20  H4  UNL     1     -12.075  -9.667  -9.963  1.00  0.00     0.210 HD
ENDBRANCH  10  19
BRANCH   8  21
HETATM   21  O2  UNL     1     -10.358  -7.213  -6.909  1.00  0.00    -0.368 OA
ATOM     22  H2  UNL     1     -11.299  -7.333  -6.963  1.00  0.00     0.212 HD
ENDBRANCH   8  21
BRANCH   9  23
HETATM   23  O3  UNL     1     -12.015  -8.981  -7.709  1.00  0.00    -0.388 OA
ATOM     24  H3  UNL     1     -12.220  -8.067  -7.557  1.00  0.00     0.210 HD
ENDBRANCH   9  23
TORSDOF 9
ENDMDL
