MODEL 1
REMARK VINA RESULT: -7.378056800      0.000      0.000
REMARK  9 active torsions:
REMARK  status: ('A' for Active; 'I' for Inactive)
REMARK    1  A    between atoms: C3_4  and  O1_5 
REMARK    2  A    between atoms: C4_7  and  O2_8 
REMARK    3  A    between atoms: C5_10  and  O3_11 
REMARK    4  A    between atoms: C6_13  and  C7_14 
REMARK    5  A    between atoms: C7_14  and  C8_15 
REMARK    6  A    between atoms: C8_15  and  N2_16 
REMARK    7  A    between atoms: C8_15  and  C9_20 
REMARK    8  A    between atoms: C9_20  and  C10_21 
REMARK    9  A    between atoms: C10_21  and  N3_22 
ROOT
HETATM    1  C1  UNL     1      -1.457  -5.467  -7.396  1.00  0.00     0.310 C 
HETATM    2  N1  UNL     1      -2.211  -6.104  -6.381  1.00  0.00     0.094 N 
HETATM    3  C2  UNL     1      -1.427  -6.443  -5.243  1.00  0.00     0.306 C 
HETATM    4  C3  UNL     1      -1.016  -5.187  -4.496  1.00  0.00     0.177 C 
HETATM    5  C4  UNL     1      -2.236  -4.427  -4.097  1.00  0.00     0.179 C 
HETATM    6  C5  UNL     1      -3.191  -4.149  -5.273  1.00  0.00     0.182 C 
HETATM    7  C6  UNL     1      -3.438  -5.408  -5.982  1.00  0.00     0.255 C 
ENDROOT
BRANCH   7   8
HETATM    8  C7  UNL     1      -4.454  -5.465  -7.054  1.00  0.00     0.071 C 
BRANCH   8   9
HETATM    9  C8  UNL     1      -5.143  -6.778  -7.192  1.00  0.00     0.187 C 
BRANCH   9  10
HETATM   10  N2  UNL     1      -6.370  -6.824  -6.490  1.00  0.00    -0.075 N 
ATOM     11  H23 UNL     1      -6.302  -6.330  -5.601  1.00  0.00     0.274 HD
ATOM     12  H22 UNL     1      -7.075  -6.243  -6.946  1.00  0.00     0.274 HD
ATOM     13  H21 UNL     1      -6.710  -7.776  -6.357  1.00  0.00     0.274 HD
ENDBRANCH   9  10
BRANCH   9  14
HETATM   14  C9  UNL     1      -5.285  -7.203  -8.646  1.00  0.00     0.063 C 
BRANCH  14  15
HETATM   15  C10 UNL     1      -6.659  -6.880  -9.183  1.00  0.00     0.274 C 
BRANCH  15  16
HETATM   16  N3  UNL     1      -7.384  -8.118  -9.469  1.00  0.00     0.088 N 
HETATM   17  C11 UNL     1      -7.725  -8.110 -10.895  1.00  0.00     0.272 C 
HETATM   18  C12 UNL     1      -8.868  -9.091 -10.983  1.00  0.00     0.032 C 
HETATM   19  C13 UNL     1      -9.636  -8.814  -9.708  1.00  0.00     0.032 C 
HETATM   20  C14 UNL     1      -8.714  -7.928  -8.884  1.00  0.00     0.272 C 
ENDBRANCH  15  16
ENDBRANCH  14  15
ENDBRANCH   9  14
ENDBRANCH   8   9
ENDBRANCH   7   8
BRANCH   6  21
HETATM   21  O3  UNL     1      -2.692  -3.088  -5.967  1.00  0.00    -0.391 OA
ATOM     22  H3  UNL     1      -2.741  -3.301  -6.891  1.00  0.00     0.210 HD
ENDBRANCH   6  21
BRANCH   5  23
HETATM   23  O2  UNL     1      -2.992  -5.151  -3.161  1.00  0.00    -0.390 OA
ATOM     24  H2  UNL     1      -2.980  -4.723  -2.312  1.00  0.00     0.210 HD
ENDBRANCH   5  23
BRANCH   4  25
HETATM   25  O1  UNL     1      -0.399  -5.596  -3.293  1.00  0.00    -0.391 OA
ATOM     26  H1  UNL     1      -0.402  -4.848  -2.706  1.00  0.00     0.210 HD
ENDBRANCH   4  25
TORSDOF 9
ENDMDL
MODEL 2
REMARK VINA RESULT: -7.202813236      1.444      1.704
REMARK  9 active torsions:
REMARK  status: ('A' for Active; 'I' for Inactive)
REMARK    1  A    between atoms: C3_4  and  O1_5 
REMARK    2  A    between atoms: C4_7  and  O2_8 
REMARK    3  A    between atoms: C5_10  and  O3_11 
REMARK    4  A    between atoms: C6_13  and  C7_14 
REMARK    5  A    between atoms: C7_14  and  C8_15 
REMARK    6  A    between atoms: C8_15  and  N2_16 
REMARK    7  A    between atoms: C8_15  and  C9_20 
REMARK    8  A    between atoms: C9_20  and  C10_21 
REMARK    9  A    between atoms: C10_21  and  N3_22 
ROOT
HETATM    1  C1  UNL     1      -0.844  -6.742  -5.034  1.00  0.00     0.310 C 
HETATM    2  N1  UNL     1      -2.145  -6.419  -4.581  1.00  0.00     0.094 N 
HETATM    3  C2  UNL     1      -2.137  -5.528  -3.472  1.00  0.00     0.306 C 
HETATM    4  C3  UNL     1      -1.676  -4.149  -3.910  1.00  0.00     0.177 C 
HETATM    5  C4  UNL     1      -2.574  -3.647  -4.991  1.00  0.00     0.179 C 
HETATM    6  C5  UNL     1      -2.727  -4.637  -6.161  1.00  0.00     0.182 C 
HETATM    7  C6  UNL     1      -3.072  -5.955  -5.618  1.00  0.00     0.255 C 
ENDROOT
BRANCH   7   8
HETATM    8  C7  UNL     1      -3.444  -7.056  -6.530  1.00  0.00     0.071 C 
BRANCH   8   9
HETATM    9  C8  UNL     1      -4.301  -6.652  -7.679  1.00  0.00     0.187 C 
BRANCH   9  10
HETATM   10  N2  UNL     1      -3.809  -7.127  -8.917  1.00  0.00    -0.075 N 
ATOM     11  H23 UNL     1      -2.981  -6.607  -9.206  1.00  0.00     0.274 HD
ATOM     12  H22 UNL     1      -3.393  -8.053  -8.815  1.00  0.00     0.274 HD
ATOM     13  H21 UNL     1      -4.519  -7.122  -9.648  1.00  0.00     0.274 HD
ENDBRANCH   9  10
BRANCH   9  14
HETATM   14  C9  UNL     1      -5.764  -7.006  -7.457  1.00  0.00     0.063 C 
BRANCH  14  15
HETATM   15  C10 UNL     1      -6.585  -6.760  -8.701  1.00  0.00     0.274 C 
BRANCH  15  16
HETATM   16  N3  UNL     1      -7.198  -8.012  -9.147  1.00  0.00     0.088 N 
HETATM   17  C11 UNL     1      -7.322  -7.946 -10.607  1.00  0.00     0.272 C 
HETATM   18  C12 UNL     1      -8.388  -8.969 -10.910  1.00  0.00     0.032 C 
HETATM   19  C13 UNL     1      -9.351  -8.788  -9.754  1.00  0.00     0.032 C 
HETATM   20  C14 UNL     1      -8.607  -7.908  -8.763  1.00  0.00     0.272 C 
ENDBRANCH  15  16
ENDBRANCH  14  15
ENDBRANCH   9  14
ENDBRANCH   8   9
ENDBRANCH   7   8
BRANCH   6  21
HETATM   21  O3  UNL     1      -1.623  -4.517  -6.950  1.00  0.00    -0.391 OA
ATOM     22  H3  UNL     1      -1.859  -4.812  -7.821  1.00  0.00     0.210 HD
ENDBRANCH   6  21
BRANCH   5  23
HETATM   23  O2  UNL     1      -3.874  -3.436  -4.503  1.00  0.00    -0.390 OA
ATOM     24  H2  UNL     1      -4.504  -3.965  -4.980  1.00  0.00     0.210 HD
ENDBRANCH   5  23
BRANCH   4  25
HETATM   25  O1  UNL     1      -1.859  -3.276  -2.815  1.00  0.00    -0.391 OA
ATOM     26  H1  UNL     1      -0.997  -3.018  -2.511  1.00  0.00     0.210 HD
ENDBRANCH   4  25
TORSDOF 9
ENDMDL
MODEL 3
REMARK VINA RESULT: -7.121763305      2.097      3.007
REMARK  9 active torsions:
REMARK  status: ('A' for Active; 'I' for Inactive)
REMARK    1  A    between atoms: C3_4  and  O1_5 
REMARK    2  A    between atoms: C4_7  and  O2_8 
REMARK    3  A    between atoms: C5_10  and  O3_11 
REMARK    4  A    between atoms: C6_13  and  C7_14 
REMARK    5  A    between atoms: C7_14  and  C8_15 
REMARK    6  A    between atoms: C8_15  and  N2_16 
REMARK    7  A    between atoms: C8_15  and  C9_20 
REMARK    8  A    between atoms: C9_20  and  C10_21 
REMARK    9  A    between atoms: C10_21  and  N3_22 
ROOT
HETATM    1  C1  UNL     1      -3.862  -4.875  -8.705  1.00  0.00     0.310 C 
HETATM    2  N1  UNL     1      -3.576  -6.250  -8.533  1.00  0.00     0.094 N 
HETATM    3  C2  UNL     1      -2.346  -6.477  -7.855  1.00  0.00     0.306 C 
HETATM    4  C3  UNL     1      -2.466  -6.063  -6.399  1.00  0.00     0.177 C 
HETATM    5  C4  UNL     1      -3.578  -6.826  -5.758  1.00  0.00     0.179 C 
HETATM    6  C5  UNL     1      -4.906  -6.726  -6.530  1.00  0.00     0.182 C 
HETATM    7  C6  UNL     1      -4.655  -7.045  -7.939  1.00  0.00     0.255 C 
ENDROOT
BRANCH   7   8
HETATM    8  C7  UNL     1      -5.788  -7.190  -8.877  1.00  0.00     0.071 C 
BRANCH   8   9
HETATM    9  C8  UNL     1      -7.024  -7.763  -8.278  1.00  0.00     0.187 C 
BRANCH   9  10
HETATM   10  N2  UNL     1      -7.873  -6.772  -7.733  1.00  0.00    -0.075 N 
ATOM     11  H23 UNL     1      -7.359  -6.156  -7.104  1.00  0.00     0.274 HD
ATOM     12  H22 UNL     1      -8.145  -6.092  -8.442  1.00  0.00     0.274 HD
ATOM     13  H21 UNL     1      -8.691  -7.168  -7.271  1.00  0.00     0.274 HD
ENDBRANCH   9  10
BRANCH   9  14
HETATM   14  C9  UNL     1      -7.752  -8.691  -9.240  1.00  0.00     0.063 C 
BRANCH  14  15
HETATM   15  C10 UNL     1      -9.155  -8.987  -8.765  1.00  0.00     0.274 C 
BRANCH  15  16
HETATM   16  N3  UNL     1     -10.125  -8.359  -9.661  1.00  0.00     0.088 N 
HETATM   17  C11 UNL     1     -11.424  -8.999  -9.423  1.00  0.00     0.272 C 
HETATM   18  C12 UNL     1     -12.195  -8.696 -10.683  1.00  0.00     0.032 C 
HETATM   19  C13 UNL     1     -11.132  -8.821 -11.754  1.00  0.00     0.032 C 
HETATM   20  C14 UNL     1      -9.818  -8.887 -10.992  1.00  0.00     0.272 C 
ENDBRANCH  15  16
ENDBRANCH  14  15
ENDBRANCH   9  14
ENDBRANCH   8   9
ENDBRANCH   7   8
BRANCH   6  21
HETATM   21  O3  UNL     1      -5.476  -5.529  -6.216  1.00  0.00    -0.391 OA
ATOM     22  H3  UNL     1      -6.280  -5.708  -5.744  1.00  0.00     0.210 HD
ENDBRANCH   6  21
BRANCH   5  23
HETATM   23  O2  UNL     1      -3.276  -8.197  -5.703  1.00  0.00    -0.390 OA
ATOM     24  H2  UNL     1      -4.041  -8.720  -5.915  1.00  0.00     0.210 HD
ENDBRANCH   5  23
BRANCH   4  25
HETATM   25  O1  UNL     1      -1.283  -6.475  -5.745  1.00  0.00    -0.391 OA
ATOM     26  H1  UNL     1      -1.305  -6.113  -4.867  1.00  0.00     0.210 HD
ENDBRANCH   4  25
TORSDOF 9
ENDMDL
MODEL 4
REMARK VINA RESULT: -7.103053833      1.596      2.492
REMARK  9 active torsions:
REMARK  status: ('A' for Active; 'I' for Inactive)
REMARK    1  A    between atoms: C3_4  and  O1_5 
REMARK    2  A    between atoms: C4_7  and  O2_8 
REMARK    3  A    between atoms: C5_10  and  O3_11 
REMARK    4  A    between atoms: C6_13  and  C7_14 
REMARK    5  A    between atoms: C7_14  and  C8_15 
REMARK    6  A    between atoms: C8_15  and  N2_16 
REMARK    7  A    between atoms: C8_15  and  C9_20 
REMARK    8  A    between atoms: C9_20  and  C10_21 
REMARK    9  A    between atoms: C10_21  and  N3_22 
ROOT
HETATM    1  C1  UNL     1      -4.603  -5.346  -5.712  1.00  0.00     0.310 C 
HETATM    2  N1  UNL     1      -3.418  -4.823  -6.282  1.00  0.00     0.094 N 
HETATM    3  C2  UNL     1      -2.747  -3.912  -5.419  1.00  0.00     0.306 C 
HETATM    4  C3  UNL     1      -2.150  -4.653  -4.236  1.00  0.00     0.177 C 
HETATM    5  C4  UNL     1      -1.215  -5.705  -4.732  1.00  0.00     0.179 C 
HETATM    6  C5  UNL     1      -1.852  -6.641  -5.775  1.00  0.00     0.182 C 
HETATM    7  C6  UNL     1      -2.485  -5.822  -6.814  1.00  0.00     0.255 C 
ENDROOT
BRANCH   7   8
HETATM    8  C7  UNL     1      -3.029  -6.461  -8.031  1.00  0.00     0.071 C 
BRANCH   8   9
HETATM    9  C8  UNL     1      -4.177  -5.746  -8.652  1.00  0.00     0.187 C 
BRANCH   9  10
HETATM   10  N2  UNL     1      -3.767  -4.688  -9.495  1.00  0.00    -0.075 N 
ATOM     11  H23 UNL     1      -2.888  -4.911  -9.961  1.00  0.00     0.274 HD
ATOM     12  H22 UNL     1      -4.372  -4.614 -10.313  1.00  0.00     0.274 HD
ATOM     13  H21 UNL     1      -3.705  -3.797  -9.003  1.00  0.00     0.274 HD
ENDBRANCH   9  10
BRANCH   9  14
HETATM   14  C9  UNL     1      -5.145  -6.699  -9.339  1.00  0.00     0.063 C 
BRANCH  14  15
HETATM   15  C10 UNL     1      -6.360  -6.962  -8.482  1.00  0.00     0.274 C 
BRANCH  15  16
HETATM   16  N3  UNL     1      -7.560  -6.996  -9.319  1.00  0.00     0.088 N 
HETATM   17  C11 UNL     1      -8.531  -7.877  -8.662  1.00  0.00     0.272 C 
HETATM   18  C12 UNL     1      -9.462  -8.264  -9.784  1.00  0.00     0.032 C 
HETATM   19  C13 UNL     1      -8.515  -8.417 -10.956  1.00  0.00     0.032 C 
HETATM   20  C14 UNL     1      -7.201  -7.823 -10.473  1.00  0.00     0.272 C 
ENDBRANCH  15  16
ENDBRANCH  14  15
ENDBRANCH   9  14
ENDBRANCH   8   9
ENDBRANCH   7   8
BRANCH   6  21
HETATM   21  O3  UNL     1      -2.608  -7.554  -5.104  1.00  0.00    -0.391 OA
ATOM     22  H3  UNL     1      -3.479  -7.539  -5.482  1.00  0.00     0.210 HD
ENDBRANCH   6  21
BRANCH   5  23
HETATM   23  O2  UNL     1      -0.105  -5.127  -5.371  1.00  0.00    -0.390 OA
ATOM     24  H2  UNL     1       0.704  -5.517  -5.062  1.00  0.00     0.210 HD
ENDBRANCH   5  23
BRANCH   4  25
HETATM   25  O1  UNL     1      -1.354  -3.730  -3.520  1.00  0.00    -0.391 OA
ATOM     26  H1  UNL     1      -0.679  -4.227  -3.073  1.00  0.00     0.210 HD
ENDBRANCH   4  25
TORSDOF 9
ENDMDL
MODEL 5
REMARK VINA RESULT: -7.096389671      1.465      1.963
REMARK  9 active torsions:
REMARK  status: ('A' for Active; 'I' for Inactive)
REMARK    1  A    between atoms: C3_4  and  O1_5 
REMARK    2  A    between atoms: C4_7  and  O2_8 
REMARK    3  A    between atoms: C5_10  and  O3_11 
REMARK    4  A    between atoms: C6_13  and  C7_14 
REMARK    5  A    between atoms: C7_14  and  C8_15 
REMARK    6  A    between atoms: C8_15  and  N2_16 
REMARK    7  A    between atoms: C8_15  and  C9_20 
REMARK    8  A    between atoms: C9_20  and  C10_21 
REMARK    9  A    between atoms: C10_21  and  N3_22 
ROOT
HETATM    1  C1  UNL     1      -1.081  -7.087  -5.163  1.00  0.00     0.310 C 
HETATM    2  N1  UNL     1      -2.326  -6.576  -4.729  1.00  0.00     0.094 N 
HETATM    3  C2  UNL     1      -2.198  -5.651  -3.655  1.00  0.00     0.306 C 
HETATM    4  C3  UNL     1      -1.557  -4.364  -4.144  1.00  0.00     0.177 C 
HETATM    5  C4  UNL     1      -2.381  -3.790  -5.247  1.00  0.00     0.179 C 
HETATM    6  C5  UNL     1      -2.666  -4.794  -6.379  1.00  0.00     0.182 C 
HETATM    7  C6  UNL     1      -3.184  -6.032  -5.786  1.00  0.00     0.255 C 
ENDROOT
BRANCH   7   8
HETATM    8  C7  UNL     1      -3.701  -7.109  -6.657  1.00  0.00     0.071 C 
BRANCH   8   9
HETATM    9  C8  UNL     1      -4.194  -6.653  -7.986  1.00  0.00     0.187 C 
BRANCH   9  10
HETATM   10  N2  UNL     1      -3.372  -7.092  -9.049  1.00  0.00    -0.075 N 
ATOM     11  H23 UNL     1      -2.402  -7.184  -8.749  1.00  0.00     0.274 HD
ATOM     12  H22 UNL     1      -3.563  -8.067  -9.283  1.00  0.00     0.274 HD
ATOM     13  H21 UNL     1      -3.446  -6.497  -9.874  1.00  0.00     0.274 HD
ENDBRANCH   9  10
BRANCH   9  14
HETATM   14  C9  UNL     1      -5.661  -6.993  -8.203  1.00  0.00     0.063 C 
BRANCH  14  15
HETATM   15  C10 UNL     1      -6.070  -6.779  -9.641  1.00  0.00     0.274 C 
BRANCH  15  16
HETATM   16  N3  UNL     1      -7.517  -6.946  -9.776  1.00  0.00     0.088 N 
HETATM   17  C11 UNL     1      -7.998  -7.615  -8.563  1.00  0.00     0.272 C 
HETATM   18  C12 UNL     1      -9.320  -8.203  -8.993  1.00  0.00     0.032 C 
HETATM   19  C13 UNL     1      -9.031  -8.654 -10.409  1.00  0.00     0.032 C 
HETATM   20  C14 UNL     1      -7.690  -8.025 -10.752  1.00  0.00     0.272 C 
ENDBRANCH  15  16
ENDBRANCH  14  15
ENDBRANCH   9  14
ENDBRANCH   8   9
ENDBRANCH   7   8
BRANCH   6  21
HETATM   21  O3  UNL     1      -1.557  -4.854  -7.167  1.00  0.00    -0.391 OA
ATOM     22  H3  UNL     1      -1.781  -5.357  -7.941  1.00  0.00     0.210 HD
ENDBRANCH   6  21
BRANCH   5  23
HETATM   23  O2  UNL     1      -3.641  -3.388  -4.773  1.00  0.00    -0.390 OA
ATOM     24  H2  UNL     1      -4.316  -3.996  -5.050  1.00  0.00     0.210 HD
ENDBRANCH   5  23
BRANCH   4  25
HETATM   25  O1  UNL     1      -1.620  -3.433  -3.084  1.00  0.00    -0.391 OA
ATOM     26  H1  UNL     1      -0.763  -3.029  -3.011  1.00  0.00     0.210 HD
ENDBRANCH   4  25
TORSDOF 9
ENDMDL
