MODEL 1
REMARK VINA RESULT: -7.467006099      0.000      0.000
REMARK  9 active torsions:
REMARK  status: ('A' for Active; 'I' for Inactive)
REMARK    1  A    between atoms: C2_2  and  C3_3 
REMARK    2  A    between atoms: C3_3  and  C4_4 
REMARK    3  A    between atoms: C5_5  and  C6_6 
REMARK    4  A    between atoms: C6_6  and  C7_7 
REMARK    5  A    between atoms: C8_9  and  C9_10 
REMARK    6  A    between atoms: C9_10  and  S1_11 
REMARK    7  A    between atoms: C10_14  and  O4_15 
REMARK    8  A    between atoms: C11_17  and  O5_18 
REMARK    9  A    between atoms: C12_20  and  O6_21 
ROOT
HETATM    1  C7  UNL     1      -3.475  -6.359  -6.885  1.00  0.00     0.156 C 
HETATM    2  O1  UNL     1      -3.151  -7.030  -5.738  1.00  0.00    -0.374 OA
HETATM    3  C8  UNL     1      -1.808  -6.865  -5.364  1.00  0.00     0.168 C 
HETATM    4  C10 UNL     1      -1.506  -5.483  -4.911  1.00  0.00     0.179 C 
HETATM    5  C11 UNL     1      -2.562  -4.560  -5.522  1.00  0.00     0.180 C 
HETATM    6  C12 UNL     1      -2.776  -5.016  -6.951  1.00  0.00     0.178 C 
ENDROOT
BRANCH   1   7
HETATM    7  C6  UNL     1      -3.355  -7.128  -8.155  1.00  0.00     0.061 C 
BRANCH   7   8
HETATM    8  C5  UNL     1      -4.484  -6.985  -9.099  1.00  0.00    -0.028 C 
HETATM    9  C4  UNL     1      -5.741  -6.899  -8.803  1.00  0.00    -0.031 C 
BRANCH   9  10
HETATM   10  C3  UNL     1      -6.866  -6.759  -9.727  1.00  0.00     0.026 C 
BRANCH  10  11
HETATM   11  C2  UNL     1      -7.190  -7.927 -10.590  1.00  0.00    -0.001 C 
HETATM   12  C1  UNL     1      -7.945  -9.024  -9.874  1.00  0.00     0.005 C 
ENDBRANCH  10  11
ENDBRANCH   9  10
ENDBRANCH   7   8
ENDBRANCH   1   7
BRANCH   6  13
HETATM   13  O6  UNL     1      -1.600  -5.094  -7.658  1.00  0.00    -0.390 OA
ATOM     14  H6  UNL     1      -1.151  -4.257  -7.681  1.00  0.00     0.210 HD
ENDBRANCH   6  13
BRANCH   3  15
HETATM   15  C9  UNL     1      -1.520  -7.927  -4.334  1.00  0.00     0.191 C 
BRANCH  15  16
HETATM   16  S1  UNL     1      -2.521  -9.364  -4.519  1.00  0.00     0.253 S 
HETATM   17  O2  UNL     1      -3.143  -9.731  -2.980  1.00  0.00    -0.212 OA
HETATM   18  O3  UNL     1      -1.628 -10.706  -4.994  1.00  0.00    -0.212 OA
ENDBRANCH  15  16
ENDBRANCH   3  15
BRANCH   5  19
HETATM   19  O5  UNL     1      -2.129  -3.241  -5.560  1.00  0.00    -0.390 OA
ATOM     20  H5  UNL     1      -2.848  -2.642  -5.723  1.00  0.00     0.210 HD
ENDBRANCH   5  19
BRANCH   4  21
HETATM   21  O4  UNL     1      -0.271  -5.004  -5.351  1.00  0.00    -0.390 OA
ATOM     22  H4  UNL     1      -0.325  -4.472  -6.137  1.00  0.00     0.210 HD
ENDBRANCH   4  21
TORSDOF 9
ENDMDL
MODEL 2
REMARK VINA RESULT: -7.377574484      1.191      1.444
REMARK  9 active torsions:
REMARK  status: ('A' for Active; 'I' for Inactive)
REMARK    1  A    between atoms: C2_2  and  C3_3 
REMARK    2  A    between atoms: C3_3  and  C4_4 
REMARK    3  A    between atoms: C5_5  and  C6_6 
REMARK    4  A    between atoms: C6_6  and  C7_7 
REMARK    5  A    between atoms: C8_9  and  C9_10 
REMARK    6  A    between atoms: C9_10  and  S1_11 
REMARK    7  A    between atoms: C10_14  and  O4_15 
REMARK    8  A    between atoms: C11_17  and  O5_18 
REMARK    9  A    between atoms: C12_20  and  O6_21 
ROOT
HETATM    1  C7  UNL     1      -3.508  -6.248  -6.970  1.00  0.00     0.156 C 
HETATM    2  O1  UNL     1      -3.228  -6.967  -5.840  1.00  0.00    -0.374 OA
HETATM    3  C8  UNL     1      -1.889  -6.856  -5.435  1.00  0.00     0.168 C 
HETATM    4  C10 UNL     1      -1.555  -5.500  -4.928  1.00  0.00     0.179 C 
HETATM    5  C11 UNL     1      -2.571  -4.525  -5.527  1.00  0.00     0.180 C 
HETATM    6  C12 UNL     1      -2.769  -4.926  -6.975  1.00  0.00     0.178 C 
ENDROOT
BRANCH   1   7
HETATM    7  C6  UNL     1      -3.385  -6.977  -8.263  1.00  0.00     0.061 C 
BRANCH   7   8
HETATM    8  C5  UNL     1      -4.576  -6.931  -9.139  1.00  0.00    -0.028 C 
HETATM    9  C4  UNL     1      -5.814  -6.856  -8.768  1.00  0.00    -0.031 C 
BRANCH   9  10
HETATM   10  C3  UNL     1      -6.999  -6.813  -9.624  1.00  0.00     0.026 C 
BRANCH  10  11
HETATM   11  C2  UNL     1      -7.184  -7.928 -10.591  1.00  0.00    -0.001 C 
HETATM   12  C1  UNL     1      -7.998  -9.080 -10.048  1.00  0.00     0.005 C 
ENDBRANCH  10  11
ENDBRANCH   9  10
ENDBRANCH   7   8
ENDBRANCH   1   7
BRANCH   6  13
HETATM   13  O6  UNL     1      -1.582  -5.015  -7.662  1.00  0.00    -0.390 OA
ATOM     14  H6  UNL     1      -0.962  -5.579  -7.214  1.00  0.00     0.210 HD
ENDBRANCH   6  13
BRANCH   3  15
HETATM   15  C9  UNL     1      -1.653  -7.960  -4.437  1.00  0.00     0.191 C 
BRANCH  15  16
HETATM   16  S1  UNL     1      -1.726  -7.411  -2.764  1.00  0.00     0.253 S 
HETATM   17  O2  UNL     1      -0.121  -7.193  -2.249  1.00  0.00    -0.212 OA
HETATM   18  O3  UNL     1      -2.392  -8.566  -1.742  1.00  0.00    -0.212 OA
ENDBRANCH  15  16
ENDBRANCH   3  15
BRANCH   5  19
HETATM   19  O5  UNL     1      -2.099  -3.220  -5.512  1.00  0.00    -0.390 OA
ATOM     20  H5  UNL     1      -2.021  -2.865  -6.389  1.00  0.00     0.210 HD
ENDBRANCH   5  19
BRANCH   4  21
HETATM   21  O4  UNL     1      -0.298  -5.043  -5.328  1.00  0.00    -0.390 OA
ATOM     22  H4  UNL     1      -0.193  -4.987  -6.271  1.00  0.00     0.210 HD
ENDBRANCH   4  21
TORSDOF 9
ENDMDL
MODEL 3
REMARK VINA RESULT: -6.968942542      1.620      1.867
REMARK  9 active torsions:
REMARK  status: ('A' for Active; 'I' for Inactive)
REMARK    1  A    between atoms: C2_2  and  C3_3 
REMARK    2  A    between atoms: C3_3  and  C4_4 
REMARK    3  A    between atoms: C5_5  and  C6_6 
REMARK    4  A    between atoms: C6_6  and  C7_7 
REMARK    5  A    between atoms: C8_9  and  C9_10 
REMARK    6  A    between atoms: C9_10  and  S1_11 
REMARK    7  A    between atoms: C10_14  and  O4_15 
REMARK    8  A    between atoms: C11_17  and  O5_18 
REMARK    9  A    between atoms: C12_20  and  O6_21 
ROOT
HETATM    1  C7  UNL     1      -3.318  -6.220  -6.633  1.00  0.00     0.156 C 
HETATM    2  O1  UNL     1      -2.869  -6.971  -5.581  1.00  0.00    -0.374 OA
HETATM    3  C8  UNL     1      -1.734  -6.425  -4.961  1.00  0.00     0.168 C 
HETATM    4  C10 UNL     1      -2.031  -5.166  -4.230  1.00  0.00     0.179 C 
HETATM    5  C11 UNL     1      -3.300  -4.570  -4.842  1.00  0.00     0.180 C 
HETATM    6  C12 UNL     1      -3.188  -4.738  -6.344  1.00  0.00     0.178 C 
ENDROOT
BRANCH   1   7
HETATM    7  C6  UNL     1      -2.794  -6.589  -7.977  1.00  0.00     0.061 C 
BRANCH   7   8
HETATM    8  C5  UNL     1      -3.803  -7.059  -8.950  1.00  0.00    -0.028 C 
HETATM    9  C4  UNL     1      -4.994  -6.584  -9.129  1.00  0.00    -0.031 C 
BRANCH   9  10
HETATM   10  C3  UNL     1      -6.001  -7.043 -10.086  1.00  0.00     0.026 C 
BRANCH  10  11
HETATM   11  C2  UNL     1      -7.251  -7.630  -9.533  1.00  0.00    -0.001 C 
HETATM   12  C1  UNL     1      -7.490  -7.299  -8.078  1.00  0.00     0.005 C 
ENDBRANCH  10  11
ENDBRANCH   9  10
ENDBRANCH   7   8
ENDBRANCH   1   7
BRANCH   6  13
HETATM   13  O6  UNL     1      -2.013  -4.229  -6.843  1.00  0.00    -0.390 OA
ATOM     14  H6  UNL     1      -1.567  -4.860  -7.396  1.00  0.00     0.210 HD
ENDBRANCH   6  13
BRANCH   3  15
HETATM   15  C9  UNL     1      -1.155  -7.515  -4.096  1.00  0.00     0.191 C 
BRANCH  15  16
HETATM   16  S1  UNL     1      -1.376  -7.226  -2.372  1.00  0.00     0.253 S 
HETATM   17  O2  UNL     1       0.164  -7.318  -1.658  1.00  0.00    -0.212 OA
HETATM   18  O3  UNL     1      -2.304  -8.419  -1.638  1.00  0.00    -0.212 OA
ENDBRANCH  15  16
ENDBRANCH   3  15
BRANCH   5  19
HETATM   19  O5  UNL     1      -3.407  -3.212  -4.577  1.00  0.00    -0.390 OA
ATOM     20  H5  UNL     1      -3.829  -3.050  -3.741  1.00  0.00     0.210 HD
ENDBRANCH   5  19
BRANCH   4  21
HETATM   21  O4  UNL     1      -1.041  -4.191  -4.363  1.00  0.00    -0.390 OA
ATOM     22  H4  UNL     1      -1.383  -3.309  -4.455  1.00  0.00     0.210 HD
ENDBRANCH   4  21
TORSDOF 9
ENDMDL
MODEL 4
REMARK VINA RESULT: -6.908014793      2.256      3.993
REMARK  9 active torsions:
REMARK  status: ('A' for Active; 'I' for Inactive)
REMARK    1  A    between atoms: C2_2  and  C3_3 
REMARK    2  A    between atoms: C3_3  and  C4_4 
REMARK    3  A    between atoms: C5_5  and  C6_6 
REMARK    4  A    between atoms: C6_6  and  C7_7 
REMARK    5  A    between atoms: C8_9  and  C9_10 
REMARK    6  A    between atoms: C9_10  and  S1_11 
REMARK    7  A    between atoms: C10_14  and  O4_15 
REMARK    8  A    between atoms: C11_17  and  O5_18 
REMARK    9  A    between atoms: C12_20  and  O6_21 
ROOT
HETATM    1  C7  UNL     1      -3.310  -5.773  -6.567  1.00  0.00     0.156 C 
HETATM    2  O1  UNL     1      -3.101  -4.685  -5.766  1.00  0.00    -0.374 OA
HETATM    3  C8  UNL     1      -3.078  -5.004  -4.399  1.00  0.00     0.168 C 
HETATM    4  C10 UNL     1      -1.882  -5.799  -4.017  1.00  0.00     0.179 C 
HETATM    5  C11 UNL     1      -1.372  -6.492  -5.281  1.00  0.00     0.180 C 
HETATM    6  C12 UNL     1      -2.588  -6.994  -6.034  1.00  0.00     0.178 C 
ENDROOT
BRANCH   1   7
HETATM    7  C6  UNL     1      -4.725  -6.061  -6.933  1.00  0.00     0.061 C 
BRANCH   7   8
HETATM    8  C5  UNL     1      -4.947  -6.515  -8.322  1.00  0.00    -0.028 C 
HETATM    9  C4  UNL     1      -6.082  -6.798  -8.877  1.00  0.00    -0.031 C 
BRANCH   9  10
HETATM   10  C3  UNL     1      -6.314  -7.251 -10.249  1.00  0.00     0.026 C 
BRANCH  10  11
HETATM   11  C2  UNL     1      -7.621  -7.897 -10.543  1.00  0.00    -0.001 C 
HETATM   12  C1  UNL     1      -8.002  -8.980  -9.560  1.00  0.00     0.005 C 
ENDBRANCH  10  11
ENDBRANCH   9  10
ENDBRANCH   7   8
ENDBRANCH   1   7
BRANCH   6  13
HETATM   13  O6  UNL     1      -3.411  -7.763  -5.247  1.00  0.00    -0.390 OA
ATOM     14  H6  UNL     1      -2.938  -8.484  -4.849  1.00  0.00     0.210 HD
ENDBRANCH   6  13
BRANCH   3  15
HETATM   15  C9  UNL     1      -3.212  -3.700  -3.655  1.00  0.00     0.191 C 
BRANCH  15  16
HETATM   16  S1  UNL     1      -1.954  -2.535  -4.063  1.00  0.00     0.253 S 
HETATM   17  O2  UNL     1      -1.556  -1.719  -2.625  1.00  0.00    -0.212 OA
HETATM   18  O3  UNL     1      -2.496  -1.359  -5.133  1.00  0.00    -0.212 OA
ENDBRANCH  15  16
ENDBRANCH   3  15
BRANCH   5  19
HETATM   19  O5  UNL     1      -0.581  -7.592  -4.978  1.00  0.00    -0.390 OA
ATOM     20  H5  UNL     1      -0.643  -7.825  -4.059  1.00  0.00     0.210 HD
ENDBRANCH   5  19
BRANCH   4  21
HETATM   21  O4  UNL     1      -2.152  -6.815  -3.099  1.00  0.00    -0.390 OA
ATOM     22  H4  UNL     1      -2.434  -6.498  -2.249  1.00  0.00     0.210 HD
ENDBRANCH   4  21
TORSDOF 9
ENDMDL
MODEL 5
REMARK VINA RESULT: -6.854757385      2.440      3.741
REMARK  9 active torsions:
REMARK  status: ('A' for Active; 'I' for Inactive)
REMARK    1  A    between atoms: C2_2  and  C3_3 
REMARK    2  A    between atoms: C3_3  and  C4_4 
REMARK    3  A    between atoms: C5_5  and  C6_6 
REMARK    4  A    between atoms: C6_6  and  C7_7 
REMARK    5  A    between atoms: C8_9  and  C9_10 
REMARK    6  A    between atoms: C9_10  and  S1_11 
REMARK    7  A    between atoms: C10_14  and  O4_15 
REMARK    8  A    between atoms: C11_17  and  O5_18 
REMARK    9  A    between atoms: C12_20  and  O6_21 
ROOT
HETATM    1  C7  UNL     1      -4.608  -5.704  -7.147  1.00  0.00     0.156 C 
HETATM    2  O1  UNL     1      -4.345  -4.752  -6.200  1.00  0.00    -0.374 OA
HETATM    3  C8  UNL     1      -3.269  -5.089  -5.365  1.00  0.00     0.168 C 
HETATM    4  C10 UNL     1      -1.964  -5.067  -6.075  1.00  0.00     0.179 C 
HETATM    5  C11 UNL     1      -2.253  -5.250  -7.566  1.00  0.00     0.180 C 
HETATM    6  C12 UNL     1      -3.327  -6.312  -7.683  1.00  0.00     0.178 C 
ENDROOT
BRANCH   1   7
HETATM    7  C6  UNL     1      -5.621  -6.733  -6.784  1.00  0.00     0.061 C 
BRANCH   7   8
HETATM    8  C5  UNL     1      -6.594  -7.075  -7.843  1.00  0.00    -0.028 C 
HETATM    9  C4  UNL     1      -6.386  -7.075  -9.121  1.00  0.00    -0.031 C 
BRANCH   9  10
HETATM   10  C3  UNL     1      -7.341  -7.408 -10.178  1.00  0.00     0.026 C 
BRANCH  10  11
HETATM   11  C2  UNL     1      -7.946  -8.767 -10.149  1.00  0.00    -0.001 C 
HETATM   12  C1  UNL     1      -9.155  -8.917 -11.045  1.00  0.00     0.005 C 
ENDBRANCH  10  11
ENDBRANCH   9  10
ENDBRANCH   7   8
ENDBRANCH   1   7
BRANCH   6  13
HETATM   13  O6  UNL     1      -2.999  -7.466  -7.013  1.00  0.00    -0.390 OA
ATOM     14  H6  UNL     1      -2.326  -7.956  -7.472  1.00  0.00     0.210 HD
ENDBRANCH   6  13
BRANCH   3  15
HETATM   15  C9  UNL     1      -3.340  -4.157  -4.182  1.00  0.00     0.191 C 
BRANCH  15  16
HETATM   16  S1  UNL     1      -2.094  -2.912  -4.203  1.00  0.00     0.253 S 
HETATM   17  O2  UNL     1      -1.964  -2.320  -2.614  1.00  0.00    -0.212 OA
HETATM   18  O3  UNL     1      -2.521  -1.597  -5.158  1.00  0.00    -0.212 OA
ENDBRANCH  15  16
ENDBRANCH   3  15
BRANCH   5  19
HETATM   19  O5  UNL     1      -1.134  -5.705  -8.252  1.00  0.00    -0.390 OA
ATOM     20  H5  UNL     1      -1.222  -5.577  -9.189  1.00  0.00     0.210 HD
ENDBRANCH   5  19
BRANCH   4  21
HETATM   21  O4  UNL     1      -1.109  -6.110  -5.715  1.00  0.00    -0.390 OA
ATOM     22  H4  UNL     1      -0.399  -6.253  -6.330  1.00  0.00     0.210 HD
ENDBRANCH   4  21
TORSDOF 9
ENDMDL
