MODEL 1
REMARK VINA RESULT: -7.590025725      0.000      0.000
REMARK  7 active torsions:
REMARK  status: ('A' for Active; 'I' for Inactive)
REMARK    1  A    between atoms: C5_5  and  N1_6 
REMARK       I    between atoms: N1_6  and  C7_8 
REMARK    2  A    between atoms: C7_8  and  O2_10 
REMARK    3  A    between atoms: O2_10  and  C8_11 
REMARK    4  A    between atoms: C8_11  and  C9_12 
REMARK    5  A    between atoms: C9_12  and  O3_13 
REMARK    6  A    between atoms: C9_12  and  C10_15 
REMARK    7  A    between atoms: C10_15  and  N2_16 
ROOT
HETATM    1  N1  UNL     1       2.913  -6.236   7.161  1.00  0.00    -0.328 N 
HETATM    2  C6  UNL     1       1.734  -5.546   7.630  1.00  0.00     0.155 C 
HETATM    3  C7  UNL     1       3.955  -6.515   8.070  1.00  0.00     0.362 C 
HETATM    4  O1  UNL     1       3.838  -6.147   9.255  1.00  0.00    -0.238 OA
ENDROOT
BRANCH   3   5
HETATM    5  O2  UNL     1       5.062  -7.173   7.657  1.00  0.00    -0.301 OA
BRANCH   5   6
HETATM    6  C8  UNL     1       6.370  -7.012   7.998  1.00  0.00     0.214 C 
BRANCH   6   7
HETATM    7  C9  UNL     1       6.725  -7.681   9.296  1.00  0.00     0.170 C 
BRANCH   7   8
HETATM    8  O3  UNL     1       6.349  -7.055  10.440  1.00  0.00    -0.392 OA
ATOM      9  H3  UNL     1       5.592  -7.402  10.897  1.00  0.00     0.210 HD
ENDBRANCH   7   8
BRANCH   7  10
HETATM   10  C10 UNL     1       8.242  -7.806   9.302  1.00  0.00     0.306 C 
BRANCH  10  11
HETATM   11  N2  UNL     1       8.636  -9.099   9.737  1.00  0.00     0.091 N 
HETATM   12  C11 UNL     1       9.685  -9.639   8.953  1.00  0.00     0.272 C 
HETATM   13  C12 UNL     1      10.941  -9.534   9.787  1.00  0.00     0.032 C 
HETATM   14  C13 UNL     1      10.536  -8.639  10.966  1.00  0.00     0.032 C 
HETATM   15  C14 UNL     1       9.081  -9.053  11.093  1.00  0.00     0.272 C 
ENDBRANCH  10  11
ENDBRANCH   7  10
ENDBRANCH   6   7
ENDBRANCH   5   6
ENDBRANCH   3   5
BRANCH   1  16
HETATM   16  C5  UNL     1       3.025  -6.642   5.791  1.00  0.00     0.089 C 
HETATM   17  C4  UNL     1       3.837  -5.630   5.007  1.00  0.00     0.026 C 
HETATM   18  C3  UNL     1       2.928  -4.835   4.098  1.00  0.00     0.006 C 
HETATM   19  C2  UNL     1       2.243  -5.718   3.088  1.00  0.00    -0.019 C 
HETATM   20  C1  UNL     1       0.951  -5.018   2.680  1.00  0.00     0.010 C 
HETATM   21  C16 UNL     1       1.946  -7.071   3.654  1.00  0.00     0.006 C 
HETATM   22  C15 UNL     1       1.675  -6.899   5.151  1.00  0.00     0.026 C 
ENDBRANCH   1  16
TORSDOF 7
ENDMDL
MODEL 2
REMARK VINA RESULT: -7.538483153      1.446      1.775
REMARK  7 active torsions:
REMARK  status: ('A' for Active; 'I' for Inactive)
REMARK    1  A    between atoms: C5_5  and  N1_6 
REMARK       I    between atoms: N1_6  and  C7_8 
REMARK    2  A    between atoms: C7_8  and  O2_10 
REMARK    3  A    between atoms: O2_10  and  C8_11 
REMARK    4  A    between atoms: C8_11  and  C9_12 
REMARK    5  A    between atoms: C9_12  and  O3_13 
REMARK    6  A    between atoms: C9_12  and  C10_15 
REMARK    7  A    between atoms: C10_15  and  N2_16 
ROOT
HETATM    1  N1  UNL     1       4.285  -6.663   7.990  1.00  0.00    -0.328 N 
HETATM    2  C6  UNL     1       3.275  -5.866   8.647  1.00  0.00     0.155 C 
HETATM    3  C7  UNL     1       5.444  -7.031   8.706  1.00  0.00     0.362 C 
HETATM    4  O1  UNL     1       5.574  -6.649   9.884  1.00  0.00    -0.238 OA
ENDROOT
BRANCH   3   5
HETATM    5  O2  UNL     1       6.397  -7.789   8.115  1.00  0.00    -0.301 OA
BRANCH   5   6
HETATM    6  C8  UNL     1       7.755  -7.712   8.174  1.00  0.00     0.214 C 
BRANCH   6   7
HETATM    7  C9  UNL     1       8.384  -8.909   8.827  1.00  0.00     0.170 C 
BRANCH   7   8
HETATM    8  O3  UNL     1       7.609  -9.634   9.673  1.00  0.00    -0.392 OA
ATOM      9  H3  UNL     1       8.016 -10.370  10.114  1.00  0.00     0.210 HD
ENDBRANCH   7   8
BRANCH   7  10
HETATM   10  C10 UNL     1       9.575  -8.380   9.614  1.00  0.00     0.306 C 
BRANCH  10  11
HETATM   11  N2  UNL     1      10.379  -9.452  10.085  1.00  0.00     0.091 N 
HETATM   12  C11 UNL     1      11.057 -10.123   9.037  1.00  0.00     0.272 C 
HETATM   13  C12 UNL     1      12.501  -9.681   9.108  1.00  0.00     0.032 C 
HETATM   14  C13 UNL     1      12.486  -8.508  10.096  1.00  0.00     0.032 C 
HETATM   15  C14 UNL     1      11.360  -8.970  11.003  1.00  0.00     0.272 C 
ENDBRANCH  10  11
ENDBRANCH   7  10
ENDBRANCH   6   7
ENDBRANCH   5   6
ENDBRANCH   3   5
BRANCH   1  16
HETATM   16  C5  UNL     1       4.114  -7.083   6.631  1.00  0.00     0.089 C 
HETATM   17  C4  UNL     1       4.484  -5.961   5.682  1.00  0.00     0.026 C 
HETATM   18  C3  UNL     1       3.234  -5.384   5.057  1.00  0.00     0.006 C 
HETATM   19  C2  UNL     1       2.495  -6.414   4.244  1.00  0.00    -0.019 C 
HETATM   20  C1  UNL     1       1.031  -5.987   4.200  1.00  0.00     0.010 C 
HETATM   21  C16 UNL     1       2.621  -7.780   4.841  1.00  0.00     0.006 C 
HETATM   22  C15 UNL     1       2.721  -7.615   6.360  1.00  0.00     0.026 C 
ENDBRANCH   1  16
TORSDOF 7
ENDMDL
MODEL 3
REMARK VINA RESULT: -7.464550316      1.446      1.911
REMARK  7 active torsions:
REMARK  status: ('A' for Active; 'I' for Inactive)
REMARK    1  A    between atoms: C5_5  and  N1_6 
REMARK       I    between atoms: N1_6  and  C7_8 
REMARK    2  A    between atoms: C7_8  and  O2_10 
REMARK    3  A    between atoms: O2_10  and  C8_11 
REMARK    4  A    between atoms: C8_11  and  C9_12 
REMARK    5  A    between atoms: C9_12  and  O3_13 
REMARK    6  A    between atoms: C9_12  and  C10_15 
REMARK    7  A    between atoms: C10_15  and  N2_16 
ROOT
HETATM    1  N1  UNL     1       4.174  -6.640   7.906  1.00  0.00    -0.328 N 
HETATM    2  C6  UNL     1       3.112  -5.911   8.560  1.00  0.00     0.155 C 
HETATM    3  C7  UNL     1       5.317  -7.002   8.648  1.00  0.00     0.362 C 
HETATM    4  O1  UNL     1       5.390  -6.674   9.847  1.00  0.00    -0.238 OA
ENDROOT
BRANCH   3   5
HETATM    5  O2  UNL     1       6.319  -7.698   8.060  1.00  0.00    -0.301 OA
BRANCH   5   6
HETATM    6  C8  UNL     1       7.664  -7.662   8.265  1.00  0.00     0.214 C 
BRANCH   6   7
HETATM    7  C9  UNL     1       8.201  -8.930   8.864  1.00  0.00     0.170 C 
BRANCH   7   8
HETATM    8  O3  UNL     1       7.403  -9.589   9.743  1.00  0.00    -0.392 OA
ATOM      9  H3  UNL     1       6.598  -9.962   9.404  1.00  0.00     0.210 HD
ENDBRANCH   7   8
BRANCH   7  10
HETATM   10  C10 UNL     1       9.483  -8.542   9.588  1.00  0.00     0.306 C 
BRANCH  10  11
HETATM   11  N2  UNL     1      10.606  -8.697   8.734  1.00  0.00     0.091 N 
HETATM   12  C11 UNL     1      11.833  -8.673   9.443  1.00  0.00     0.272 C 
HETATM   13  C12 UNL     1      12.323 -10.102   9.502  1.00  0.00     0.032 C 
HETATM   14  C13 UNL     1      11.125 -10.929   9.018  1.00  0.00     0.032 C 
HETATM   15  C14 UNL     1      10.530  -9.939   8.033  1.00  0.00     0.272 C 
ENDBRANCH  10  11
ENDBRANCH   7  10
ENDBRANCH   6   7
ENDBRANCH   5   6
ENDBRANCH   3   5
BRANCH   1  16
HETATM   16  C5  UNL     1       4.069  -6.999   6.523  1.00  0.00     0.089 C 
HETATM   17  C4  UNL     1       4.342  -5.795   5.644  1.00  0.00     0.026 C 
HETATM   18  C3  UNL     1       3.052  -5.310   5.022  1.00  0.00     0.006 C 
HETATM   19  C2  UNL     1       2.433  -6.361   4.139  1.00  0.00    -0.019 C 
HETATM   20  C1  UNL     1       0.934  -6.078   4.084  1.00  0.00     0.010 C 
HETATM   21  C16 UNL     1       2.684  -7.739   4.665  1.00  0.00     0.006 C 
HETATM   22  C15 UNL     1       2.740  -7.649   6.193  1.00  0.00     0.026 C 
ENDBRANCH   1  16
TORSDOF 7
ENDMDL
MODEL 4
REMARK VINA RESULT: -7.423268584      1.419      8.438
REMARK  7 active torsions:
REMARK  status: ('A' for Active; 'I' for Inactive)
REMARK    1  A    between atoms: C5_5  and  N1_6 
REMARK       I    between atoms: N1_6  and  C7_8 
REMARK    2  A    between atoms: C7_8  and  O2_10 
REMARK    3  A    between atoms: O2_10  and  C8_11 
REMARK    4  A    between atoms: C8_11  and  C9_12 
REMARK    5  A    between atoms: C9_12  and  O3_13 
REMARK    6  A    between atoms: C9_12  and  C10_15 
REMARK    7  A    between atoms: C10_15  and  N2_16 
ROOT
HETATM    1  N1  UNL     1       9.019  -8.575  10.280  1.00  0.00    -0.328 N 
HETATM    2  C6  UNL     1       9.141  -9.316  11.514  1.00  0.00     0.155 C 
HETATM    3  C7  UNL     1       7.821  -7.879  10.012  1.00  0.00     0.362 C 
HETATM    4  O1  UNL     1       6.893  -7.930  10.841  1.00  0.00    -0.238 OA
ENDROOT
BRANCH   3   5
HETATM    5  O2  UNL     1       7.689  -7.166   8.869  1.00  0.00    -0.301 OA
BRANCH   5   6
HETATM    6  C8  UNL     1       6.862  -7.345   7.803  1.00  0.00     0.214 C 
BRANCH   6   7
HETATM    7  C9  UNL     1       5.497  -6.754   8.012  1.00  0.00     0.170 C 
BRANCH   7   8
HETATM    8  O3  UNL     1       4.629  -7.454   8.786  1.00  0.00    -0.392 OA
ATOM      9  H3  UNL     1       4.998  -8.094   9.383  1.00  0.00     0.210 HD
ENDBRANCH   7   8
BRANCH   7  10
HETATM   10  C10 UNL     1       4.884  -6.612   6.625  1.00  0.00     0.306 C 
BRANCH  10  11
HETATM   11  N2  UNL     1       3.473  -6.753   6.685  1.00  0.00     0.091 N 
HETATM   12  C11 UNL     1       2.809  -5.508   6.821  1.00  0.00     0.272 C 
HETATM   13  C12 UNL     1       2.209  -5.193   5.470  1.00  0.00     0.032 C 
HETATM   14  C13 UNL     1       2.842  -6.226   4.528  1.00  0.00     0.032 C 
HETATM   15  C14 UNL     1       2.986  -7.382   5.500  1.00  0.00     0.272 C 
ENDBRANCH  10  11
ENDBRANCH   7  10
ENDBRANCH   6   7
ENDBRANCH   5   6
ENDBRANCH   3   5
BRANCH   1  16
HETATM   16  C5  UNL     1      10.099  -8.538   9.339  1.00  0.00     0.089 C 
HETATM   17  C4  UNL     1       9.867  -9.547   8.232  1.00  0.00     0.026 C 
HETATM   18  C3  UNL     1      10.811 -10.717   8.397  1.00  0.00     0.006 C 
HETATM   19  C2  UNL     1      12.251 -10.286   8.298  1.00  0.00    -0.019 C 
HETATM   20  C1  UNL     1      13.080 -11.306   9.073  1.00  0.00     0.010 C 
HETATM   21  C16 UNL     1      12.454  -8.915   8.861  1.00  0.00     0.006 C 
HETATM   22  C15 UNL     1      11.449  -8.727  10.001  1.00  0.00     0.026 C 
ENDBRANCH   1  16
TORSDOF 7
ENDMDL
MODEL 5
REMARK VINA RESULT: -7.299387793      1.089      1.588
REMARK  7 active torsions:
REMARK  status: ('A' for Active; 'I' for Inactive)
REMARK    1  A    between atoms: C5_5  and  N1_6 
REMARK       I    between atoms: N1_6  and  C7_8 
REMARK    2  A    between atoms: C7_8  and  O2_10 
REMARK    3  A    between atoms: O2_10  and  C8_11 
REMARK    4  A    between atoms: C8_11  and  C9_12 
REMARK    5  A    between atoms: C9_12  and  O3_13 
REMARK    6  A    between atoms: C9_12  and  C10_15 
REMARK    7  A    between atoms: C10_15  and  N2_16 
ROOT
HETATM    1  N1  UNL     1       2.918  -6.134   7.025  1.00  0.00    -0.328 N 
HETATM    2  C6  UNL     1       1.701  -5.381   7.221  1.00  0.00     0.155 C 
HETATM    3  C7  UNL     1       3.845  -6.231   8.084  1.00  0.00     0.362 C 
HETATM    4  O1  UNL     1       3.597  -5.653   9.159  1.00  0.00    -0.238 OA
ENDROOT
BRANCH   3   5
HETATM    5  O2  UNL     1       4.985  -6.943   7.929  1.00  0.00    -0.301 OA
BRANCH   5   6
HETATM    6  C8  UNL     1       5.811  -7.510   8.851  1.00  0.00     0.214 C 
BRANCH   6   7
HETATM    7  C9  UNL     1       7.254  -7.144   8.652  1.00  0.00     0.170 C 
BRANCH   7   8
HETATM    8  O3  UNL     1       7.587  -6.543   7.482  1.00  0.00    -0.392 OA
ATOM      9  H3  UNL     1       7.775  -7.107   6.741  1.00  0.00     0.210 HD
ENDBRANCH   7   8
BRANCH   7  10
HETATM   10  C10 UNL     1       8.035  -8.446   8.754  1.00  0.00     0.306 C 
BRANCH  10  11
HETATM   11  N2  UNL     1       9.420  -8.186   8.932  1.00  0.00     0.091 N 
HETATM   12  C11 UNL     1       9.890  -8.603  10.203  1.00  0.00     0.272 C 
HETATM   13  C12 UNL     1      10.679  -9.872   9.973  1.00  0.00     0.032 C 
HETATM   14  C13 UNL     1      10.357 -10.256   8.523  1.00  0.00     0.032 C 
HETATM   15  C14 UNL     1      10.185  -8.866   7.937  1.00  0.00     0.272 C 
ENDBRANCH  10  11
ENDBRANCH   7  10
ENDBRANCH   6   7
ENDBRANCH   5   6
ENDBRANCH   3   5
BRANCH   1  16
HETATM   16  C5  UNL     1       3.183  -6.783   5.775  1.00  0.00     0.089 C 
HETATM   17  C4  UNL     1       3.274  -5.761   4.660  1.00  0.00     0.026 C 
HETATM   18  C3  UNL     1       2.043  -5.844   3.785  1.00  0.00     0.006 C 
HETATM   19  C2  UNL     1       1.919  -7.193   3.128  1.00  0.00    -0.019 C 
HETATM   20  C1  UNL     1       0.440  -7.413   2.825  1.00  0.00     0.010 C 
HETATM   21  C16 UNL     1       2.437  -8.284   4.012  1.00  0.00     0.006 C 
HETATM   22  C15 UNL     1       2.174  -7.871   5.463  1.00  0.00     0.026 C 
ENDBRANCH   1  16
TORSDOF 7
ENDMDL
