MODEL 1
REMARK VINA RESULT: -7.947350925      0.000      0.000
REMARK  5 active torsions:
REMARK  status: ('A' for Active; 'I' for Inactive)
REMARK    1  A    between atoms: C2_2  and  N1_3 
REMARK       I    between atoms: N1_3  and  C3_4 
REMARK    2  A    between atoms: N1_3  and  C13_18 
REMARK    3  A    between atoms: C3_4  and  C4_6 
REMARK    4  A    between atoms: C9_12  and  O3_13 
REMARK    5  A    between atoms: C9_12  and  C10_15 
ROOT
HETATM    1  C13 UNL     1       3.545  -6.061   5.992  1.00  0.00     0.104 C 
HETATM    2  C14 UNL     1       2.948  -7.120   5.140  1.00  0.00     0.028 C 
HETATM    3  C15 UNL     1       1.657  -6.365   5.053  1.00  0.00     0.023 C 
HETATM    4  C16 UNL     1       2.200  -5.375   6.050  1.00  0.00     0.116 C 
HETATM    5  C17 UNL     1       2.189  -3.998   5.545  1.00  0.00     0.066 C 
HETATM    6  N2  UNL     1       2.171  -2.923   5.133  1.00  0.00    -0.197 NA
ENDROOT
BRANCH   1   7
HETATM    7  N1  UNL     1       4.087  -6.466   7.283  1.00  0.00    -0.346 N 
HETATM    8  C3  UNL     1       5.343  -7.063   7.415  1.00  0.00     0.226 C 
HETATM    9  O1  UNL     1       6.007  -7.249   6.333  1.00  0.00    -0.273 OA
BRANCH   7  10
HETATM   10  C2  UNL     1       3.222  -6.204   8.442  1.00  0.00     0.122 C 
HETATM   11  C1  UNL     1       2.601  -7.476   8.965  1.00  0.00     0.026 C 
ENDBRANCH   7  10
BRANCH   8  12
HETATM   12  C4  UNL     1       6.007  -7.508   8.642  1.00  0.00     0.107 C 
HETATM   13  C5  UNL     1       6.230  -6.452   9.680  1.00  0.00     0.021 C 
HETATM   14  C6  UNL     1       7.684  -6.652  10.070  1.00  0.00    -0.006 C 
HETATM   15  C7  UNL     1       8.265  -6.945   8.708  1.00  0.00     0.037 C 
HETATM   16  C12 UNL     1       7.713  -7.837  10.999  1.00  0.00     0.073 C 
HETATM   17  C8  UNL     1       7.383  -8.120   8.341  1.00  0.00     0.138 C 
HETATM   18  O2  UNL     1       7.633  -9.262   9.034  1.00  0.00    -0.349 OA
HETATM   19  C9  UNL     1       8.008  -9.145  10.347  1.00  0.00     0.162 C 
BRANCH  19  20
HETATM   20  O3  UNL     1       7.248 -10.125  11.038  1.00  0.00    -0.365 OA
ATOM     21  H3  UNL     1       6.902  -9.677  11.801  1.00  0.00     0.213 HD
ENDBRANCH  19  20
BRANCH  19  22
HETATM   22  C10 UNL     1       9.450  -9.576  10.558  1.00  0.00     0.064 C 
HETATM   23  C11 UNL     1      10.169  -8.760  11.565  1.00  0.00     0.010 C 
ENDBRANCH  19  22
ENDBRANCH   8  12
ENDBRANCH   1   7
TORSDOF 5
ENDMDL
MODEL 2
REMARK VINA RESULT: -7.515568100      2.507      7.371
REMARK  5 active torsions:
REMARK  status: ('A' for Active; 'I' for Inactive)
REMARK    1  A    between atoms: C2_2  and  N1_3 
REMARK       I    between atoms: N1_3  and  C3_4 
REMARK    2  A    between atoms: N1_3  and  C13_18 
REMARK    3  A    between atoms: C3_4  and  C4_6 
REMARK    4  A    between atoms: C9_12  and  O3_13 
REMARK    5  A    between atoms: C9_12  and  C10_15 
ROOT
HETATM    1  C13 UNL     1       5.971  -6.852   8.863  1.00  0.00     0.104 C 
HETATM    2  C14 UNL     1       6.015  -7.003  10.338  1.00  0.00     0.028 C 
HETATM    3  C15 UNL     1       6.923  -8.190  10.221  1.00  0.00     0.023 C 
HETATM    4  C16 UNL     1       6.747  -8.141   8.725  1.00  0.00     0.116 C 
HETATM    5  C17 UNL     1       8.020  -8.021   8.009  1.00  0.00     0.066 C 
HETATM    6  N2  UNL     1       9.030  -7.928   7.463  1.00  0.00    -0.197 NA
ENDROOT
BRANCH   1   7
HETATM    7  N1  UNL     1       4.660  -6.850   8.227  1.00  0.00    -0.346 N 
HETATM    8  C3  UNL     1       4.466  -6.425   6.911  1.00  0.00     0.226 C 
HETATM    9  O1  UNL     1       5.506  -6.024   6.277  1.00  0.00    -0.273 OA
BRANCH   7  10
HETATM   10  C2  UNL     1       3.551  -7.326   9.066  1.00  0.00     0.122 C 
HETATM   11  C1  UNL     1       2.293  -6.529   8.821  1.00  0.00     0.026 C 
ENDBRANCH   7  10
BRANCH   8  12
HETATM   12  C4  UNL     1       3.214  -6.379   6.153  1.00  0.00     0.107 C 
HETATM   13  C5  UNL     1       3.078  -7.393   5.059  1.00  0.00     0.021 C 
HETATM   14  C6  UNL     1       2.598  -6.566   3.879  1.00  0.00    -0.006 C 
HETATM   15  C7  UNL     1       3.441  -5.331   4.087  1.00  0.00     0.037 C 
HETATM   16  C12 UNL     1       1.127  -6.330   4.098  1.00  0.00     0.073 C 
HETATM   17  C8  UNL     1       3.006  -5.004   5.501  1.00  0.00     0.138 C 
HETATM   18  O2  UNL     1       1.737  -4.534   5.615  1.00  0.00    -0.349 OA
HETATM   19  C9  UNL     1       0.786  -5.042   4.769  1.00  0.00     0.162 C 
BRANCH  19  20
HETATM   20  O3  UNL     1      -0.343  -5.298   5.590  1.00  0.00    -0.365 OA
ATOM     21  H3  UNL     1      -0.778  -6.041   5.189  1.00  0.00     0.213 HD
ENDBRANCH  19  20
BRANCH  19  22
HETATM   22  C10 UNL     1       0.298  -3.996   3.781  1.00  0.00     0.064 C 
HETATM   23  C11 UNL     1       0.903  -2.659   3.990  1.00  0.00     0.010 C 
ENDBRANCH  19  22
ENDBRANCH   8  12
ENDBRANCH   1   7
TORSDOF 5
ENDMDL
MODEL 3
REMARK VINA RESULT: -7.356648650      1.314      1.558
REMARK  5 active torsions:
REMARK  status: ('A' for Active; 'I' for Inactive)
REMARK    1  A    between atoms: C2_2  and  N1_3 
REMARK       I    between atoms: N1_3  and  C3_4 
REMARK    2  A    between atoms: N1_3  and  C13_18 
REMARK    3  A    between atoms: C3_4  and  C4_6 
REMARK    4  A    between atoms: C9_12  and  O3_13 
REMARK    5  A    between atoms: C9_12  and  C10_15 
ROOT
HETATM    1  C13 UNL     1       3.134  -5.603   6.143  1.00  0.00     0.104 C 
HETATM    2  C14 UNL     1       3.914  -5.259   4.928  1.00  0.00     0.028 C 
HETATM    3  C15 UNL     1       2.813  -5.759   4.042  1.00  0.00     0.023 C 
HETATM    4  C16 UNL     1       2.093  -6.260   5.267  1.00  0.00     0.116 C 
HETATM    5  C17 UNL     1       0.741  -5.706   5.396  1.00  0.00     0.066 C 
HETATM    6  N2  UNL     1      -0.318  -5.263   5.479  1.00  0.00    -0.197 NA
ENDROOT
BRANCH   1   7
HETATM    7  N1  UNL     1       3.765  -6.483   7.119  1.00  0.00    -0.346 N 
HETATM    8  C3  UNL     1       5.140  -6.724   7.131  1.00  0.00     0.226 C 
HETATM    9  O1  UNL     1       5.835  -6.135   6.228  1.00  0.00    -0.273 OA
BRANCH   7  10
HETATM   10  C2  UNL     1       2.855  -7.101   8.093  1.00  0.00     0.122 C 
HETATM   11  C1  UNL     1       1.989  -6.067   8.772  1.00  0.00     0.026 C 
ENDBRANCH   7  10
BRANCH   8  12
HETATM   12  C4  UNL     1       5.900  -7.572   8.051  1.00  0.00     0.107 C 
HETATM   13  C5  UNL     1       5.298  -7.759   9.410  1.00  0.00     0.021 C 
HETATM   14  C6  UNL     1       6.468  -7.506  10.344  1.00  0.00    -0.006 C 
HETATM   15  C7  UNL     1       7.117  -6.352   9.617  1.00  0.00     0.037 C 
HETATM   16  C12 UNL     1       7.299  -8.762  10.333  1.00  0.00     0.073 C 
HETATM   17  C8  UNL     1       7.317  -7.025   8.274  1.00  0.00     0.138 C 
HETATM   18  O2  UNL     1       8.281  -7.983   8.252  1.00  0.00    -0.349 OA
HETATM   19  C9  UNL     1       8.439  -8.758   9.371  1.00  0.00     0.162 C 
BRANCH  19  20
HETATM   20  O3  UNL     1       8.567 -10.086   8.887  1.00  0.00    -0.365 OA
ATOM     21  H3  UNL     1       7.804 -10.225   8.339  1.00  0.00     0.213 HD
ENDBRANCH  19  20
BRANCH  19  22
HETATM   22  C10 UNL     1       9.766  -8.483  10.060  1.00  0.00     0.064 C 
HETATM   23  C11 UNL     1       9.827  -8.994  11.450  1.00  0.00     0.010 C 
ENDBRANCH  19  22
ENDBRANCH   8  12
ENDBRANCH   1   7
TORSDOF 5
ENDMDL
MODEL 4
REMARK VINA RESULT: -7.343544937      2.429      7.492
REMARK  5 active torsions:
REMARK  status: ('A' for Active; 'I' for Inactive)
REMARK    1  A    between atoms: C2_2  and  N1_3 
REMARK       I    between atoms: N1_3  and  C3_4 
REMARK    2  A    between atoms: N1_3  and  C13_18 
REMARK    3  A    between atoms: C3_4  and  C4_6 
REMARK    4  A    between atoms: C9_12  and  O3_13 
REMARK    5  A    between atoms: C9_12  and  C10_15 
ROOT
HETATM    1  C13 UNL     1       6.376  -7.763   8.247  1.00  0.00     0.104 C 
HETATM    2  C14 UNL     1       7.613  -7.354   7.537  1.00  0.00     0.028 C 
HETATM    3  C15 UNL     1       8.367  -7.275   8.829  1.00  0.00     0.023 C 
HETATM    4  C16 UNL     1       7.077  -7.527   9.565  1.00  0.00     0.116 C 
HETATM    5  C17 UNL     1       7.144  -8.697  10.445  1.00  0.00     0.066 C 
HETATM    6  N2  UNL     1       7.217  -9.618  11.132  1.00  0.00    -0.197 NA
ENDROOT
BRANCH   1   7
HETATM    7  N1  UNL     1       5.181  -6.958   8.030  1.00  0.00    -0.346 N 
HETATM    8  C3  UNL     1       4.761  -6.568   6.757  1.00  0.00     0.226 C 
HETATM    9  O1  UNL     1       5.488  -6.948   5.770  1.00  0.00    -0.273 OA
BRANCH   7  10
HETATM   10  C2  UNL     1       4.443  -6.582   9.245  1.00  0.00     0.122 C 
HETATM   11  C1  UNL     1       3.298  -7.530   9.509  1.00  0.00     0.026 C 
ENDBRANCH   7  10
BRANCH   8  12
HETATM   12  C4  UNL     1       3.585  -5.773   6.398  1.00  0.00     0.107 C 
HETATM   13  C5  UNL     1       2.263  -6.459   6.555  1.00  0.00     0.021 C 
HETATM   14  C6  UNL     1       1.561  -6.161   5.242  1.00  0.00    -0.006 C 
HETATM   15  C7  UNL     1       2.731  -6.309   4.299  1.00  0.00     0.037 C 
HETATM   16  C12 UNL     1       1.051  -4.748   5.345  1.00  0.00     0.073 C 
HETATM   17  C8  UNL     1       3.657  -5.295   4.940  1.00  0.00     0.138 C 
HETATM   18  O2  UNL     1       3.290  -3.998   4.773  1.00  0.00    -0.349 OA
HETATM   19  C9  UNL     1       1.951  -3.707   4.768  1.00  0.00     0.162 C 
BRANCH  19  20
HETATM   20  O3  UNL     1       1.818  -2.555   5.586  1.00  0.00    -0.365 OA
ATOM     21  H3  UNL     1       2.655  -2.467   6.027  1.00  0.00     0.213 HD
ENDBRANCH  19  20
BRANCH  19  22
HETATM   22  C10 UNL     1       1.483  -3.246   3.397  1.00  0.00     0.064 C 
HETATM   23  C11 UNL     1       0.008  -3.232   3.249  1.00  0.00     0.010 C 
ENDBRANCH  19  22
ENDBRANCH   8  12
ENDBRANCH   1   7
TORSDOF 5
ENDMDL
MODEL 5
REMARK VINA RESULT: -7.294990729      3.680      6.630
REMARK  5 active torsions:
REMARK  status: ('A' for Active; 'I' for Inactive)
REMARK    1  A    between atoms: C2_2  and  N1_3 
REMARK       I    between atoms: N1_3  and  C3_4 
REMARK    2  A    between atoms: N1_3  and  C13_18 
REMARK    3  A    between atoms: C3_4  and  C4_6 
REMARK    4  A    between atoms: C9_12  and  O3_13 
REMARK    5  A    between atoms: C9_12  and  C10_15 
ROOT
HETATM    1  C13 UNL     1       0.506  -1.972   2.756  1.00  0.00     0.104 C 
HETATM    2  C14 UNL     1       1.190  -1.026   1.840  1.00  0.00     0.028 C 
HETATM    3  C15 UNL     1      -0.020  -0.954   0.960  1.00  0.00     0.023 C 
HETATM    4  C16 UNL     1      -0.655  -2.038   1.792  1.00  0.00     0.116 C 
HETATM    5  C17 UNL     1      -1.947  -1.636   2.355  1.00  0.00     0.066 C 
HETATM    6  N2  UNL     1      -2.961  -1.303   2.788  1.00  0.00    -0.197 NA
ENDROOT
BRANCH   1   7
HETATM    7  N1  UNL     1       1.164  -3.246   3.018  1.00  0.00    -0.346 N 
HETATM    8  C3  UNL     1       1.816  -3.519   4.222  1.00  0.00     0.226 C 
HETATM    9  O1  UNL     1       1.818  -2.583   5.100  1.00  0.00    -0.273 OA
BRANCH   7  10
HETATM   10  C2  UNL     1       1.096  -4.228   1.927  1.00  0.00     0.122 C 
HETATM   11  C1  UNL     1       2.309  -4.145   1.033  1.00  0.00     0.026 C 
ENDBRANCH   7  10
BRANCH   8  12
HETATM   12  C4  UNL     1       2.505  -4.749   4.618  1.00  0.00     0.107 C 
HETATM   13  C5  UNL     1       1.930  -6.020   4.074  1.00  0.00     0.021 C 
HETATM   14  C6  UNL     1       1.854  -6.916   5.297  1.00  0.00    -0.006 C 
HETATM   15  C7  UNL     1       1.409  -5.898   6.320  1.00  0.00     0.037 C 
HETATM   16  C12 UNL     1       3.250  -7.429   5.533  1.00  0.00     0.073 C 
HETATM   17  C8  UNL     1       2.539  -4.905   6.145  1.00  0.00     0.138 C 
HETATM   18  O2  UNL     1       3.742  -5.315   6.624  1.00  0.00    -0.349 OA
HETATM   19  C9  UNL     1       4.055  -6.645   6.514  1.00  0.00     0.162 C 
BRANCH  19  20
HETATM   20  O3  UNL     1       5.398  -6.674   6.054  1.00  0.00    -0.365 OA
ATOM     21  H3  UNL     1       5.554  -7.576   5.802  1.00  0.00     0.213 HD
ENDBRANCH  19  20
BRANCH  19  22
HETATM   22  C10 UNL     1       4.113  -7.321   7.875  1.00  0.00     0.064 C 
HETATM   23  C11 UNL     1       4.152  -6.366   9.007  1.00  0.00     0.010 C 
ENDBRANCH  19  22
ENDBRANCH   8  12
ENDBRANCH   1   7
TORSDOF 5
ENDMDL
