MODEL 1
REMARK VINA RESULT: -8.106874226      0.000      0.000
REMARK  9 active torsions:
REMARK  status: ('A' for Active; 'I' for Inactive)
REMARK    1  A    between atoms: C3_3  and  C5_5 
REMARK    2  A    between atoms: C5_5  and  N1_6 
REMARK    3  A    between atoms: C5_5  and  C6_10 
REMARK    4  A    between atoms: C6_10  and  O1_11 
REMARK    5  A    between atoms: C6_10  and  N2_13 
REMARK    6  A    between atoms: C11_18  and  C12_19 
REMARK    7  A    between atoms: C12_19  and  C13_20 
REMARK    8  A    between atoms: C13_20  and  O2_21 
REMARK    9  A    between atoms: O2_21  and  C14_22 
ROOT
HETATM    1  N2  UNL     1       8.847  -8.676   9.029  1.00  0.00    -0.359 N 
HETATM    2  C7  UNL     1       9.112  -8.811  10.426  1.00  0.00     0.125 C 
HETATM    3  C8  UNL     1       8.294  -7.844  11.296  1.00  0.00     0.020 C 
HETATM    4  C9  UNL     1       6.826  -8.072  11.091  1.00  0.00     0.004 C 
HETATM    5  C10 UNL     1       6.632  -8.982   9.904  1.00  0.00     0.025 C 
HETATM    6  C11 UNL     1       7.402  -8.548   8.698  1.00  0.00     0.088 C 
ENDROOT
BRANCH   1   7
HETATM    7  C6  UNL     1       9.777  -8.652   7.972  1.00  0.00     0.149 C 
BRANCH   7   8
HETATM    8  C5  UNL     1      10.702  -9.647   7.459  1.00  0.00     0.285 C 
BRANCH   8   9
HETATM    9  C3  UNL     1      11.799  -9.967   8.432  1.00  0.00    -0.050 C 
HETATM   10  C2  UNL     1      12.311  -9.065   9.218  1.00  0.00    -0.026 C 
HETATM   11  C1  UNL     1      13.413  -9.434  10.173  1.00  0.00     0.036 C 
HETATM   12  C4  UNL     1      12.294 -11.366   8.471  1.00  0.00     0.046 C 
ENDBRANCH   8   9
BRANCH   8  13
HETATM   13  N1  UNL     1      11.272  -9.285   6.204  1.00  0.00    -0.064 N 
ATOM     14  H13 UNL     1      12.011  -8.590   6.303  1.00  0.00     0.275 HD
ATOM     15  H12 UNL     1      11.831 -10.037   5.804  1.00  0.00     0.275 HD
ATOM     16  H11 UNL     1      10.533  -8.974   5.573  1.00  0.00     0.275 HD
ENDBRANCH   8  13
ENDBRANCH   7   8
BRANCH   7  17
HETATM   17  O1  UNL     1       9.855  -7.526   7.289  1.00  0.00    -0.348 OA
ATOM     18  H1  UNL     1       9.273  -7.535   6.539  1.00  0.00     0.219 HD
ENDBRANCH   7  17
ENDBRANCH   1   7
BRANCH   6  19
HETATM   19  C12 UNL     1       7.127  -7.138   8.321  1.00  0.00     0.051 C 
BRANCH  19  20
HETATM   20  C13 UNL     1       5.682  -6.920   7.909  1.00  0.00     0.173 C 
BRANCH  20  21
HETATM   21  O2  UNL     1       5.676  -6.565   6.580  1.00  0.00    -0.361 OA
BRANCH  21  22
HETATM   22  C14 UNL     1       4.418  -6.374   6.052  1.00  0.00     0.259 C 
HETATM   23  C15 UNL     1       3.420  -5.877   7.059  1.00  0.00     0.063 C 
HETATM   24  C16 UNL     1       2.105  -6.299   6.441  1.00  0.00     0.031 C 
HETATM   25  C17 UNL     1       2.548  -7.079   5.217  1.00  0.00     0.171 C 
HETATM   26  O3  UNL     1       3.861  -7.499   5.485  1.00  0.00    -0.361 OA
ENDBRANCH  21  22
ENDBRANCH  20  21
ENDBRANCH  19  20
ENDBRANCH   6  19
TORSDOF 9
ENDMDL
MODEL 2
REMARK VINA RESULT: -8.016692804      4.925     10.287
REMARK  9 active torsions:
REMARK  status: ('A' for Active; 'I' for Inactive)
REMARK    1  A    between atoms: C3_3  and  C5_5 
REMARK    2  A    between atoms: C5_5  and  N1_6 
REMARK    3  A    between atoms: C5_5  and  C6_10 
REMARK    4  A    between atoms: C6_10  and  O1_11 
REMARK    5  A    between atoms: C6_10  and  N2_13 
REMARK    6  A    between atoms: C11_18  and  C12_19 
REMARK    7  A    between atoms: C12_19  and  C13_20 
REMARK    8  A    between atoms: C13_20  and  O2_21 
REMARK    9  A    between atoms: O2_21  and  C14_22 
ROOT
HETATM    1  N2  UNL     1       1.138  -4.307   4.770  1.00  0.00    -0.359 N 
HETATM    2  C7  UNL     1       0.004  -5.059   4.339  1.00  0.00     0.125 C 
HETATM    3  C8  UNL     1       0.361  -6.476   3.860  1.00  0.00     0.020 C 
HETATM    4  C9  UNL     1       1.022  -7.247   4.963  1.00  0.00     0.004 C 
HETATM    5  C10 UNL     1       1.365  -6.302   6.086  1.00  0.00     0.025 C 
HETATM    6  C11 UNL     1       2.084  -5.075   5.624  1.00  0.00     0.088 C 
ENDROOT
BRANCH   1   7
HETATM    7  C6  UNL     1       1.443  -2.962   4.482  1.00  0.00     0.149 C 
BRANCH   7   8
HETATM    8  C5  UNL     1       1.456  -2.204   3.244  1.00  0.00     0.285 C 
BRANCH   8   9
HETATM    9  C3  UNL     1       0.177  -1.452   3.017  1.00  0.00    -0.050 C 
HETATM   10  C2  UNL     1      -0.945  -2.059   2.761  1.00  0.00    -0.026 C 
HETATM   11  C1  UNL     1      -2.201  -1.261   2.536  1.00  0.00     0.036 C 
HETATM   12  C4  UNL     1       0.231   0.030   3.090  1.00  0.00     0.046 C 
ENDBRANCH   8   9
BRANCH   8  13
HETATM   13  N1  UNL     1       1.744  -3.005   2.102  1.00  0.00    -0.064 N 
ATOM     14  H13 UNL     1       0.936  -3.546   1.797  1.00  0.00     0.275 HD
ATOM     15  H12 UNL     1       1.870  -2.445   1.260  1.00  0.00     0.275 HD
ATOM     16  H11 UNL     1       2.552  -3.596   2.297  1.00  0.00     0.275 HD
ENDBRANCH   8  13
ENDBRANCH   7   8
BRANCH   7  17
HETATM   17  O1  UNL     1       1.789  -2.210   5.510  1.00  0.00    -0.348 OA
ATOM     18  H1  UNL     1       2.438  -1.562   5.261  1.00  0.00     0.219 HD
ENDBRANCH   7  17
ENDBRANCH   1   7
BRANCH   6  19
HETATM   19  C12 UNL     1       3.294  -5.390   4.822  1.00  0.00     0.051 C 
BRANCH  19  20
HETATM   20  C13 UNL     1       4.142  -6.479   5.456  1.00  0.00     0.173 C 
BRANCH  20  21
HETATM   21  O2  UNL     1       4.898  -5.896   6.446  1.00  0.00    -0.361 OA
BRANCH  21  22
HETATM   22  C14 UNL     1       5.258  -6.754   7.462  1.00  0.00     0.259 C 
HETATM   23  C15 UNL     1       4.391  -6.625   8.682  1.00  0.00     0.063 C 
HETATM   24  C16 UNL     1       5.288  -7.177   9.769  1.00  0.00     0.031 C 
HETATM   25  C17 UNL     1       6.586  -7.440   9.030  1.00  0.00     0.171 C 
HETATM   26  O3  UNL     1       6.557  -6.608   7.897  1.00  0.00    -0.361 OA
ENDBRANCH  21  22
ENDBRANCH  20  21
ENDBRANCH  19  20
ENDBRANCH   6  19
TORSDOF 9
ENDMDL
MODEL 3
REMARK VINA RESULT: -7.918153218      2.423      4.142
REMARK  9 active torsions:
REMARK  status: ('A' for Active; 'I' for Inactive)
REMARK    1  A    between atoms: C3_3  and  C5_5 
REMARK    2  A    between atoms: C5_5  and  N1_6 
REMARK    3  A    between atoms: C5_5  and  C6_10 
REMARK    4  A    between atoms: C6_10  and  O1_11 
REMARK    5  A    between atoms: C6_10  and  N2_13 
REMARK    6  A    between atoms: C11_18  and  C12_19 
REMARK    7  A    between atoms: C12_19  and  C13_20 
REMARK    8  A    between atoms: C13_20  and  O2_21 
REMARK    9  A    between atoms: O2_21  and  C14_22 
ROOT
HETATM    1  N2  UNL     1       5.253  -6.925   8.556  1.00  0.00    -0.359 N 
HETATM    2  C7  UNL     1       4.317  -6.476   9.536  1.00  0.00     0.125 C 
HETATM    3  C8  UNL     1       3.274  -5.495   8.975  1.00  0.00     0.020 C 
HETATM    4  C9  UNL     1       2.496  -6.139   7.867  1.00  0.00     0.004 C 
HETATM    5  C10 UNL     1       3.167  -7.433   7.483  1.00  0.00     0.025 C 
HETATM    6  C11 UNL     1       4.637  -7.289   7.251  1.00  0.00     0.088 C 
ENDROOT
BRANCH   1   7
HETATM    7  C6  UNL     1       6.649  -7.055   8.692  1.00  0.00     0.149 C 
BRANCH   7   8
HETATM    8  C5  UNL     1       7.566  -8.141   8.392  1.00  0.00     0.285 C 
BRANCH   8   9
HETATM    9  C3  UNL     1       8.222  -8.696   9.623  1.00  0.00    -0.050 C 
HETATM   10  C2  UNL     1       9.515  -8.742   9.755  1.00  0.00    -0.026 C 
HETATM   11  C1  UNL     1      10.125  -9.312  11.007  1.00  0.00     0.036 C 
HETATM   12  C4  UNL     1       7.336  -9.204  10.701  1.00  0.00     0.046 C 
ENDBRANCH   8   9
BRANCH   8  13
HETATM   13  N1  UNL     1       8.565  -7.781   7.443  1.00  0.00    -0.064 N 
ATOM     14  H13 UNL     1       8.358  -8.138   6.511  1.00  0.00     0.275 HD
ATOM     15  H12 UNL     1       8.549  -6.785   7.225  1.00  0.00     0.275 HD
ATOM     16  H11 UNL     1       9.478  -8.088   7.778  1.00  0.00     0.275 HD
ENDBRANCH   8  13
ENDBRANCH   7   8
BRANCH   7  17
HETATM   17  O1  UNL     1       7.287  -6.010   9.186  1.00  0.00    -0.348 OA
ATOM     18  H1  UNL     1       8.171  -5.952   8.842  1.00  0.00     0.219 HD
ENDBRANCH   7  17
ENDBRANCH   1   7
BRANCH   6  19
HETATM   19  C12 UNL     1       4.958  -6.225   6.265  1.00  0.00     0.051 C 
BRANCH  19  20
HETATM   20  C13 UNL     1       3.907  -6.110   5.176  1.00  0.00     0.173 C 
BRANCH  20  21
HETATM   21  O2  UNL     1       3.892  -4.803   4.746  1.00  0.00    -0.361 OA
BRANCH  21  22
HETATM   22  C14 UNL     1       2.635  -4.242   4.688  1.00  0.00     0.259 C 
HETATM   23  C15 UNL     1       1.594  -5.174   4.136  1.00  0.00     0.063 C 
HETATM   24  C16 UNL     1       0.534  -4.212   3.644  1.00  0.00     0.031 C 
HETATM   25  C17 UNL     1       1.174  -2.858   3.886  1.00  0.00     0.171 C 
HETATM   26  O3  UNL     1       2.559  -3.092   3.933  1.00  0.00    -0.361 OA
ENDBRANCH  21  22
ENDBRANCH  20  21
ENDBRANCH  19  20
ENDBRANCH   6  19
TORSDOF 9
ENDMDL
MODEL 4
REMARK VINA RESULT: -7.888795215      2.708      6.699
REMARK  9 active torsions:
REMARK  status: ('A' for Active; 'I' for Inactive)
REMARK    1  A    between atoms: C3_3  and  C5_5 
REMARK    2  A    between atoms: C5_5  and  N1_6 
REMARK    3  A    between atoms: C5_5  and  C6_10 
REMARK    4  A    between atoms: C6_10  and  O1_11 
REMARK    5  A    between atoms: C6_10  and  N2_13 
REMARK    6  A    between atoms: C11_18  and  C12_19 
REMARK    7  A    between atoms: C12_19  and  C13_20 
REMARK    8  A    between atoms: C13_20  and  O2_21 
REMARK    9  A    between atoms: O2_21  and  C14_22 
ROOT
HETATM    1  N2  UNL     1       9.691  -8.549   9.603  1.00  0.00    -0.359 N 
HETATM    2  C7  UNL     1       9.924  -8.255  10.981  1.00  0.00     0.125 C 
HETATM    3  C8  UNL     1      10.806  -9.301  11.684  1.00  0.00     0.020 C 
HETATM    4  C9  UNL     1      12.142  -9.394  11.010  1.00  0.00     0.004 C 
HETATM    5  C10 UNL     1      12.088  -8.637   9.707  1.00  0.00     0.025 C 
HETATM    6  C11 UNL     1      10.905  -8.995   8.866  1.00  0.00     0.088 C 
ENDROOT
BRANCH   1   7
HETATM    7  C6  UNL     1       8.477  -8.462   8.895  1.00  0.00     0.149 C 
BRANCH   7   8
HETATM    8  C5  UNL     1       7.635  -7.337   8.528  1.00  0.00     0.285 C 
BRANCH   8   9
HETATM    9  C3  UNL     1       6.271  -7.413   9.153  1.00  0.00    -0.050 C 
HETATM   10  C2  UNL     1       5.191  -7.124   8.488  1.00  0.00    -0.026 C 
HETATM   11  C1  UNL     1       3.847  -7.211   9.160  1.00  0.00     0.036 C 
HETATM   12  C4  UNL     1       6.192  -7.831  10.575  1.00  0.00     0.046 C 
ENDBRANCH   8   9
BRANCH   8  13
HETATM   13  N1  UNL     1       7.503  -7.175   7.119  1.00  0.00    -0.064 N 
ATOM     14  H13 UNL     1       8.360  -6.825   6.690  1.00  0.00     0.275 HD
ATOM     15  H12 UNL     1       7.450  -8.068   6.632  1.00  0.00     0.275 HD
ATOM     16  H11 UNL     1       6.701  -6.578   6.920  1.00  0.00     0.275 HD
ENDBRANCH   8  13
ENDBRANCH   7   8
BRANCH   7  17
HETATM   17  O1  UNL     1       7.970  -9.602   8.464  1.00  0.00    -0.348 OA
ATOM     18  H1  UNL     1       8.464  -9.943   7.728  1.00  0.00     0.219 HD
ENDBRANCH   7  17
ENDBRANCH   1   7
BRANCH   6  19
HETATM   19  C12 UNL     1      10.798 -10.456   8.622  1.00  0.00     0.051 C 
BRANCH  19  20
HETATM   20  C13 UNL     1      11.442 -10.873   7.312  1.00  0.00     0.173 C 
BRANCH  20  21
HETATM   21  O2  UNL     1      10.452 -10.926   6.358  1.00  0.00    -0.361 OA
BRANCH  21  22
HETATM   22  C14 UNL     1      10.844 -11.498   5.168  1.00  0.00     0.259 C 
HETATM   23  C15 UNL     1       9.759 -12.302   4.510  1.00  0.00     0.063 C 
HETATM   24  C16 UNL     1      10.550 -13.241   3.626  1.00  0.00     0.031 C 
HETATM   25  C17 UNL     1      11.985 -12.914   3.991  1.00  0.00     0.171 C 
HETATM   26  O3  UNL     1      11.933 -12.336   5.271  1.00  0.00    -0.361 OA
ENDBRANCH  21  22
ENDBRANCH  20  21
ENDBRANCH  19  20
ENDBRANCH   6  19
TORSDOF 9
ENDMDL
MODEL 5
REMARK VINA RESULT: -7.817896052      4.659      9.833
REMARK  9 active torsions:
REMARK  status: ('A' for Active; 'I' for Inactive)
REMARK    1  A    between atoms: C3_3  and  C5_5 
REMARK    2  A    between atoms: C5_5  and  N1_6 
REMARK    3  A    between atoms: C5_5  and  C6_10 
REMARK    4  A    between atoms: C6_10  and  O1_11 
REMARK    5  A    between atoms: C6_10  and  N2_13 
REMARK    6  A    between atoms: C11_18  and  C12_19 
REMARK    7  A    between atoms: C12_19  and  C13_20 
REMARK    8  A    between atoms: C13_20  and  O2_21 
REMARK    9  A    between atoms: O2_21  and  C14_22 
ROOT
HETATM    1  N2  UNL     1       1.506  -5.119   3.791  1.00  0.00    -0.359 N 
HETATM    2  C7  UNL     1       1.140  -5.671   2.526  1.00  0.00     0.125 C 
HETATM    3  C8  UNL     1       1.700  -7.083   2.295  1.00  0.00     0.020 C 
HETATM    4  C9  UNL     1       1.206  -8.020   3.356  1.00  0.00     0.004 C 
HETATM    5  C10 UNL     1       0.548  -7.219   4.450  1.00  0.00     0.025 C 
HETATM    6  C11 UNL     1       1.382  -6.074   4.926  1.00  0.00     0.088 C 
ENDROOT
BRANCH   1   7
HETATM    7  C6  UNL     1       1.953  -3.813   4.067  1.00  0.00     0.149 C 
BRANCH   7   8
HETATM    8  C5  UNL     1       1.249  -2.572   4.338  1.00  0.00     0.285 C 
BRANCH   8   9
HETATM    9  C3  UNL     1       1.439  -1.554   3.252  1.00  0.00    -0.050 C 
HETATM   10  C2  UNL     1       1.816  -0.334   3.506  1.00  0.00    -0.026 C 
HETATM   11  C1  UNL     1       1.988   0.651   2.382  1.00  0.00     0.036 C 
HETATM   12  C4  UNL     1       1.176  -1.984   1.856  1.00  0.00     0.046 C 
ENDBRANCH   8   9
BRANCH   8  13
HETATM   13  N1  UNL     1       1.596  -1.996   5.594  1.00  0.00    -0.064 N 
ATOM     14  H13 UNL     1       2.493  -2.336   5.939  1.00  0.00     0.275 HD
ATOM     15  H12 UNL     1       1.836  -1.009   5.512  1.00  0.00     0.275 HD
ATOM     16  H11 UNL     1       0.841  -2.157   6.261  1.00  0.00     0.275 HD
ENDBRANCH   8  13
ENDBRANCH   7   8
BRANCH   7  17
HETATM   17  O1  UNL     1       3.262  -3.637   4.092  1.00  0.00    -0.348 OA
ATOM     18  H1  UNL     1       3.706  -4.403   4.433  1.00  0.00     0.219 HD
ENDBRANCH   7  17
ENDBRANCH   1   7
BRANCH   6  19
HETATM   19  C12 UNL     1       2.746  -6.494   5.339  1.00  0.00     0.051 C 
BRANCH  19  20
HETATM   20  C13 UNL     1       3.107  -6.001   6.729  1.00  0.00     0.173 C 
BRANCH  20  21
HETATM   21  O2  UNL     1       4.475  -5.862   6.781  1.00  0.00    -0.361 OA
BRANCH  21  22
HETATM   22  C14 UNL     1       5.103  -6.754   7.621  1.00  0.00     0.259 C 
HETATM   23  C15 UNL     1       4.548  -6.745   9.017  1.00  0.00     0.063 C 
HETATM   24  C16 UNL     1       5.701  -7.306   9.822  1.00  0.00     0.031 C 
HETATM   25  C17 UNL     1       6.795  -7.451   8.781  1.00  0.00     0.171 C 
HETATM   26  O3  UNL     1       6.461  -6.559   7.747  1.00  0.00    -0.361 OA
ENDBRANCH  21  22
ENDBRANCH  20  21
ENDBRANCH  19  20
ENDBRANCH   6  19
TORSDOF 9
ENDMDL
