MODEL 1
REMARK VINA RESULT: -5.815659361      0.000      0.000
REMARK  8 active torsions:
REMARK  status: ('A' for Active; 'I' for Inactive)
REMARK    1  A    between atoms: N1_1  and  C1_5 
REMARK    2  A    between atoms: C1_5  and  C2_6 
REMARK    3  A    between atoms: C2_6  and  N2_7 
REMARK    4  A    between atoms: N2_7  and  C3_9 
REMARK    5  A    between atoms: C4_10  and  O1_11 
REMARK    6  A    between atoms: C7_16  and  C8_17 
REMARK    7  A    between atoms: C9_18  and  O2_19 
REMARK    8  A    between atoms: O2_19  and  C10_20 
ROOT
HETATM    1  C3  UNL     1      -6.216  -7.740 -15.113  1.00  0.00     0.118 C 
HETATM    2  C4  UNL     1      -6.478  -8.332 -13.797  1.00  0.00     0.142 C 
HETATM    3  C5  UNL     1      -5.050  -8.492 -13.222  1.00  0.00     0.050 C 
HETATM    4  C6  UNL     1      -4.124  -8.510 -14.409  1.00  0.00     0.070 C 
HETATM    5 BR1  UNL     1      -2.863  -9.971 -14.288  1.00  0.00    -0.090 Br
HETATM    6  C7  UNL     1      -5.040  -8.652 -15.590  1.00  0.00     0.049 C 
ENDROOT
BRANCH   1   7
HETATM    7  N2  UNL     1      -7.166  -7.629 -16.109  1.00  0.00    -0.393 N 
ATOM      8  H2  UNL     1      -6.976  -7.999 -17.041  1.00  0.00     0.159 HD
BRANCH   7   9
HETATM    9  C2  UNL     1      -8.387  -7.012 -15.838  1.00  0.00     0.083 C 
BRANCH   9  10
HETATM   10  C1  UNL     1      -9.277  -6.657 -16.991  1.00  0.00     0.273 C 
BRANCH  10  11
HETATM   11  N1  UNL     1      -8.431  -6.670 -18.199  1.00  0.00    -0.075 N 
ATOM     12  H13 UNL     1      -8.421  -5.777 -18.694  1.00  0.00     0.274 HD
ATOM     13  H12 UNL     1      -7.434  -6.712 -17.991  1.00  0.00     0.274 HD
ATOM     14  H11 UNL     1      -8.756  -7.446 -18.775  1.00  0.00     0.274 HD
ENDBRANCH  10  11
ENDBRANCH   9  10
ENDBRANCH   7   9
ENDBRANCH   1   7
BRANCH   2  15
HETATM   15  O1  UNL     1      -7.054  -9.602 -13.864  1.00  0.00    -0.393 OA
ATOM     16  H1  UNL     1      -7.108 -10.038 -13.021  1.00  0.00     0.210 HD
ENDBRANCH   2  15
BRANCH   6  17
HETATM   17  C8  UNL     1      -4.474  -8.116 -16.836  1.00  0.00     0.006 C 
HETATM   18  C9  UNL     1      -3.947  -8.949 -17.711  1.00  0.00     0.141 C 
BRANCH  18  19
HETATM   19  O2  UNL     1      -3.932 -10.299 -17.454  1.00  0.00    -0.298 OA
BRANCH  19  20
HETATM   20  C10 UNL     1      -3.337 -11.229 -18.291  1.00  0.00     0.402 C 
HETATM   21  O3  UNL     1      -3.881 -11.496 -19.384  1.00  0.00    -0.276 OA
ENDBRANCH  19  20
ENDBRANCH  18  19
ENDBRANCH   6  17
TORSDOF 8
ENDMDL
MODEL 2
REMARK VINA RESULT: -5.759603298      6.452      9.187
REMARK  8 active torsions:
REMARK  status: ('A' for Active; 'I' for Inactive)
REMARK    1  A    between atoms: N1_1  and  C1_5 
REMARK    2  A    between atoms: C1_5  and  C2_6 
REMARK    3  A    between atoms: C2_6  and  N2_7 
REMARK    4  A    between atoms: N2_7  and  C3_9 
REMARK    5  A    between atoms: C4_10  and  O1_11 
REMARK    6  A    between atoms: C7_16  and  C8_17 
REMARK    7  A    between atoms: C9_18  and  O2_19 
REMARK    8  A    between atoms: O2_19  and  C10_20 
ROOT
HETATM    1  C3  UNL     1     -13.390  -4.731 -20.307  1.00  0.00     0.118 C 
HETATM    2  C4  UNL     1     -13.210  -5.296 -21.650  1.00  0.00     0.142 C 
HETATM    3  C5  UNL     1     -13.569  -6.785 -21.427  1.00  0.00     0.050 C 
HETATM    4  C6  UNL     1     -13.378  -7.042 -19.955  1.00  0.00     0.070 C 
HETATM    5 BR1  UNL     1     -12.356  -8.657 -19.656  1.00  0.00    -0.090 Br
HETATM    6  C7  UNL     1     -12.661  -5.820 -19.457  1.00  0.00     0.049 C 
ENDROOT
BRANCH   1   7
HETATM    7  N2  UNL     1     -12.957  -3.472 -19.940  1.00  0.00    -0.393 N 
ATOM      8  H2  UNL     1     -12.417  -3.347 -19.084  1.00  0.00     0.159 HD
BRANCH   7   9
HETATM    9  C2  UNL     1     -13.261  -2.372 -20.742  1.00  0.00     0.083 C 
BRANCH   9  10
HETATM   10  C1  UNL     1     -12.967  -1.001 -20.211  1.00  0.00     0.273 C 
BRANCH  10  11
HETATM   11  N1  UNL     1     -12.857  -1.129 -18.746  1.00  0.00    -0.075 N 
ATOM     12  H13 UNL     1     -13.671  -0.767 -18.248  1.00  0.00     0.274 HD
ATOM     13  H12 UNL     1     -12.925  -2.092 -18.420  1.00  0.00     0.274 HD
ATOM     14  H11 UNL     1     -11.985  -0.673 -18.477  1.00  0.00     0.274 HD
ENDBRANCH  10  11
ENDBRANCH   9  10
ENDBRANCH   7   9
ENDBRANCH   1   7
BRANCH   2  15
HETATM   15  O1  UNL     1     -11.892  -5.240 -22.105  1.00  0.00    -0.393 OA
ATOM     16  H1  UNL     1     -11.662  -5.953 -22.689  1.00  0.00     0.210 HD
ENDBRANCH   2  15
BRANCH   6  17
HETATM   17  C8  UNL     1     -12.879  -5.558 -18.027  1.00  0.00     0.006 C 
HETATM   18  C9  UNL     1     -11.837  -5.448 -17.229  1.00  0.00     0.141 C 
BRANCH  18  19
HETATM   19  O2  UNL     1     -10.566  -5.579 -17.735  1.00  0.00    -0.298 OA
BRANCH  19  20
HETATM   20  C10 UNL     1      -9.668  -6.543 -17.304  1.00  0.00     0.402 C 
HETATM   21  O3  UNL     1      -8.485  -6.491 -17.703  1.00  0.00    -0.276 OA
ENDBRANCH  19  20
ENDBRANCH  18  19
ENDBRANCH   6  17
TORSDOF 8
ENDMDL
MODEL 3
REMARK VINA RESULT: -5.548548812      6.635      8.846
REMARK  8 active torsions:
REMARK  status: ('A' for Active; 'I' for Inactive)
REMARK    1  A    between atoms: N1_1  and  C1_5 
REMARK    2  A    between atoms: C1_5  and  C2_6 
REMARK    3  A    between atoms: C2_6  and  N2_7 
REMARK    4  A    between atoms: N2_7  and  C3_9 
REMARK    5  A    between atoms: C4_10  and  O1_11 
REMARK    6  A    between atoms: C7_16  and  C8_17 
REMARK    7  A    between atoms: C9_18  and  O2_19 
REMARK    8  A    between atoms: O2_19  and  C10_20 
ROOT
HETATM    1  C3  UNL     1     -11.426  -5.869 -18.673  1.00  0.00     0.118 C 
HETATM    2  C4  UNL     1     -11.221  -4.470 -19.063  1.00  0.00     0.142 C 
HETATM    3  C5  UNL     1     -12.651  -4.031 -19.463  1.00  0.00     0.050 C 
HETATM    4  C6  UNL     1     -13.396  -5.298 -19.793  1.00  0.00     0.070 C 
HETATM    5 BR1  UNL     1     -14.349  -5.129 -21.468  1.00  0.00    -0.090 Br
HETATM    6  C7  UNL     1     -12.327  -6.350 -19.856  1.00  0.00     0.049 C 
ENDROOT
BRANCH   1   7
HETATM    7  N2  UNL     1     -10.397  -6.766 -18.463  1.00  0.00    -0.393 N 
ATOM      8  H2  UNL     1     -10.543  -7.761 -18.635  1.00  0.00     0.159 HD
BRANCH   7   9
HETATM    9  C2  UNL     1      -9.158  -6.309 -18.017  1.00  0.00     0.083 C 
BRANCH   9  10
HETATM   10  C1  UNL     1      -8.573  -6.927 -16.782  1.00  0.00     0.273 C 
BRANCH  10  11
HETATM   11  N1  UNL     1      -7.118  -7.017 -17.002  1.00  0.00    -0.075 N 
ATOM     12  H13 UNL     1      -6.718  -6.169 -17.405  1.00  0.00     0.274 HD
ATOM     13  H12 UNL     1      -6.579  -7.013 -16.136  1.00  0.00     0.274 HD
ATOM     14  H11 UNL     1      -6.958  -7.847 -17.572  1.00  0.00     0.274 HD
ENDBRANCH  10  11
ENDBRANCH   9  10
ENDBRANCH   7   9
ENDBRANCH   1   7
BRANCH   2  15
HETATM   15  O1  UNL     1     -10.402  -4.319 -20.183  1.00  0.00    -0.393 OA
ATOM     16  H1  UNL     1      -9.879  -3.526 -20.166  1.00  0.00     0.210 HD
ENDBRANCH   2  15
BRANCH   6  17
HETATM   17  C8  UNL     1     -12.825  -7.705 -19.577  1.00  0.00     0.006 C 
HETATM   18  C9  UNL     1     -12.829  -8.598 -20.546  1.00  0.00     0.141 C 
BRANCH  18  19
HETATM   19  O2  UNL     1     -12.372  -8.258 -21.797  1.00  0.00    -0.298 OA
BRANCH  19  20
HETATM   20  C10 UNL     1     -13.057  -8.551 -22.965  1.00  0.00     0.402 C 
HETATM   21  O3  UNL     1     -14.306  -8.506 -22.963  1.00  0.00    -0.276 OA
ENDBRANCH  19  20
ENDBRANCH  18  19
ENDBRANCH   6  17
TORSDOF 8
ENDMDL
MODEL 4
REMARK VINA RESULT: -5.536940917      6.243      8.367
REMARK  8 active torsions:
REMARK  status: ('A' for Active; 'I' for Inactive)
REMARK    1  A    between atoms: N1_1  and  C1_5 
REMARK    2  A    between atoms: C1_5  and  C2_6 
REMARK    3  A    between atoms: C2_6  and  N2_7 
REMARK    4  A    between atoms: N2_7  and  C3_9 
REMARK    5  A    between atoms: C4_10  and  O1_11 
REMARK    6  A    between atoms: C7_16  and  C8_17 
REMARK    7  A    between atoms: C9_18  and  O2_19 
REMARK    8  A    between atoms: O2_19  and  C10_20 
ROOT
HETATM    1  C3  UNL     1     -11.449  -5.641 -18.690  1.00  0.00     0.118 C 
HETATM    2  C4  UNL     1     -11.395  -4.321 -19.327  1.00  0.00     0.142 C 
HETATM    3  C5  UNL     1     -12.825  -4.180 -19.903  1.00  0.00     0.050 C 
HETATM    4  C6  UNL     1     -13.360  -5.581 -20.034  1.00  0.00     0.070 C 
HETATM    5 BR1  UNL     1     -14.160  -5.862 -21.773  1.00  0.00    -0.090 Br
HETATM    6  C7  UNL     1     -12.160  -6.456 -19.818  1.00  0.00     0.049 C 
ENDROOT
BRANCH   1   7
HETATM    7  N2  UNL     1     -10.335  -6.323 -18.240  1.00  0.00    -0.393 N 
ATOM      8  H2  UNL     1      -9.810  -6.921 -18.877  1.00  0.00     0.159 HD
BRANCH   7   9
HETATM    9  C2  UNL     1      -9.930  -6.190 -16.912  1.00  0.00     0.083 C 
BRANCH   9  10
HETATM   10  C1  UNL     1      -8.683  -6.898 -16.474  1.00  0.00     0.273 C 
BRANCH  10  11
HETATM   11  N1  UNL     1      -7.744  -6.843 -17.610  1.00  0.00    -0.075 N 
ATOM     12  H13 UNL     1      -8.070  -7.360 -18.427  1.00  0.00     0.274 HD
ATOM     13  H12 UNL     1      -7.698  -5.924 -18.050  1.00  0.00     0.274 HD
ATOM     14  H11 UNL     1      -6.843  -7.168 -17.261  1.00  0.00     0.274 HD
ENDBRANCH  10  11
ENDBRANCH   9  10
ENDBRANCH   7   9
ENDBRANCH   1   7
BRANCH   2  15
HETATM   15  O1  UNL     1     -10.499  -4.255 -20.395  1.00  0.00    -0.393 OA
ATOM     16  H1  UNL     1      -9.922  -3.500 -20.359  1.00  0.00     0.210 HD
ENDBRANCH   2  15
BRANCH   6  17
HETATM   17  C8  UNL     1     -12.498  -7.797 -19.319  1.00  0.00     0.006 C 
HETATM   18  C9  UNL     1     -12.332  -8.837 -20.111  1.00  0.00     0.141 C 
BRANCH  18  19
HETATM   19  O2  UNL     1     -11.850  -8.660 -21.386  1.00  0.00    -0.298 OA
BRANCH  19  20
HETATM   20  C10 UNL     1     -11.439  -9.705 -22.199  1.00  0.00     0.402 C 
HETATM   21  O3  UNL     1     -10.726  -9.454 -23.194  1.00  0.00    -0.276 OA
ENDBRANCH  19  20
ENDBRANCH  18  19
ENDBRANCH   6  17
TORSDOF 8
ENDMDL
MODEL 5
REMARK VINA RESULT: -5.453531641      7.130      9.409
REMARK  8 active torsions:
REMARK  status: ('A' for Active; 'I' for Inactive)
REMARK    1  A    between atoms: N1_1  and  C1_5 
REMARK    2  A    between atoms: C1_5  and  C2_6 
REMARK    3  A    between atoms: C2_6  and  N2_7 
REMARK    4  A    between atoms: N2_7  and  C3_9 
REMARK    5  A    between atoms: C4_10  and  O1_11 
REMARK    6  A    between atoms: C7_16  and  C8_17 
REMARK    7  A    between atoms: C9_18  and  O2_19 
REMARK    8  A    between atoms: O2_19  and  C10_20 
ROOT
HETATM    1  C3  UNL     1     -12.815  -4.820 -19.255  1.00  0.00     0.118 C 
HETATM    2  C4  UNL     1     -11.937  -3.656 -19.415  1.00  0.00     0.142 C 
HETATM    3  C5  UNL     1     -12.740  -2.776 -20.403  1.00  0.00     0.050 C 
HETATM    4  C6  UNL     1     -13.678  -3.709 -21.122  1.00  0.00     0.070 C 
HETATM    5 BR1  UNL     1     -13.625  -3.413 -23.033  1.00  0.00    -0.090 Br
HETATM    6  C7  UNL     1     -13.192  -5.080 -20.749  1.00  0.00     0.049 C 
ENDROOT
BRANCH   1   7
HETATM    7  N2  UNL     1     -12.426  -6.000 -18.651  1.00  0.00    -0.393 N 
ATOM      8  H2  UNL     1     -12.480  -6.879 -19.165  1.00  0.00     0.159 HD
BRANCH   7   9
HETATM    9  C2  UNL     1     -11.957  -5.985 -17.338  1.00  0.00     0.083 C 
BRANCH   9  10
HETATM   10  C1  UNL     1     -10.493  -6.205 -17.102  1.00  0.00     0.273 C 
BRANCH  10  11
HETATM   11  N1  UNL     1      -9.896  -6.527 -18.411  1.00  0.00    -0.075 N 
ATOM     12  H13 UNL     1      -8.876  -6.498 -18.408  1.00  0.00     0.274 HD
ATOM     13  H12 UNL     1      -9.995  -7.510 -18.668  1.00  0.00     0.274 HD
ATOM     14  H11 UNL     1     -10.314  -5.890 -19.089  1.00  0.00     0.274 HD
ENDBRANCH  10  11
ENDBRANCH   9  10
ENDBRANCH   7   9
ENDBRANCH   1   7
BRANCH   2  15
HETATM   15  O1  UNL     1     -10.714  -3.961 -20.014  1.00  0.00    -0.393 OA
ATOM     16  H1  UNL     1      -9.965  -3.799 -19.452  1.00  0.00     0.210 HD
ENDBRANCH   2  15
BRANCH   6  17
HETATM   17  C8  UNL     1     -14.240  -6.109 -20.822  1.00  0.00     0.006 C 
HETATM   18  C9  UNL     1     -13.906  -7.341 -21.148  1.00  0.00     0.141 C 
BRANCH  18  19
HETATM   19  O2  UNL     1     -12.594  -7.651 -21.414  1.00  0.00    -0.298 OA
BRANCH  19  20
HETATM   20  C10 UNL     1     -11.949  -8.759 -20.888  1.00  0.00     0.402 C 
HETATM   21  O3  UNL     1     -11.564  -8.728 -19.700  1.00  0.00    -0.276 OA
ENDBRANCH  19  20
ENDBRANCH  18  19
ENDBRANCH   6  17
TORSDOF 8
ENDMDL
