MODEL 1
REMARK VINA RESULT: -7.521786629      0.000      0.000
REMARK  10 active torsions:
REMARK  status: ('A' for Active; 'I' for Inactive)
REMARK    1  A    between atoms: N1_1  and  C1_5 
REMARK    2  A    between atoms: C1_5  and  C2_6 
REMARK    3  A    between atoms: N2_8  and  C3_9 
REMARK    4  A    between atoms: C3_9  and  C4_10 
REMARK    5  A    between atoms: C5_11  and  C6_12 
REMARK    6  A    between atoms: C6_12  and  C7_13 
REMARK    7  A    between atoms: C7_13  and  C8_14 
REMARK    8  A    between atoms: N3_16  and  C10_17 
REMARK    9  A    between atoms: C11_19  and  O2_20 
REMARK   10  A    between atoms: C12_22  and  O3_23 
ROOT
HETATM    1  C2  UNL     1     -11.564  -4.697 -20.101  1.00  0.00     0.203 C 
HETATM    2  O1  UNL     1     -10.715  -4.713 -19.039  1.00  0.00    -0.291 OA
HETATM    3  N2  UNL     1     -10.971  -5.727 -18.248  1.00  0.00    -0.161 NA
HETATM    4  C11 UNL     1     -11.825  -6.664 -18.864  1.00  0.00     0.249 C 
HETATM    5  C12 UNL     1     -12.384  -5.952 -20.069  1.00  0.00     0.195 C 
ENDROOT
BRANCH   3   6
HETATM    6  C3  UNL     1      -9.752  -6.402 -17.791  1.00  0.00     0.151 C 
BRANCH   6   7
HETATM    7  C4  UNL     1      -9.693  -6.519 -16.315  1.00  0.00    -0.014 C 
HETATM    8  C5  UNL     1      -8.679  -6.914 -15.584  1.00  0.00    -0.029 C 
BRANCH   8   9
HETATM    9  C6  UNL     1      -7.403  -7.314 -16.141  1.00  0.00     0.029 C 
BRANCH   9  10
HETATM   10  C7  UNL     1      -6.723  -8.455 -15.402  1.00  0.00     0.041 C 
BRANCH  10  11
HETATM   11  C8  UNL     1      -5.524  -8.018 -14.637  1.00  0.00     0.253 A 
HETATM   12  C9  UNL     1      -4.973  -8.833 -13.530  1.00  0.00     0.310 A 
HETATM   13  N3  UNL     1      -4.224  -8.568 -14.815  1.00  0.00     0.110 N 
BRANCH  13  14
HETATM   14  C10 UNL     1      -3.937  -9.700 -15.625  1.00  0.00     0.387 C 
HETATM   15 CL1  UNL     1      -3.674  -9.330 -17.340  1.00  0.00    -0.098 Cl
ENDBRANCH  13  14
ENDBRANCH  10  11
ENDBRANCH   9  10
ENDBRANCH   8   9
ENDBRANCH   6   7
ENDBRANCH   3   6
BRANCH   4  16
HETATM   16  O2  UNL     1     -11.183  -7.852 -19.224  1.00  0.00    -0.376 OA
ATOM     17  H2  UNL     1     -11.760  -8.486 -19.634  1.00  0.00     0.211 HD
ENDBRANCH   4  16
BRANCH   1  18
HETATM   18  C1  UNL     1     -12.455  -3.454 -20.054  1.00  0.00     0.266 C 
BRANCH  18  19
HETATM   19  N1  UNL     1     -12.561  -3.082 -18.659  1.00  0.00    -0.077 N 
ATOM     20  H13 UNL     1     -11.711  -3.266 -18.125  1.00  0.00     0.274 HD
ATOM     21  H12 UNL     1     -12.587  -2.073 -18.509  1.00  0.00     0.274 HD
ATOM     22  H11 UNL     1     -13.381  -3.568 -18.295  1.00  0.00     0.274 HD
ENDBRANCH  18  19
ENDBRANCH   1  18
BRANCH   5  23
HETATM   23  O3  UNL     1     -12.179  -6.699 -21.241  1.00  0.00    -0.389 OA
ATOM     24  H3  UNL     1     -11.251  -6.852 -21.375  1.00  0.00     0.210 HD
ENDBRANCH   5  23
TORSDOF 10
ENDMDL
MODEL 2
REMARK VINA RESULT: -7.501480044      1.264      1.428
REMARK  10 active torsions:
REMARK  status: ('A' for Active; 'I' for Inactive)
REMARK    1  A    between atoms: N1_1  and  C1_5 
REMARK    2  A    between atoms: C1_5  and  C2_6 
REMARK    3  A    between atoms: N2_8  and  C3_9 
REMARK    4  A    between atoms: C3_9  and  C4_10 
REMARK    5  A    between atoms: C5_11  and  C6_12 
REMARK    6  A    between atoms: C6_12  and  C7_13 
REMARK    7  A    between atoms: C7_13  and  C8_14 
REMARK    8  A    between atoms: N3_16  and  C10_17 
REMARK    9  A    between atoms: C11_19  and  O2_20 
REMARK   10  A    between atoms: C12_22  and  O3_23 
ROOT
HETATM    1  C2  UNL     1     -11.631  -4.644 -20.136  1.00  0.00     0.203 C 
HETATM    2  O1  UNL     1     -10.831  -4.637 -19.036  1.00  0.00    -0.291 OA
HETATM    3  N2  UNL     1     -11.090  -5.662 -18.259  1.00  0.00    -0.161 NA
HETATM    4  C11 UNL     1     -11.884  -6.623 -18.917  1.00  0.00     0.249 C 
HETATM    5  C12 UNL     1     -12.411  -5.925 -20.144  1.00  0.00     0.195 C 
ENDROOT
BRANCH   3   6
HETATM    6  C3  UNL     1      -9.872  -6.299 -17.749  1.00  0.00     0.151 C 
BRANCH   6   7
HETATM    7  C4  UNL     1      -9.925  -6.523 -16.285  1.00  0.00    -0.014 C 
HETATM    8  C5  UNL     1      -8.935  -6.848 -15.490  1.00  0.00    -0.029 C 
BRANCH   8   9
HETATM    9  C6  UNL     1      -7.575  -7.048 -15.950  1.00  0.00     0.029 C 
BRANCH   9  10
HETATM   10  C7  UNL     1      -6.740  -7.959 -15.067  1.00  0.00     0.041 C 
BRANCH  10  11
HETATM   11  C8  UNL     1      -5.784  -8.799 -15.838  1.00  0.00     0.253 A 
HETATM   12  C9  UNL     1      -4.687  -8.195 -16.628  1.00  0.00     0.310 A 
HETATM   13  N3  UNL     1      -4.452  -9.073 -15.422  1.00  0.00     0.110 N 
BRANCH  13  14
HETATM   14  C10 UNL     1      -3.818  -8.460 -14.307  1.00  0.00     0.387 C 
HETATM   15 CL1  UNL     1      -4.350  -9.073 -12.730  1.00  0.00    -0.098 Cl
ENDBRANCH  13  14
ENDBRANCH  10  11
ENDBRANCH   9  10
ENDBRANCH   8   9
ENDBRANCH   6   7
ENDBRANCH   3   6
BRANCH   4  16
HETATM   16  O2  UNL     1     -11.189  -7.789 -19.250  1.00  0.00    -0.376 OA
ATOM     17  H2  UNL     1     -10.591  -8.082 -18.572  1.00  0.00     0.211 HD
ENDBRANCH   4  16
BRANCH   1  18
HETATM   18  C1  UNL     1     -12.563  -3.430 -20.126  1.00  0.00     0.266 C 
BRANCH  18  19
HETATM   19  N1  UNL     1     -12.537  -2.908 -18.776  1.00  0.00    -0.077 N 
ATOM     20  H13 UNL     1     -11.610  -2.603 -18.478  1.00  0.00     0.274 HD
ATOM     21  H12 UNL     1     -13.003  -2.006 -18.681  1.00  0.00     0.274 HD
ATOM     22  H11 UNL     1     -12.935  -3.635 -18.180  1.00  0.00     0.274 HD
ENDBRANCH  18  19
ENDBRANCH   1  18
BRANCH   5  23
HETATM   23  O3  UNL     1     -12.128  -6.660 -21.307  1.00  0.00    -0.389 OA
ATOM     24  H3  UNL     1     -11.817  -6.083 -21.994  1.00  0.00     0.210 HD
ENDBRANCH   5  23
TORSDOF 10
ENDMDL
MODEL 3
REMARK VINA RESULT: -7.490755108      1.851      2.394
REMARK  10 active torsions:
REMARK  status: ('A' for Active; 'I' for Inactive)
REMARK    1  A    between atoms: N1_1  and  C1_5 
REMARK    2  A    between atoms: C1_5  and  C2_6 
REMARK    3  A    between atoms: N2_8  and  C3_9 
REMARK    4  A    between atoms: C3_9  and  C4_10 
REMARK    5  A    between atoms: C5_11  and  C6_12 
REMARK    6  A    between atoms: C6_12  and  C7_13 
REMARK    7  A    between atoms: C7_13  and  C8_14 
REMARK    8  A    between atoms: N3_16  and  C10_17 
REMARK    9  A    between atoms: C11_19  and  O2_20 
REMARK   10  A    between atoms: C12_22  and  O3_23 
ROOT
HETATM    1  C2  UNL     1     -11.215  -5.295 -16.997  1.00  0.00     0.203 C 
HETATM    2  O1  UNL     1     -10.403  -5.820 -16.041  1.00  0.00    -0.291 OA
HETATM    3  N2  UNL     1      -9.706  -6.824 -16.517  1.00  0.00    -0.161 NA
HETATM    4  C11 UNL     1      -9.763  -6.875 -17.925  1.00  0.00     0.249 C 
HETATM    5  C12 UNL     1     -10.892  -5.953 -18.305  1.00  0.00     0.195 C 
ENDROOT
BRANCH   3   6
HETATM    6  C3  UNL     1      -8.305  -6.787 -16.085  1.00  0.00     0.151 C 
BRANCH   6   7
HETATM    7  C4  UNL     1      -8.158  -7.029 -14.630  1.00  0.00    -0.014 C 
HETATM    8  C5  UNL     1      -7.352  -7.877 -14.038  1.00  0.00    -0.029 C 
BRANCH   8   9
HETATM    9  C6  UNL     1      -6.441  -8.745 -14.756  1.00  0.00     0.029 C 
BRANCH   9  10
HETATM   10  C7  UNL     1      -5.259  -8.030 -15.390  1.00  0.00     0.041 C 
BRANCH  10  11
HETATM   11  C8  UNL     1      -3.955  -8.413 -14.782  1.00  0.00     0.253 A 
HETATM   12  C9  UNL     1      -3.841  -9.559 -13.853  1.00  0.00     0.310 A 
HETATM   13  N3  UNL     1      -3.175  -9.523 -15.207  1.00  0.00     0.110 N 
BRANCH  13  14
HETATM   14  C10 UNL     1      -3.608 -10.493 -16.152  1.00  0.00     0.387 C 
HETATM   15 CL1  UNL     1      -3.509  -9.967 -17.844  1.00  0.00    -0.098 Cl
ENDBRANCH  13  14
ENDBRANCH  10  11
ENDBRANCH   9  10
ENDBRANCH   8   9
ENDBRANCH   6   7
ENDBRANCH   3   6
BRANCH   4  16
HETATM   16  O2  UNL     1      -8.567  -6.503 -18.546  1.00  0.00    -0.376 OA
ATOM     17  H2  UNL     1      -8.683  -5.873 -19.247  1.00  0.00     0.211 HD
ENDBRANCH   4  16
BRANCH   1  18
HETATM   18  C1  UNL     1     -12.684  -5.502 -16.622  1.00  0.00     0.266 C 
BRANCH  18  19
HETATM   19  N1  UNL     1     -13.456  -5.156 -17.797  1.00  0.00    -0.077 N 
ATOM     20  H13 UNL     1     -14.443  -5.400 -17.720  1.00  0.00     0.274 HD
ATOM     21  H12 UNL     1     -13.584  -4.150 -17.916  1.00  0.00     0.274 HD
ATOM     22  H11 UNL     1     -12.989  -5.601 -18.587  1.00  0.00     0.274 HD
ENDBRANCH  18  19
ENDBRANCH   1  18
BRANCH   5  23
HETATM   23  O3  UNL     1     -10.472  -4.995 -19.243  1.00  0.00    -0.389 OA
ATOM     24  H3  UNL     1     -10.796  -5.217 -20.108  1.00  0.00     0.210 HD
ENDBRANCH   5  23
TORSDOF 10
ENDMDL
MODEL 4
REMARK VINA RESULT: -7.426723569      1.756      2.484
REMARK  10 active torsions:
REMARK  status: ('A' for Active; 'I' for Inactive)
REMARK    1  A    between atoms: N1_1  and  C1_5 
REMARK    2  A    between atoms: C1_5  and  C2_6 
REMARK    3  A    between atoms: N2_8  and  C3_9 
REMARK    4  A    between atoms: C3_9  and  C4_10 
REMARK    5  A    between atoms: C5_11  and  C6_12 
REMARK    6  A    between atoms: C6_12  and  C7_13 
REMARK    7  A    between atoms: C7_13  and  C8_14 
REMARK    8  A    between atoms: N3_16  and  C10_17 
REMARK    9  A    between atoms: C11_19  and  O2_20 
REMARK   10  A    between atoms: C12_22  and  O3_23 
ROOT
HETATM    1  C2  UNL     1     -12.579  -6.898 -18.644  1.00  0.00     0.203 C 
HETATM    2  O1  UNL     1     -11.361  -7.364 -18.259  1.00  0.00    -0.291 OA
HETATM    3  N2  UNL     1     -10.584  -6.383 -17.866  1.00  0.00    -0.161 NA
HETATM    4  C11 UNL     1     -11.314  -5.193 -17.665  1.00  0.00     0.249 C 
HETATM    5  C12 UNL     1     -12.649  -5.435 -18.320  1.00  0.00     0.195 C 
ENDROOT
BRANCH   3   6
HETATM    6  C3  UNL     1      -9.840  -6.712 -16.647  1.00  0.00     0.151 C 
BRANCH   6   7
HETATM    7  C4  UNL     1      -8.388  -6.865 -16.898  1.00  0.00    -0.014 C 
HETATM    8  C5  UNL     1      -7.452  -7.161 -16.029  1.00  0.00    -0.029 C 
BRANCH   8   9
HETATM    9  C6  UNL     1      -7.716  -7.393 -14.623  1.00  0.00     0.029 C 
BRANCH   9  10
HETATM   10  C7  UNL     1      -6.935  -8.549 -14.019  1.00  0.00     0.041 C 
BRANCH  10  11
HETATM   11  C8  UNL     1      -5.577  -8.153 -13.556  1.00  0.00     0.253 A 
HETATM   12  C9  UNL     1      -4.654  -9.132 -12.939  1.00  0.00     0.310 A 
HETATM   13  N3  UNL     1      -4.378  -8.453 -14.260  1.00  0.00     0.110 N 
BRANCH  13  14
HETATM   14  C10 UNL     1      -4.309  -9.297 -15.403  1.00  0.00     0.387 C 
HETATM   15 CL1  UNL     1      -4.333  -8.436 -16.954  1.00  0.00    -0.098 Cl
ENDBRANCH  13  14
ENDBRANCH  10  11
ENDBRANCH   9  10
ENDBRANCH   8   9
ENDBRANCH   6   7
ENDBRANCH   3   6
BRANCH   4  16
HETATM   16  O2  UNL     1     -11.459  -4.847 -16.319  1.00  0.00    -0.376 OA
ATOM     17  H2  UNL     1     -12.038  -4.107 -16.177  1.00  0.00     0.211 HD
ENDBRANCH   4  16
BRANCH   1  18
HETATM   18  C1  UNL     1     -12.795  -7.142 -20.140  1.00  0.00     0.266 C 
BRANCH  18  19
HETATM   19  N1  UNL     1     -11.775  -8.084 -20.550  1.00  0.00    -0.077 N 
ATOM     20  H13 UNL     1     -10.829  -7.789 -20.304  1.00  0.00     0.274 HD
ATOM     21  H12 UNL     1     -11.781  -8.949 -20.008  1.00  0.00     0.274 HD
ATOM     22  H11 UNL     1     -11.907  -8.231 -21.550  1.00  0.00     0.274 HD
ENDBRANCH  18  19
ENDBRANCH   1  18
BRANCH   5  23
HETATM   23  O3  UNL     1     -13.705  -5.185 -17.427  1.00  0.00    -0.389 OA
ATOM     24  H3  UNL     1     -13.483  -4.465 -16.849  1.00  0.00     0.210 HD
ENDBRANCH   5  23
TORSDOF 10
ENDMDL
MODEL 5
REMARK VINA RESULT: -7.325393105      1.977      2.892
REMARK  10 active torsions:
REMARK  status: ('A' for Active; 'I' for Inactive)
REMARK    1  A    between atoms: N1_1  and  C1_5 
REMARK    2  A    between atoms: C1_5  and  C2_6 
REMARK    3  A    between atoms: N2_8  and  C3_9 
REMARK    4  A    between atoms: C3_9  and  C4_10 
REMARK    5  A    between atoms: C5_11  and  C6_12 
REMARK    6  A    between atoms: C6_12  and  C7_13 
REMARK    7  A    between atoms: C7_13  and  C8_14 
REMARK    8  A    between atoms: N3_16  and  C10_17 
REMARK    9  A    between atoms: C11_19  and  O2_20 
REMARK   10  A    between atoms: C12_22  and  O3_23 
ROOT
HETATM    1  C2  UNL     1     -13.120  -7.025 -19.247  1.00  0.00     0.203 C 
HETATM    2  O1  UNL     1     -11.966  -7.049 -18.528  1.00  0.00    -0.291 OA
HETATM    3  N2  UNL     1     -11.385  -5.873 -18.531  1.00  0.00    -0.161 NA
HETATM    4  C11 UNL     1     -12.253  -4.868 -19.004  1.00  0.00     0.249 C 
HETATM    5  C12 UNL     1     -13.398  -5.607 -19.647  1.00  0.00     0.195 C 
ENDROOT
BRANCH   3   6
HETATM    6  C3  UNL     1     -10.875  -5.498 -17.209  1.00  0.00     0.151 C 
BRANCH   6   7
HETATM    7  C4  UNL     1     -11.130  -6.543 -16.190  1.00  0.00    -0.014 C 
HETATM    8  C5  UNL     1     -10.275  -7.054 -15.338  1.00  0.00    -0.029 C 
BRANCH   8   9
HETATM    9  C6  UNL     1      -8.884  -6.652 -15.265  1.00  0.00     0.029 C 
BRANCH   9  10
HETATM   10  C7  UNL     1      -8.026  -7.518 -14.358  1.00  0.00     0.041 C 
BRANCH  10  11
HETATM   11  C8  UNL     1      -7.047  -8.352 -15.107  1.00  0.00     0.253 A 
HETATM   12  C9  UNL     1      -5.773  -7.787 -15.609  1.00  0.00     0.310 A 
HETATM   13  N3  UNL     1      -5.843  -8.859 -14.548  1.00  0.00     0.110 N 
BRANCH  13  14
HETATM   14  C10 UNL     1      -5.346  -8.510 -13.262  1.00  0.00     0.387 C 
HETATM   15 CL1  UNL     1      -3.619  -8.840 -13.026  1.00  0.00    -0.098 Cl
ENDBRANCH  13  14
ENDBRANCH  10  11
ENDBRANCH   9  10
ENDBRANCH   8   9
ENDBRANCH   6   7
ENDBRANCH   3   6
BRANCH   4  16
HETATM   16  O2  UNL     1     -12.701  -4.001 -18.003  1.00  0.00    -0.376 OA
ATOM     17  H2  UNL     1     -13.518  -4.273 -17.602  1.00  0.00     0.211 HD
ENDBRANCH   4  16
BRANCH   1  18
HETATM   18  C1  UNL     1     -13.003  -7.932 -20.475  1.00  0.00     0.266 C 
BRANCH  18  19
HETATM   19  N1  UNL     1     -11.634  -8.401 -20.505  1.00  0.00    -0.077 N 
ATOM     20  H13 UNL     1     -11.248  -8.464 -21.447  1.00  0.00     0.274 HD
ATOM     21  H12 UNL     1     -10.965  -7.721 -20.141  1.00  0.00     0.274 HD
ATOM     22  H11 UNL     1     -11.625  -9.288 -20.002  1.00  0.00     0.274 HD
ENDBRANCH  18  19
ENDBRANCH   1  18
BRANCH   5  23
HETATM   23  O3  UNL     1     -14.632  -5.186 -19.124  1.00  0.00    -0.389 OA
ATOM     24  H3  UNL     1     -14.606  -5.193 -18.175  1.00  0.00     0.210 HD
ENDBRANCH   5  23
TORSDOF 10
ENDMDL
