MODEL 1
REMARK VINA RESULT: -7.448227310      0.000      0.000
REMARK  8 active torsions:
REMARK  status: ('A' for Active; 'I' for Inactive)
REMARK    1  A    between atoms: C2_2  and  O1_3 
REMARK    2  A    between atoms: C2_2  and  C3_5 
REMARK    3  A    between atoms: C6_9  and  O3_10 
REMARK    4  A    between atoms: C7_12  and  O4_13 
REMARK    5  A    between atoms: O4_13  and  C8_14 
REMARK    6  A    between atoms: C8_14  and  C9_15 
REMARK    7  A    between atoms: C9_15  and  C10_16 
REMARK    8  A    between atoms: C9_15  and  N1_18 
ROOT
HETATM    1  C3  UNL     1      -5.943  -9.137 -15.032  1.00  0.00     0.181 C 
HETATM    2  O2  UNL     1      -4.687  -9.734 -15.209  1.00  0.00    -0.373 OA
HETATM    3  C4  UNL     1      -3.928  -8.882 -15.995  1.00  0.00     0.149 C 
HETATM    4  C5  UNL     1      -3.295  -9.706 -17.105  1.00  0.00     0.042 C 
HETATM    5  C6  UNL     1      -4.781  -7.782 -16.508  1.00  0.00     0.178 C 
HETATM    6  C7  UNL     1      -6.197  -8.210 -16.155  1.00  0.00     0.184 C 
ENDROOT
BRANCH   6   7
HETATM    7  O4  UNL     1      -7.032  -7.205 -15.846  1.00  0.00    -0.378 OA
BRANCH   7   8
HETATM    8  C8  UNL     1      -7.948  -6.783 -16.739  1.00  0.00     0.206 C 
BRANCH   8   9
HETATM    9  C9  UNL     1      -9.372  -6.817 -16.411  1.00  0.00     0.277 C 
BRANCH   9  10
HETATM   10  C10 UNL     1      -9.532  -6.384 -14.939  1.00  0.00     0.260 C 
HETATM   11  F1  UNL     1      -9.480  -7.508 -14.119  1.00  0.00    -0.253 F 
ENDBRANCH   9  10
BRANCH   9  12
HETATM   12  N1  UNL     1     -10.218  -6.012 -17.233  1.00  0.00     0.124 N 
HETATM   13  C11 UNL     1     -10.605  -6.517 -18.486  1.00  0.00     0.302 C 
HETATM   14  C12 UNL     1     -12.037  -6.908 -18.328  1.00  0.00     0.264 C 
HETATM   15  N2  UNL     1     -12.518  -6.069 -17.279  1.00  0.00    -0.047 N 
HETATM   16  C13 UNL     1     -11.356  -5.438 -16.669  1.00  0.00     0.503 C 
ATOM     17  H22 UNL     1     -13.219  -5.399 -17.594  1.00  0.00     0.279 HD
ATOM     18  H21 UNL     1     -13.103  -6.566 -16.607  1.00  0.00     0.279 HD
ENDBRANCH   9  12
ENDBRANCH   8   9
ENDBRANCH   7   8
ENDBRANCH   6   7
BRANCH   1  19
HETATM   19  C2  UNL     1      -5.956  -8.585 -13.646  1.00  0.00     0.145 C 
HETATM   20  C1  UNL     1      -4.687  -8.819 -12.886  1.00  0.00     0.042 C 
BRANCH  19  21
HETATM   21  O1  UNL     1      -6.452  -7.312 -13.502  1.00  0.00    -0.393 OA
ATOM     22  H1  UNL     1      -7.401  -7.274 -13.505  1.00  0.00     0.210 HD
ENDBRANCH  19  21
ENDBRANCH   1  19
BRANCH   5  23
HETATM   23  O3  UNL     1      -4.698  -7.838 -17.926  1.00  0.00    -0.390 OA
ATOM     24  H3  UNL     1      -4.369  -6.993 -18.208  1.00  0.00     0.210 HD
ENDBRANCH   5  23
TORSDOF 8
ENDMDL
MODEL 2
REMARK VINA RESULT: -7.444201919      1.009      2.571
REMARK  8 active torsions:
REMARK  status: ('A' for Active; 'I' for Inactive)
REMARK    1  A    between atoms: C2_2  and  O1_3 
REMARK    2  A    between atoms: C2_2  and  C3_5 
REMARK    3  A    between atoms: C6_9  and  O3_10 
REMARK    4  A    between atoms: C7_12  and  O4_13 
REMARK    5  A    between atoms: O4_13  and  C8_14 
REMARK    6  A    between atoms: C8_14  and  C9_15 
REMARK    7  A    between atoms: C9_15  and  C10_16 
REMARK    8  A    between atoms: C9_15  and  N1_18 
ROOT
HETATM    1  C3  UNL     1      -4.349  -8.179 -15.865  1.00  0.00     0.181 C 
HETATM    2  O2  UNL     1      -3.467  -8.563 -14.845  1.00  0.00    -0.373 OA
HETATM    3  C4  UNL     1      -4.232  -9.000 -13.775  1.00  0.00     0.149 C 
HETATM    4  C5  UNL     1      -3.711  -8.324 -12.517  1.00  0.00     0.042 C 
HETATM    5  C6  UNL     1      -5.664  -8.714 -14.034  1.00  0.00     0.178 C 
HETATM    6  C7  UNL     1      -5.651  -7.820 -15.264  1.00  0.00     0.184 C 
ENDROOT
BRANCH   6   7
HETATM    7  O4  UNL     1      -6.692  -7.984 -16.095  1.00  0.00    -0.378 OA
BRANCH   7   8
HETATM    8  C8  UNL     1      -7.482  -6.940 -16.411  1.00  0.00     0.206 C 
BRANCH   8   9
HETATM    9  C9  UNL     1      -8.911  -6.974 -16.103  1.00  0.00     0.277 C 
BRANCH   9  10
HETATM   10  C10 UNL     1      -9.088  -6.579 -14.623  1.00  0.00     0.260 C 
HETATM   11  F1  UNL     1      -8.862  -7.692 -13.818  1.00  0.00    -0.253 F 
ENDBRANCH   9  10
BRANCH   9  12
HETATM   12  N1  UNL     1      -9.741  -6.142 -16.915  1.00  0.00     0.124 N 
HETATM   13  C11 UNL     1     -10.003  -6.548 -18.235  1.00  0.00     0.302 C 
HETATM   14  C12 UNL     1     -11.415  -7.028 -18.226  1.00  0.00     0.264 C 
HETATM   15  N2  UNL     1     -12.023  -6.318 -17.149  1.00  0.00    -0.047 N 
HETATM   16  C13 UNL     1     -10.950  -5.684 -16.394  1.00  0.00     0.503 C 
ATOM     17  H22 UNL     1     -12.738  -5.659 -17.457  1.00  0.00     0.279 HD
ATOM     18  H21 UNL     1     -12.625  -6.905 -16.572  1.00  0.00     0.279 HD
ENDBRANCH   9  12
ENDBRANCH   8   9
ENDBRANCH   7   8
ENDBRANCH   6   7
BRANCH   1  19
HETATM   19  C2  UNL     1      -4.319  -9.273 -16.880  1.00  0.00     0.145 C 
HETATM   20  C1  UNL     1      -2.941  -9.729 -17.243  1.00  0.00     0.042 C 
BRANCH  19  21
HETATM   21  O1  UNL     1      -5.204 -10.307 -16.686  1.00  0.00    -0.393 OA
ATOM     22  H1  UNL     1      -4.995 -10.847 -15.933  1.00  0.00     0.210 HD
ENDBRANCH  19  21
ENDBRANCH   1  19
BRANCH   5  23
HETATM   23  O3  UNL     1      -6.109  -7.896 -12.960  1.00  0.00    -0.390 OA
ATOM     24  H3  UNL     1      -5.327  -7.587 -12.517  1.00  0.00     0.210 HD
ENDBRANCH   5  23
TORSDOF 8
ENDMDL
MODEL 3
REMARK VINA RESULT: -6.880659033      3.873      7.553
REMARK  8 active torsions:
REMARK  status: ('A' for Active; 'I' for Inactive)
REMARK    1  A    between atoms: C2_2  and  O1_3 
REMARK    2  A    between atoms: C2_2  and  C3_5 
REMARK    3  A    between atoms: C6_9  and  O3_10 
REMARK    4  A    between atoms: C7_12  and  O4_13 
REMARK    5  A    between atoms: O4_13  and  C8_14 
REMARK    6  A    between atoms: C8_14  and  C9_15 
REMARK    7  A    between atoms: C9_15  and  C10_16 
REMARK    8  A    between atoms: C9_15  and  N1_18 
ROOT
HETATM    1  C3  UNL     1     -11.942  -5.233 -19.906  1.00  0.00     0.181 C 
HETATM    2  O2  UNL     1     -12.941  -5.144 -20.885  1.00  0.00    -0.373 OA
HETATM    3  C4  UNL     1     -13.897  -6.105 -20.593  1.00  0.00     0.149 C 
HETATM    4  C5  UNL     1     -14.197  -6.873 -21.870  1.00  0.00     0.042 C 
HETATM    5  C6  UNL     1     -13.411  -6.976 -19.495  1.00  0.00     0.178 C 
HETATM    6  C7  UNL     1     -11.947  -6.596 -19.336  1.00  0.00     0.184 C 
ENDROOT
BRANCH   6   7
HETATM    7  O4  UNL     1     -11.479  -6.656 -18.079  1.00  0.00    -0.378 OA
BRANCH   7   8
HETATM    8  C8  UNL     1     -10.153  -6.646 -17.845  1.00  0.00     0.206 C 
BRANCH   8   9
HETATM    9  C9  UNL     1      -9.637  -6.295 -16.523  1.00  0.00     0.277 C 
BRANCH   9  10
HETATM   10  C10 UNL     1     -10.842  -6.045 -15.593  1.00  0.00     0.260 C 
HETATM   11  F1  UNL     1     -10.835  -4.717 -15.176  1.00  0.00    -0.253 F 
ENDBRANCH   9  10
BRANCH   9  12
HETATM   12  N1  UNL     1      -8.768  -7.255 -15.920  1.00  0.00     0.124 N 
HETATM   13  C11 UNL     1      -7.442  -7.333 -16.379  1.00  0.00     0.302 C 
HETATM   14  C12 UNL     1      -6.616  -6.709 -15.305  1.00  0.00     0.264 C 
HETATM   15  N2  UNL     1      -7.386  -6.890 -14.118  1.00  0.00    -0.047 N 
HETATM   16  C13 UNL     1      -8.711  -7.331 -14.529  1.00  0.00     0.503 C 
ATOM     17  H22 UNL     1      -6.945  -7.519 -13.447  1.00  0.00     0.279 HD
ATOM     18  H21 UNL     1      -7.407  -6.060 -13.525  1.00  0.00     0.279 HD
ENDBRANCH   9  12
ENDBRANCH   8   9
ENDBRANCH   7   8
ENDBRANCH   6   7
BRANCH   1  19
HETATM   19  C2  UNL     1     -12.157  -4.081 -18.981  1.00  0.00     0.145 C 
HETATM   20  C1  UNL     1     -12.520  -2.804 -19.673  1.00  0.00     0.042 C 
BRANCH  19  21
HETATM   21  O1  UNL     1     -12.916  -4.332 -17.863  1.00  0.00    -0.393 OA
ATOM     22  H1  UNL     1     -13.186  -5.240 -17.786  1.00  0.00     0.210 HD
ENDBRANCH  19  21
ENDBRANCH   1  19
BRANCH   5  23
HETATM   23  O3  UNL     1     -13.416  -8.303 -20.005  1.00  0.00    -0.390 OA
ATOM     24  H3  UNL     1     -13.517  -8.228 -20.947  1.00  0.00     0.210 HD
ENDBRANCH   5  23
TORSDOF 8
ENDMDL
MODEL 4
REMARK VINA RESULT: -6.610327183      3.793      7.378
REMARK  8 active torsions:
REMARK  status: ('A' for Active; 'I' for Inactive)
REMARK    1  A    between atoms: C2_2  and  O1_3 
REMARK    2  A    between atoms: C2_2  and  C3_5 
REMARK    3  A    between atoms: C6_9  and  O3_10 
REMARK    4  A    between atoms: C7_12  and  O4_13 
REMARK    5  A    between atoms: O4_13  and  C8_14 
REMARK    6  A    between atoms: C8_14  and  C9_15 
REMARK    7  A    between atoms: C9_15  and  C10_16 
REMARK    8  A    between atoms: C9_15  and  N1_18 
ROOT
HETATM    1  C3  UNL     1     -12.909  -6.670 -19.775  1.00  0.00     0.181 C 
HETATM    2  O2  UNL     1     -13.224  -5.708 -20.745  1.00  0.00    -0.373 OA
HETATM    3  C4  UNL     1     -12.282  -4.696 -20.650  1.00  0.00     0.149 C 
HETATM    4  C5  UNL     1     -13.020  -3.367 -20.621  1.00  0.00     0.042 C 
HETATM    5  C6  UNL     1     -11.434  -4.913 -19.453  1.00  0.00     0.178 C 
HETATM    6  C7  UNL     1     -12.139  -6.024 -18.691  1.00  0.00     0.184 C 
ENDROOT
BRANCH   6   7
HETATM    7  O4  UNL     1     -11.324  -6.865 -18.034  1.00  0.00    -0.378 OA
BRANCH   7   8
HETATM    8  C8  UNL     1     -10.035  -6.538 -17.824  1.00  0.00     0.206 C 
BRANCH   8   9
HETATM    9  C9  UNL     1      -9.554  -6.255 -16.472  1.00  0.00     0.277 C 
BRANCH   9  10
HETATM   10  C10 UNL     1     -10.782  -6.064 -15.560  1.00  0.00     0.260 C 
HETATM   11  F1  UNL     1     -10.894  -4.721 -15.212  1.00  0.00    -0.253 F 
ENDBRANCH   9  10
BRANCH   9  12
HETATM   12  N1  UNL     1      -8.693  -7.242 -15.901  1.00  0.00     0.124 N 
HETATM   13  C11 UNL     1      -7.373  -7.329 -16.377  1.00  0.00     0.302 C 
HETATM   14  C12 UNL     1      -6.525  -6.742 -15.300  1.00  0.00     0.264 C 
HETATM   15  N2  UNL     1      -7.284  -6.937 -14.108  1.00  0.00    -0.047 N 
HETATM   16  C13 UNL     1      -8.620  -7.349 -14.513  1.00  0.00     0.503 C 
ATOM     17  H22 UNL     1      -6.844  -7.587 -13.456  1.00  0.00     0.279 HD
ATOM     18  H21 UNL     1      -7.285  -6.120 -13.497  1.00  0.00     0.279 HD
ENDBRANCH   9  12
ENDBRANCH   8   9
ENDBRANCH   7   8
ENDBRANCH   6   7
BRANCH   1  19
HETATM   19  C2  UNL     1     -12.280  -7.810 -20.503  1.00  0.00     0.145 C 
HETATM   20  C1  UNL     1     -12.707  -9.157 -20.011  1.00  0.00     0.042 C 
BRANCH  19  21
HETATM   21  O1  UNL     1     -12.250  -7.714 -21.874  1.00  0.00    -0.393 OA
ATOM     22  H1  UNL     1     -11.518  -8.173 -22.269  1.00  0.00     0.210 HD
ENDBRANCH  19  21
ENDBRANCH   1  19
BRANCH   5  23
HETATM   23  O3  UNL     1     -11.567  -3.745 -18.652  1.00  0.00    -0.390 OA
ATOM     24  H3  UNL     1     -12.437  -3.403 -18.821  1.00  0.00     0.210 HD
ENDBRANCH   5  23
TORSDOF 8
ENDMDL
MODEL 5
REMARK VINA RESULT: -6.592637458      5.356      8.799
REMARK  8 active torsions:
REMARK  status: ('A' for Active; 'I' for Inactive)
REMARK    1  A    between atoms: C2_2  and  O1_3 
REMARK    2  A    between atoms: C2_2  and  C3_5 
REMARK    3  A    between atoms: C6_9  and  O3_10 
REMARK    4  A    between atoms: C7_12  and  O4_13 
REMARK    5  A    between atoms: O4_13  and  C8_14 
REMARK    6  A    between atoms: C8_14  and  C9_15 
REMARK    7  A    between atoms: C9_15  and  C10_16 
REMARK    8  A    between atoms: C9_15  and  N1_18 
ROOT
HETATM    1  C3  UNL     1     -14.308  -4.213 -21.027  1.00  0.00     0.181 C 
HETATM    2  O2  UNL     1     -13.921  -3.003 -21.619  1.00  0.00    -0.373 OA
HETATM    3  C4  UNL     1     -12.667  -2.680 -21.127  1.00  0.00     0.149 C 
HETATM    4  C5  UNL     1     -12.697  -1.227 -20.680  1.00  0.00     0.042 C 
HETATM    5  C6  UNL     1     -12.303  -3.613 -20.033  1.00  0.00     0.178 C 
HETATM    6  C7  UNL     1     -13.589  -4.372 -19.745  1.00  0.00     0.184 C 
ENDROOT
BRANCH   6   7
HETATM    7  O4  UNL     1     -13.421  -5.651 -19.376  1.00  0.00    -0.378 OA
BRANCH   7   8
HETATM    8  C8  UNL     1     -13.111  -5.956 -18.102  1.00  0.00     0.206 C 
BRANCH   8   9
HETATM    9  C9  UNL     1     -11.915  -6.742 -17.798  1.00  0.00     0.277 C 
BRANCH   9  10
HETATM   10  C10 UNL     1     -11.537  -7.540 -19.062  1.00  0.00     0.260 C 
HETATM   11  F1  UNL     1     -12.437  -8.589 -19.231  1.00  0.00    -0.253 F 
ENDBRANCH   9  10
BRANCH   9  12
HETATM   12  N1  UNL     1     -10.780  -5.998 -17.354  1.00  0.00     0.124 N 
HETATM   13  C11 UNL     1     -10.642  -5.752 -15.977  1.00  0.00     0.302 C 
HETATM   14  C12 UNL     1      -9.549  -6.661 -15.523  1.00  0.00     0.264 C 
HETATM   15  N2  UNL     1      -8.759  -6.874 -16.691  1.00  0.00    -0.047 N 
HETATM   16  C13 UNL     1      -9.516  -6.356 -17.821  1.00  0.00     0.503 C 
ATOM     17  H22 UNL     1      -7.823  -6.475 -16.619  1.00  0.00     0.279 HD
ATOM     18  H21 UNL     1      -8.477  -7.847 -16.811  1.00  0.00     0.279 HD
ENDBRANCH   9  12
ENDBRANCH   8   9
ENDBRANCH   7   8
ENDBRANCH   6   7
BRANCH   1  19
HETATM   19  C2  UNL     1     -14.130  -5.266 -22.070  1.00  0.00     0.145 C 
HETATM   20  C1  UNL     1     -14.519  -4.831 -23.447  1.00  0.00     0.042 C 
BRANCH  19  21
HETATM   21  O1  UNL     1     -12.948  -5.967 -22.031  1.00  0.00    -0.393 OA
ATOM     22  H1  UNL     1     -12.972  -6.717 -21.449  1.00  0.00     0.210 HD
ENDBRANCH  19  21
ENDBRANCH   1  19
BRANCH   5  23
HETATM   23  O3  UNL     1     -12.058  -2.809 -18.886  1.00  0.00    -0.390 OA
ATOM     24  H3  UNL     1     -11.162  -2.504 -18.960  1.00  0.00     0.210 HD
ENDBRANCH   5  23
TORSDOF 8
ENDMDL
