MODEL 1
REMARK VINA RESULT: -8.178311967      0.000      0.000
REMARK  6 active torsions:
REMARK  status: ('A' for Active; 'I' for Inactive)
REMARK    1  A    between atoms: N1_2  and  C2_4 
REMARK    2  A    between atoms: C2_4  and  C3_5 
REMARK    3  A    between atoms: C2_4  and  C11_22 
REMARK    4  A    between atoms: C3_5  and  C4_6 
REMARK    5  A    between atoms: C4_6  and  N2_7 
REMARK    6  A    between atoms: N3_10  and  C7_11 
ROOT
HETATM    1  N2  UNL     1      -8.314  -7.151 -15.679  1.00  0.00     0.091 N 
HETATM    2  C5  UNL     1      -8.090  -6.835 -17.049  1.00  0.00     0.292 C 
HETATM    3  C6  UNL     1      -9.319  -6.868 -17.909  1.00  0.00     0.171 C 
HETATM    4  N3  UNL     1     -10.328  -6.004 -17.324  1.00  0.00    -0.213 N 
HETATM    5  C9  UNL     1     -10.540  -6.045 -15.919  1.00  0.00     0.171 C 
HETATM    6  C10 UNL     1      -9.582  -6.871 -15.144  1.00  0.00     0.292 C 
ENDROOT
BRANCH   1   7
HETATM    7  C4  UNL     1      -7.174  -6.676 -14.924  1.00  0.00     0.274 C 
BRANCH   7   8
HETATM    8  C3  UNL     1      -6.391  -7.731 -14.245  1.00  0.00     0.055 C 
BRANCH   8   9
HETATM    9  C2  UNL     1      -5.340  -8.432 -15.044  1.00  0.00     0.081 C 
BRANCH   9  10
HETATM   10  N1  UNL     1      -4.604  -7.713 -15.986  1.00  0.00    -0.421 N 
HETATM   11  C1  UNL     1      -4.605  -8.004 -17.353  1.00  0.00     0.140 C 
ATOM     12  H1  UNL     1      -4.034  -6.933 -15.659  1.00  0.00     0.153 HD
ENDBRANCH   9  10
BRANCH   9  13
HETATM   13  C11 UNL     1      -4.349  -9.043 -14.037  1.00  0.00    -0.000 C 
HETATM   14  C12 UNL     1      -2.941  -8.636 -14.407  1.00  0.00     0.011 C 
HETATM   15  C13 UNL     1      -4.704  -8.655 -12.627  1.00  0.00     0.011 C 
ENDBRANCH   9  13
ENDBRANCH   8   9
ENDBRANCH   7   8
ENDBRANCH   1   7
BRANCH   4  16
HETATM   16  C7  UNL     1     -11.102  -5.127 -18.124  1.00  0.00     0.699 A 
HETATM   17  N4  UNL     1     -10.951  -4.856 -19.439  1.00  0.00    -0.139 N 
HETATM   18  C8  UNL     1     -11.879  -3.972 -19.831  1.00  0.00     0.353 A 
ATOM     19  H4  UNL     1     -10.237  -5.263 -20.044  1.00  0.00     0.189 HD
HETATM   20  O1  UNL     1     -11.983  -3.536 -21.004  1.00  0.00    -0.245 OA
HETATM   21  N5  UNL     1     -12.624  -3.679 -18.763  1.00  0.00    -0.237 N 
HETATM   22  N6  UNL     1     -12.156  -4.372 -17.743  1.00  0.00    -0.128 N 
ATOM     23  H5  UNL     1     -13.414  -3.033 -18.739  1.00  0.00     0.192 HD
ATOM     24  H6  UNL     1     -12.536  -4.342 -16.797  1.00  0.00     0.205 HD
ENDBRANCH   4  16
TORSDOF 6
ENDMDL
MODEL 2
REMARK VINA RESULT: -8.099200941      1.517      2.025
REMARK  6 active torsions:
REMARK  status: ('A' for Active; 'I' for Inactive)
REMARK    1  A    between atoms: N1_2  and  C2_4 
REMARK    2  A    between atoms: C2_4  and  C3_5 
REMARK    3  A    between atoms: C2_4  and  C11_22 
REMARK    4  A    between atoms: C3_5  and  C4_6 
REMARK    5  A    between atoms: C4_6  and  N2_7 
REMARK    6  A    between atoms: N3_10  and  C7_11 
ROOT
HETATM    1  N2  UNL     1      -7.952  -7.139 -15.502  1.00  0.00     0.091 N 
HETATM    2  C5  UNL     1      -9.197  -6.922 -14.846  1.00  0.00     0.292 C 
HETATM    3  C6  UNL     1     -10.054  -5.857 -15.465  1.00  0.00     0.171 C 
HETATM    4  N3  UNL     1     -10.243  -6.161 -16.871  1.00  0.00    -0.213 N 
HETATM    5  C9  UNL     1      -9.128  -6.598 -17.638  1.00  0.00     0.171 C 
HETATM    6  C10 UNL     1      -7.882  -6.858 -16.876  1.00  0.00     0.292 C 
ENDROOT
BRANCH   1   7
HETATM    7  C4  UNL     1      -7.450  -8.429 -15.078  1.00  0.00     0.274 C 
BRANCH   7   8
HETATM    8  C3  UNL     1      -6.160  -8.389 -14.357  1.00  0.00     0.055 C 
BRANCH   8   9
HETATM    9  C2  UNL     1      -4.920  -8.669 -15.143  1.00  0.00     0.081 C 
BRANCH   9  10
HETATM   10  N1  UNL     1      -4.532  -7.779 -16.146  1.00  0.00    -0.421 N 
HETATM   11  C1  UNL     1      -4.402  -8.140 -17.491  1.00  0.00     0.140 C 
ATOM     12  H1  UNL     1      -4.333  -6.814 -15.884  1.00  0.00     0.153 HD
ENDBRANCH   9  10
BRANCH   9  13
HETATM   13  C11 UNL     1      -3.765  -8.774 -14.132  1.00  0.00    -0.000 C 
HETATM   14  C12 UNL     1      -4.329  -8.865 -12.732  1.00  0.00     0.011 C 
HETATM   15  C13 UNL     1      -2.863  -9.933 -14.462  1.00  0.00     0.011 C 
ENDBRANCH   9  13
ENDBRANCH   8   9
ENDBRANCH   7   8
ENDBRANCH   1   7
BRANCH   4  16
HETATM   16  C7  UNL     1     -11.510  -6.029 -17.491  1.00  0.00     0.699 A 
HETATM   17  N4  UNL     1     -12.082  -6.859 -18.392  1.00  0.00    -0.139 N 
HETATM   18  C8  UNL     1     -13.287  -6.389 -18.743  1.00  0.00     0.353 A 
ATOM     19  H4  UNL     1     -11.659  -7.716 -18.751  1.00  0.00     0.189 HD
HETATM   20  O1  UNL     1     -14.050  -6.955 -19.564  1.00  0.00    -0.245 OA
HETATM   21  N5  UNL     1     -13.485  -5.256 -18.065  1.00  0.00    -0.237 N 
HETATM   22  N6  UNL     1     -12.419  -5.044 -17.317  1.00  0.00    -0.128 N 
ATOM     23  H5  UNL     1     -14.312  -4.661 -18.116  1.00  0.00     0.192 HD
ATOM     24  H6  UNL     1     -12.297  -4.246 -16.693  1.00  0.00     0.205 HD
ENDBRANCH   4  16
TORSDOF 6
ENDMDL
MODEL 3
REMARK VINA RESULT: -7.837432273      1.833      2.742
REMARK  6 active torsions:
REMARK  status: ('A' for Active; 'I' for Inactive)
REMARK    1  A    between atoms: N1_2  and  C2_4 
REMARK    2  A    between atoms: C2_4  and  C3_5 
REMARK    3  A    between atoms: C2_4  and  C11_22 
REMARK    4  A    between atoms: C3_5  and  C4_6 
REMARK    5  A    between atoms: C4_6  and  N2_7 
REMARK    6  A    between atoms: N3_10  and  C7_11 
ROOT
HETATM    1  N2  UNL     1      -7.724  -7.040 -15.148  1.00  0.00     0.091 N 
HETATM    2  C5  UNL     1      -9.075  -7.003 -14.700  1.00  0.00     0.292 C 
HETATM    3  C6  UNL     1      -9.975  -6.102 -15.495  1.00  0.00     0.171 C 
HETATM    4  N3  UNL     1      -9.891  -6.469 -16.896  1.00  0.00    -0.213 N 
HETATM    5  C9  UNL     1      -8.616  -6.747 -17.462  1.00  0.00     0.171 C 
HETATM    6  C10 UNL     1      -7.481  -6.788 -16.508  1.00  0.00     0.292 C 
ENDROOT
BRANCH   1   7
HETATM    7  C4  UNL     1      -7.106  -8.223 -14.588  1.00  0.00     0.274 C 
BRANCH   7   8
HETATM    8  C3  UNL     1      -6.282  -9.004 -15.535  1.00  0.00     0.055 C 
BRANCH   8   9
HETATM    9  C2  UNL     1      -4.824  -9.135 -15.235  1.00  0.00     0.081 C 
BRANCH   9  10
HETATM   10  N1  UNL     1      -4.423  -9.608 -13.985  1.00  0.00    -0.421 N 
HETATM   11  C1  UNL     1      -3.981  -8.778 -12.951  1.00  0.00     0.140 C 
ATOM     12  H1  UNL     1      -4.454 -10.613 -13.818  1.00  0.00     0.153 HD
ENDBRANCH   9  10
BRANCH   9  13
HETATM   13  C11 UNL     1      -4.230 -10.068 -16.306  1.00  0.00    -0.000 C 
HETATM   14  C12 UNL     1      -3.679  -9.240 -17.445  1.00  0.00     0.011 C 
HETATM   15  C13 UNL     1      -3.194 -10.982 -15.710  1.00  0.00     0.011 C 
ENDBRANCH   9  13
ENDBRANCH   8   9
ENDBRANCH   7   8
ENDBRANCH   1   7
BRANCH   4  16
HETATM   16  C7  UNL     1     -11.050  -6.555 -17.707  1.00  0.00     0.699 A 
HETATM   17  N4  UNL     1     -12.202  -5.858 -17.581  1.00  0.00    -0.139 N 
HETATM   18  C8  UNL     1     -13.063  -6.225 -18.541  1.00  0.00     0.353 A 
ATOM     19  H4  UNL     1     -12.388  -5.158 -16.862  1.00  0.00     0.189 HD
HETATM   20  O1  UNL     1     -14.214  -5.742 -18.673  1.00  0.00    -0.245 OA
HETATM   21  N5  UNL     1     -12.459  -7.157 -19.281  1.00  0.00    -0.237 N 
HETATM   22  N6  UNL     1     -11.255  -7.352 -18.778  1.00  0.00    -0.128 N 
ATOM     23  H5  UNL     1     -12.857  -7.635 -20.090  1.00  0.00     0.192 HD
ATOM     24  H6  UNL     1     -10.572  -8.014 -19.147  1.00  0.00     0.205 HD
ENDBRANCH   4  16
TORSDOF 6
ENDMDL
MODEL 4
REMARK VINA RESULT: -7.781583742      0.811      1.721
REMARK  6 active torsions:
REMARK  status: ('A' for Active; 'I' for Inactive)
REMARK    1  A    between atoms: N1_2  and  C2_4 
REMARK    2  A    between atoms: C2_4  and  C3_5 
REMARK    3  A    between atoms: C2_4  and  C11_22 
REMARK    4  A    between atoms: C3_5  and  C4_6 
REMARK    5  A    between atoms: C4_6  and  N2_7 
REMARK    6  A    between atoms: N3_10  and  C7_11 
ROOT
HETATM    1  N2  UNL     1      -8.578  -7.132 -15.756  1.00  0.00     0.091 N 
HETATM    2  C5  UNL     1      -8.329  -6.825 -17.124  1.00  0.00     0.292 C 
HETATM    3  C6  UNL     1      -9.550  -6.821 -17.997  1.00  0.00     0.171 C 
HETATM    4  N3  UNL     1     -10.537  -5.925 -17.424  1.00  0.00    -0.213 N 
HETATM    5  C9  UNL     1     -10.765  -5.956 -16.022  1.00  0.00     0.171 C 
HETATM    6  C10 UNL     1      -9.843  -6.811 -15.235  1.00  0.00     0.292 C 
ENDROOT
BRANCH   1   7
HETATM    7  C4  UNL     1      -7.432  -6.692 -14.989  1.00  0.00     0.274 C 
BRANCH   7   8
HETATM    8  C3  UNL     1      -6.612  -7.779 -14.413  1.00  0.00     0.055 C 
BRANCH   8   9
HETATM    9  C2  UNL     1      -5.195  -7.892 -14.871  1.00  0.00     0.081 C 
BRANCH   9  10
HETATM   10  N1  UNL     1      -4.250  -8.486 -14.033  1.00  0.00    -0.421 N 
HETATM   11  C1  UNL     1      -4.469  -8.732 -12.674  1.00  0.00     0.140 C 
ATOM     12  H1  UNL     1      -3.352  -8.755 -14.433  1.00  0.00     0.153 HD
ENDBRANCH   9  10
BRANCH   9  13
HETATM   13  C11 UNL     1      -5.214  -8.680 -16.193  1.00  0.00    -0.000 C 
HETATM   14  C12 UNL     1      -4.654  -7.817 -17.301  1.00  0.00     0.011 C 
HETATM   15  C13 UNL     1      -4.475  -9.984 -16.055  1.00  0.00     0.011 C 
ENDBRANCH   9  13
ENDBRANCH   8   9
ENDBRANCH   7   8
ENDBRANCH   1   7
BRANCH   4  16
HETATM   16  C7  UNL     1     -11.274  -5.025 -18.234  1.00  0.00     0.699 A 
HETATM   17  N4  UNL     1     -11.079  -4.736 -19.540  1.00  0.00    -0.139 N 
HETATM   18  C8  UNL     1     -11.982  -3.833 -19.946  1.00  0.00     0.353 A 
ATOM     19  H4  UNL     1     -10.353  -5.145 -20.129  1.00  0.00     0.189 HD
HETATM   20  O1  UNL     1     -12.045  -3.379 -21.115  1.00  0.00    -0.245 OA
HETATM   21  N5  UNL     1     -12.755  -3.544 -18.896  1.00  0.00    -0.237 N 
HETATM   22  N6  UNL     1     -12.327  -4.259 -17.874  1.00  0.00    -0.128 N 
ATOM     23  H5  UNL     1     -13.536  -2.888 -18.887  1.00  0.00     0.192 HD
ATOM     24  H6  UNL     1     -12.735  -4.237 -16.939  1.00  0.00     0.205 HD
ENDBRANCH   4  16
TORSDOF 6
ENDMDL
MODEL 5
REMARK VINA RESULT: -7.776703137      3.336      7.830
REMARK  6 active torsions:
REMARK  status: ('A' for Active; 'I' for Inactive)
REMARK    1  A    between atoms: N1_2  and  C2_4 
REMARK    2  A    between atoms: C2_4  and  C3_5 
REMARK    3  A    between atoms: C2_4  and  C11_22 
REMARK    4  A    between atoms: C3_5  and  C4_6 
REMARK    5  A    between atoms: C4_6  and  N2_7 
REMARK    6  A    between atoms: N3_10  and  C7_11 
ROOT
HETATM    1  N2  UNL     1      -8.541  -6.728 -15.612  1.00  0.00     0.091 N 
HETATM    2  C5  UNL     1      -7.748  -6.979 -16.768  1.00  0.00     0.292 C 
HETATM    3  C6  UNL     1      -6.285  -7.173 -16.495  1.00  0.00     0.171 C 
HETATM    4  N3  UNL     1      -6.125  -8.222 -15.505  1.00  0.00    -0.213 N 
HETATM    5  C9  UNL     1      -6.986  -8.240 -14.374  1.00  0.00     0.171 C 
HETATM    6  C10 UNL     1      -8.094  -7.255 -14.389  1.00  0.00     0.292 C 
ENDROOT
BRANCH   1   7
HETATM    7  C4  UNL     1      -9.922  -6.984 -15.961  1.00  0.00     0.274 C 
BRANCH   7   8
HETATM    8  C3  UNL     1     -10.634  -5.839 -16.568  1.00  0.00     0.055 C 
BRANCH   8   9
HETATM    9  C2  UNL     1     -10.880  -5.882 -18.041  1.00  0.00     0.081 C 
BRANCH   9  10
HETATM   10  N1  UNL     1     -10.774  -7.098 -18.717  1.00  0.00    -0.421 N 
HETATM   11  C1  UNL     1     -11.876  -7.814 -19.195  1.00  0.00     0.140 C 
ATOM     12  H1  UNL     1      -9.844  -7.485 -18.870  1.00  0.00     0.153 HD
ENDBRANCH   9  10
BRANCH   9  13
HETATM   13  C11 UNL     1     -12.299  -5.334 -18.273  1.00  0.00    -0.000 C 
HETATM   14  C12 UNL     1     -13.026  -5.246 -16.950  1.00  0.00     0.011 C 
HETATM   15  C13 UNL     1     -12.257  -4.012 -18.991  1.00  0.00     0.011 C 
ENDBRANCH   9  13
ENDBRANCH   8   9
ENDBRANCH   7   8
ENDBRANCH   1   7
BRANCH   4  16
HETATM   16  C7  UNL     1      -5.131  -9.222 -15.645  1.00  0.00     0.699 A 
HETATM   17  N4  UNL     1      -4.629  -9.737 -16.789  1.00  0.00    -0.139 N 
HETATM   18  C8  UNL     1      -3.705 -10.666 -16.504  1.00  0.00     0.353 A 
ATOM     19  H4  UNL     1      -4.911  -9.460 -17.730  1.00  0.00     0.189 HD
HETATM   20  O1  UNL     1      -3.067 -11.311 -17.372  1.00  0.00    -0.245 OA
HETATM   21  N5  UNL     1      -3.618 -10.743 -15.174  1.00  0.00    -0.237 N 
HETATM   22  N6  UNL     1      -4.473  -9.878 -14.664  1.00  0.00    -0.128 N 
ATOM     23  H5  UNL     1      -3.000 -11.362 -14.647  1.00  0.00     0.192 HD
ATOM     24  H6  UNL     1      -4.618  -9.726 -13.665  1.00  0.00     0.205 HD
ENDBRANCH   4  16
TORSDOF 6
ENDMDL
