MODEL 1
REMARK VINA RESULT: -6.463646480      0.000      0.000
REMARK  7 active torsions:
REMARK  status: ('A' for Active; 'I' for Inactive)
REMARK    1  A    between atoms: C2_2  and  N1_3 
REMARK    2  A    between atoms: C3_4  and  C4_5 
REMARK    3  A    between atoms: C4_5  and  C5_6 
REMARK    4  A    between atoms: C5_6  and  N2_8 
REMARK    5  A    between atoms: C8_13  and  O1_14 
REMARK    6  A    between atoms: C9_16  and  O2_17 
REMARK    7  A    between atoms: C10_19  and  C11_20 
ROOT
HETATM    1  N1  UNL     1     -12.069  -7.053 -19.995  1.00  0.00    -0.381 N 
HETATM    2  C3  UNL     1     -10.906  -6.404 -19.431  1.00  0.00     0.088 C 
HETATM    3  C7  UNL     1     -11.043  -4.922 -19.442  1.00  0.00     0.059 C 
HETATM    4  C8  UNL     1     -12.366  -4.467 -18.950  1.00  0.00     0.150 C 
HETATM    5  C9  UNL     1     -13.414  -4.986 -19.872  1.00  0.00     0.170 C 
HETATM    6  C10 UNL     1     -13.053  -6.263 -20.594  1.00  0.00     0.128 C 
ENDROOT
BRANCH   2   7
HETATM    7  C4  UNL     1     -10.551  -6.911 -18.084  1.00  0.00     0.057 C 
BRANCH   7   8
HETATM    8  C5  UNL     1      -9.517  -6.313 -17.241  1.00  0.00     0.181 C 
HETATM    9  C6  UNL     1      -9.375  -6.528 -15.807  1.00  0.00     0.039 C 
BRANCH   8  10
HETATM   10  N2  UNL     1      -8.218  -6.731 -17.871  1.00  0.00    -0.075 N 
ATOM     11  H23 UNL     1      -8.038  -7.735 -17.824  1.00  0.00     0.274 HD
ATOM     12  H22 UNL     1      -8.209  -6.660 -18.888  1.00  0.00     0.274 HD
ATOM     13  H21 UNL     1      -7.509  -6.161 -17.409  1.00  0.00     0.274 HD
ENDBRANCH   8  10
ENDBRANCH   7   8
ENDBRANCH   2   7
BRANCH   1  14
HETATM   14  C2  UNL     1     -11.886  -8.273 -20.671  1.00  0.00     0.055 C 
HETATM   15  C1  UNL     1     -12.592  -9.500 -20.189  1.00  0.00     0.054 C 
ENDBRANCH   1  14
BRANCH   6  16
HETATM   16  C11 UNL     1     -12.980  -5.928 -22.052  1.00  0.00     0.142 C 
HETATM   17 CL1  UNL     1     -14.213  -4.824 -22.678  1.00  0.00    -0.128 Cl
ENDBRANCH   6  16
BRANCH   4  18
HETATM   18  O1  UNL     1     -12.681  -4.724 -17.639  1.00  0.00    -0.393 OA
ATOM     19  H1  UNL     1     -12.776  -3.981 -17.054  1.00  0.00     0.210 HD
ENDBRANCH   4  18
BRANCH   5  20
HETATM   20  O2  UNL     1     -14.588  -5.127 -19.092  1.00  0.00    -0.391 OA
ATOM     21  H2  UNL     1     -15.116  -4.357 -19.271  1.00  0.00     0.210 HD
ENDBRANCH   5  20
TORSDOF 7
ENDMDL
MODEL 2
REMARK VINA RESULT: -5.948994565      1.560      1.670
REMARK  7 active torsions:
REMARK  status: ('A' for Active; 'I' for Inactive)
REMARK    1  A    between atoms: C2_2  and  N1_3 
REMARK    2  A    between atoms: C3_4  and  C4_5 
REMARK    3  A    between atoms: C4_5  and  C5_6 
REMARK    4  A    between atoms: C5_6  and  N2_8 
REMARK    5  A    between atoms: C8_13  and  O1_14 
REMARK    6  A    between atoms: C9_16  and  O2_17 
REMARK    7  A    between atoms: C10_19  and  C11_20 
ROOT
HETATM    1  N1  UNL     1     -12.848  -5.847 -19.778  1.00  0.00    -0.381 N 
HETATM    2  C3  UNL     1     -11.510  -5.417 -19.438  1.00  0.00     0.088 C 
HETATM    3  C7  UNL     1     -11.075  -4.262 -20.268  1.00  0.00     0.059 C 
HETATM    4  C8  UNL     1     -12.111  -3.204 -20.363  1.00  0.00     0.150 C 
HETATM    5  C9  UNL     1     -13.305  -3.778 -21.044  1.00  0.00     0.170 C 
HETATM    6  C10 UNL     1     -13.477  -5.270 -20.883  1.00  0.00     0.128 C 
ENDROOT
BRANCH   2   7
HETATM    7  C4  UNL     1     -11.333  -5.150 -17.990  1.00  0.00     0.057 C 
BRANCH   7   8
HETATM    8  C5  UNL     1     -10.393  -5.880 -17.141  1.00  0.00     0.181 C 
HETATM    9  C6  UNL     1     -10.747  -6.963 -16.233  1.00  0.00     0.039 C 
BRANCH   8  10
HETATM   10  N2  UNL     1      -9.365  -6.431 -18.091  1.00  0.00    -0.075 N 
ATOM     11  H23 UNL     1      -9.110  -7.402 -17.906  1.00  0.00     0.274 HD
ATOM     12  H22 UNL     1      -9.715  -6.582 -19.037  1.00  0.00     0.274 HD
ATOM     13  H21 UNL     1      -8.583  -5.779 -18.036  1.00  0.00     0.274 HD
ENDBRANCH   8  10
ENDBRANCH   7   8
ENDBRANCH   2   7
BRANCH   1  14
HETATM   14  C2  UNL     1     -13.161  -7.213 -19.643  1.00  0.00     0.055 C 
HETATM   15  C1  UNL     1     -12.083  -8.238 -19.790  1.00  0.00     0.054 C 
ENDBRANCH   1  14
BRANCH   6  16
HETATM   16  C11 UNL     1     -13.326  -5.871 -22.247  1.00  0.00     0.142 C 
HETATM   17 CL1  UNL     1     -14.693  -6.815 -22.856  1.00  0.00    -0.128 Cl
ENDBRANCH   6  16
BRANCH   4  18
HETATM   18  O1  UNL     1     -12.461  -2.550 -19.208  1.00  0.00    -0.393 OA
ATOM     19  H1  UNL     1     -13.385  -2.399 -19.050  1.00  0.00     0.210 HD
ENDBRANCH   4  18
BRANCH   5  20
HETATM   20  O2  UNL     1     -14.421  -3.056 -20.554  1.00  0.00    -0.391 OA
ATOM     21  H2  UNL     1     -14.924  -3.671 -20.033  1.00  0.00     0.210 HD
ENDBRANCH   5  20
TORSDOF 7
ENDMDL
MODEL 3
REMARK VINA RESULT: -5.938700134      1.125      1.193
REMARK  7 active torsions:
REMARK  status: ('A' for Active; 'I' for Inactive)
REMARK    1  A    between atoms: C2_2  and  N1_3 
REMARK    2  A    between atoms: C3_4  and  C4_5 
REMARK    3  A    between atoms: C4_5  and  C5_6 
REMARK    4  A    between atoms: C5_6  and  N2_8 
REMARK    5  A    between atoms: C8_13  and  O1_14 
REMARK    6  A    between atoms: C9_16  and  O2_17 
REMARK    7  A    between atoms: C10_19  and  C11_20 
ROOT
HETATM    1  N1  UNL     1     -11.946  -6.677 -20.158  1.00  0.00    -0.381 N 
HETATM    2  C3  UNL     1     -10.882  -5.700 -20.092  1.00  0.00     0.088 C 
HETATM    3  C7  UNL     1     -11.368  -4.334 -20.426  1.00  0.00     0.059 C 
HETATM    4  C8  UNL     1     -12.632  -3.991 -19.731  1.00  0.00     0.150 C 
HETATM    5  C9  UNL     1     -13.691  -4.931 -20.194  1.00  0.00     0.170 C 
HETATM    6  C10 UNL     1     -13.190  -6.280 -20.653  1.00  0.00     0.128 C 
ENDROOT
BRANCH   2   7
HETATM    7  C4  UNL     1     -10.150  -5.721 -18.802  1.00  0.00     0.057 C 
BRANCH   7   8
HETATM    8  C5  UNL     1     -10.412  -6.691 -17.740  1.00  0.00     0.181 C 
HETATM    9  C6  UNL     1      -9.443  -7.125 -16.742  1.00  0.00     0.039 C 
BRANCH   8  10
HETATM   10  N2  UNL     1     -11.585  -6.128 -16.987  1.00  0.00    -0.075 N 
ATOM     11  H23 UNL     1     -12.368  -6.777 -16.896  1.00  0.00     0.274 HD
ATOM     12  H22 UNL     1     -11.417  -6.009 -15.988  1.00  0.00     0.274 HD
ATOM     13  H21 UNL     1     -11.818  -5.263 -17.475  1.00  0.00     0.274 HD
ENDBRANCH   8  10
ENDBRANCH   7   8
ENDBRANCH   2   7
BRANCH   1  14
HETATM   14  C2  UNL     1     -11.618  -7.990 -20.542  1.00  0.00     0.055 C 
HETATM   15  C1  UNL     1     -12.451  -9.134 -20.057  1.00  0.00     0.054 C 
ENDBRANCH   1  14
BRANCH   6  16
HETATM   16  C11 UNL     1     -13.497  -6.379 -22.116  1.00  0.00     0.142 C 
HETATM   17 CL1  UNL     1     -14.411  -5.043 -22.830  1.00  0.00    -0.128 Cl
ENDBRANCH   6  16
BRANCH   4  18
HETATM   18  O1  UNL     1     -12.604  -3.905 -18.361  1.00  0.00    -0.393 OA
ATOM     19  H1  UNL     1     -12.085  -4.546 -17.890  1.00  0.00     0.210 HD
ENDBRANCH   4  18
BRANCH   5  20
HETATM   20  O2  UNL     1     -14.614  -5.039 -19.125  1.00  0.00    -0.391 OA
ATOM     21  H2  UNL     1     -14.962  -4.165 -18.988  1.00  0.00     0.210 HD
ENDBRANCH   5  20
TORSDOF 7
ENDMDL
MODEL 4
REMARK VINA RESULT: -5.804763160      1.663      1.742
REMARK  7 active torsions:
REMARK  status: ('A' for Active; 'I' for Inactive)
REMARK    1  A    between atoms: C2_2  and  N1_3 
REMARK    2  A    between atoms: C3_4  and  C4_5 
REMARK    3  A    between atoms: C4_5  and  C5_6 
REMARK    4  A    between atoms: C5_6  and  N2_8 
REMARK    5  A    between atoms: C8_13  and  O1_14 
REMARK    6  A    between atoms: C9_16  and  O2_17 
REMARK    7  A    between atoms: C10_19  and  C11_20 
ROOT
HETATM    1  N1  UNL     1     -11.808  -6.417 -20.135  1.00  0.00    -0.381 N 
HETATM    2  C3  UNL     1     -10.707  -5.586 -19.699  1.00  0.00     0.088 C 
HETATM    3  C7  UNL     1     -10.792  -4.215 -20.271  1.00  0.00     0.059 C 
HETATM    4  C8  UNL     1     -12.152  -3.633 -20.159  1.00  0.00     0.150 C 
HETATM    5  C9  UNL     1     -13.088  -4.473 -20.957  1.00  0.00     0.170 C 
HETATM    6  C10 UNL     1     -12.679  -5.919 -21.107  1.00  0.00     0.128 C 
ENDROOT
BRANCH   2   7
HETATM    7  C4  UNL     1     -10.546  -5.557 -18.226  1.00  0.00     0.057 C 
BRANCH   7   8
HETATM    8  C5  UNL     1     -11.435  -6.259 -17.301  1.00  0.00     0.181 C 
HETATM    9  C6  UNL     1     -11.001  -7.049 -16.156  1.00  0.00     0.039 C 
BRANCH   8  10
HETATM   10  N2  UNL     1     -12.353  -5.195 -16.767  1.00  0.00    -0.075 N 
ATOM     11  H23 UNL     1     -12.961  -5.513 -16.012  1.00  0.00     0.274 HD
ATOM     12  H22 UNL     1     -11.877  -4.467 -16.234  1.00  0.00     0.274 HD
ATOM     13  H21 UNL     1     -12.854  -4.849 -17.586  1.00  0.00     0.274 HD
ENDBRANCH   8  10
ENDBRANCH   7   8
ENDBRANCH   2   7
BRANCH   1  14
HETATM   14  C2  UNL     1     -11.580  -7.797 -20.286  1.00  0.00     0.055 C 
HETATM   15  C1  UNL     1     -12.666  -8.769 -19.951  1.00  0.00     0.054 C 
ENDBRANCH   1  14
BRANCH   6  16
HETATM   16  C11 UNL     1     -12.408  -6.142 -22.562  1.00  0.00     0.142 C 
HETATM   17 CL1  UNL     1     -12.108  -4.703 -23.546  1.00  0.00    -0.128 Cl
ENDBRANCH   6  16
BRANCH   4  18
HETATM   18  O1  UNL     1     -12.642  -3.396 -18.899  1.00  0.00    -0.393 OA
ATOM     19  H1  UNL     1     -13.566  -3.190 -18.817  1.00  0.00     0.210 HD
ENDBRANCH   4  18
BRANCH   5  20
HETATM   20  O2  UNL     1     -14.357  -4.336 -20.343  1.00  0.00    -0.391 OA
ATOM     21  H2  UNL     1     -14.906  -3.881 -20.971  1.00  0.00     0.210 HD
ENDBRANCH   5  20
TORSDOF 7
ENDMDL
MODEL 5
REMARK VINA RESULT: -5.734745673      2.503      4.572
REMARK  7 active torsions:
REMARK  status: ('A' for Active; 'I' for Inactive)
REMARK    1  A    between atoms: C2_2  and  N1_3 
REMARK    2  A    between atoms: C3_4  and  C4_5 
REMARK    3  A    between atoms: C4_5  and  C5_6 
REMARK    4  A    between atoms: C5_6  and  N2_8 
REMARK    5  A    between atoms: C8_13  and  O1_14 
REMARK    6  A    between atoms: C9_16  and  O2_17 
REMARK    7  A    between atoms: C10_19  and  C11_20 
ROOT
HETATM    1  N1  UNL     1     -11.968  -6.704 -20.296  1.00  0.00    -0.381 N 
HETATM    2  C3  UNL     1     -13.276  -6.501 -19.713  1.00  0.00     0.088 C 
HETATM    3  C7  UNL     1     -13.244  -5.481 -18.630  1.00  0.00     0.059 C 
HETATM    4  C8  UNL     1     -12.488  -4.264 -19.013  1.00  0.00     0.150 C 
HETATM    5  C9  UNL     1     -11.071  -4.650 -19.260  1.00  0.00     0.170 C 
HETATM    6  C10 UNL     1     -10.867  -6.079 -19.706  1.00  0.00     0.128 C 
ENDROOT
BRANCH   2   7
HETATM    7  C4  UNL     1     -14.322  -6.200 -20.720  1.00  0.00     0.057 C 
BRANCH   7   8
HETATM    8  C5  UNL     1     -14.056  -6.080 -22.152  1.00  0.00     0.181 C 
HETATM    9  C6  UNL     1     -14.678  -6.888 -23.193  1.00  0.00     0.039 C 
BRANCH   8  10
HETATM   10  N2  UNL     1     -14.360  -4.645 -22.481  1.00  0.00    -0.075 N 
ATOM     11  H23 UNL     1     -13.958  -3.975 -21.825  1.00  0.00     0.274 HD
ATOM     12  H22 UNL     1     -13.877  -4.298 -23.311  1.00  0.00     0.274 HD
ATOM     13  H21 UNL     1     -15.377  -4.602 -22.546  1.00  0.00     0.274 HD
ENDBRANCH   8  10
ENDBRANCH   7   8
ENDBRANCH   2   7
BRANCH   1  14
HETATM   14  C2  UNL     1     -11.650  -7.984 -20.786  1.00  0.00     0.055 C 
HETATM   15  C1  UNL     1     -12.401  -9.176 -20.285  1.00  0.00     0.054 C 
ENDBRANCH   1  14
BRANCH   6  16
HETATM   16  C11 UNL     1     -10.092  -6.762 -18.621  1.00  0.00     0.142 C 
HETATM   17 CL1  UNL     1      -9.958  -5.907 -17.078  1.00  0.00    -0.128 Cl
ENDBRANCH   6  16
BRANCH   4  18
HETATM   18  O1  UNL     1     -12.986  -3.503 -20.042  1.00  0.00    -0.393 OA
ATOM     19  H1  UNL     1     -12.925  -3.857 -20.921  1.00  0.00     0.210 HD
ENDBRANCH   4  18
BRANCH   5  20
HETATM   20  O2  UNL     1     -10.570  -3.719 -20.203  1.00  0.00    -0.391 OA
ATOM     21  H2  UNL     1      -9.646  -3.618 -20.007  1.00  0.00     0.210 HD
ENDBRANCH   5  20
TORSDOF 7
ENDMDL
