MODEL 1
REMARK VINA RESULT: -6.152633642      0.000      0.000
REMARK  8 active torsions:
REMARK  status: ('A' for Active; 'I' for Inactive)
REMARK    1  A    between atoms: O1_1  and  C1_3 
REMARK    2  A    between atoms: C1_3  and  C2_4 
REMARK    3  A    between atoms: C2_4  and  C3_5 
REMARK    4  A    between atoms: C3_5  and  N1_6 
REMARK    5  A    between atoms: C5_8  and  C6_9 
REMARK    6  A    between atoms: C7_10  and  C8_11 
REMARK    7  A    between atoms: C9_14  and  C10_15 
REMARK    8  A    between atoms: C10_15  and  O3_16 
ROOT
HETATM    1  N1  UNL     1     -11.955  -4.996 -19.366  1.00  0.00     0.094 N 
HETATM    2  C4  UNL     1     -10.795  -5.237 -18.570  1.00  0.00     0.317 C 
HETATM    3  C5  UNL     1     -10.076  -6.509 -18.695  1.00  0.00     0.229 C 
HETATM    4  O2  UNL     1     -10.896  -7.575 -19.047  1.00  0.00    -0.363 OA
HETATM    5  C9  UNL     1     -11.373  -7.197 -20.325  1.00  0.00     0.175 C 
HETATM    6  C11 UNL     1     -12.390  -6.108 -20.163  1.00  0.00     0.306 C 
ENDROOT
BRANCH   1   7
HETATM    7  C3  UNL     1     -11.717  -3.815 -20.182  1.00  0.00     0.275 C 
BRANCH   7   8
HETATM    8  C2  UNL     1     -12.970  -3.133 -20.650  1.00  0.00     0.056 C 
BRANCH   8   9
HETATM    9  C1  UNL     1     -12.940  -1.645 -20.228  1.00  0.00     0.165 C 
BRANCH   9  10
HETATM   10  O1  UNL     1     -12.528  -1.540 -18.903  1.00  0.00    -0.401 OA
ATOM     11  H1  UNL     1     -12.967  -0.808 -18.487  1.00  0.00     0.209 HD
ENDBRANCH   9  10
ENDBRANCH   8   9
ENDBRANCH   7   8
ENDBRANCH   1   7
BRANCH   3  12
HETATM   12  C6  UNL     1      -9.340  -6.796 -17.453  1.00  0.00    -0.071 C 
HETATM   13  C7  UNL     1      -8.733  -7.024 -16.438  1.00  0.00    -0.089 C 
BRANCH  13  14
HETATM   14  C8  UNL     1      -7.997  -7.289 -15.188  1.00  0.00     0.208 C 
HETATM   15 CL1  UNL     1      -6.999  -8.757 -15.357  1.00  0.00    -0.117 Cl
ENDBRANCH  13  14
ENDBRANCH   3  12
BRANCH   5  16
HETATM   16  C10 UNL     1     -11.827  -8.373 -21.098  1.00  0.00     0.197 C 
BRANCH  16  17
HETATM   17  O3  UNL     1     -11.836  -9.497 -20.285  1.00  0.00    -0.398 OA
ATOM     18  H3  UNL     1     -12.128 -10.253 -20.781  1.00  0.00     0.209 HD
ENDBRANCH  16  17
ENDBRANCH   5  16
TORSDOF 8
ENDMDL
MODEL 2
REMARK VINA RESULT: -6.053869143      2.712      5.256
REMARK  8 active torsions:
REMARK  status: ('A' for Active; 'I' for Inactive)
REMARK    1  A    between atoms: O1_1  and  C1_3 
REMARK    2  A    between atoms: C1_3  and  C2_4 
REMARK    3  A    between atoms: C2_4  and  C3_5 
REMARK    4  A    between atoms: C3_5  and  N1_6 
REMARK    5  A    between atoms: C5_8  and  C6_9 
REMARK    6  A    between atoms: C7_10  and  C8_11 
REMARK    7  A    between atoms: C9_14  and  C10_15 
REMARK    8  A    between atoms: C10_15  and  O3_16 
ROOT
HETATM    1  N1  UNL     1     -11.516  -5.847 -17.605  1.00  0.00     0.094 N 
HETATM    2  C4  UNL     1     -11.560  -7.174 -18.129  1.00  0.00     0.317 C 
HETATM    3  C5  UNL     1     -11.478  -7.391 -19.576  1.00  0.00     0.229 C 
HETATM    4  O2  UNL     1     -12.009  -6.345 -20.323  1.00  0.00    -0.363 OA
HETATM    5  C9  UNL     1     -11.171  -5.257 -19.980  1.00  0.00     0.175 C 
HETATM    6  C11 UNL     1     -11.507  -4.803 -18.592  1.00  0.00     0.306 C 
ENDROOT
BRANCH   1   7
HETATM    7  C3  UNL     1     -10.375  -5.742 -16.707  1.00  0.00     0.275 C 
BRANCH   7   8
HETATM    8  C2  UNL     1      -9.639  -7.035 -16.503  1.00  0.00     0.056 C 
BRANCH   8   9
HETATM    9  C1  UNL     1      -8.169  -6.872 -16.954  1.00  0.00     0.165 C 
BRANCH   9  10
HETATM   10  O1  UNL     1      -8.126  -6.528 -18.301  1.00  0.00    -0.401 OA
ATOM     11  H1  UNL     1      -7.225  -6.520 -18.602  1.00  0.00     0.209 HD
ENDBRANCH   9  10
ENDBRANCH   8   9
ENDBRANCH   7   8
ENDBRANCH   1   7
BRANCH   3  12
HETATM   12  C6  UNL     1     -12.114  -8.670 -19.931  1.00  0.00    -0.071 C 
HETATM   13  C7  UNL     1     -12.628  -9.719 -20.226  1.00  0.00    -0.089 C 
BRANCH  13  14
HETATM   14  C8  UNL     1     -13.246 -11.011 -20.576  1.00  0.00     0.208 C 
HETATM   15 CL1  UNL     1     -13.328 -12.067 -19.142  1.00  0.00    -0.117 Cl
ENDBRANCH  13  14
ENDBRANCH   3  12
BRANCH   5  16
HETATM   16  C10 UNL     1     -11.211  -4.201 -21.015  1.00  0.00     0.197 C 
BRANCH  16  17
HETATM   17  O3  UNL     1     -11.575  -2.992 -20.440  1.00  0.00    -0.398 OA
ATOM     18  H3  UNL     1     -10.892  -2.348 -20.584  1.00  0.00     0.209 HD
ENDBRANCH  16  17
ENDBRANCH   5  16
TORSDOF 8
ENDMDL
MODEL 3
REMARK VINA RESULT: -6.044481111      1.415      4.458
REMARK  8 active torsions:
REMARK  status: ('A' for Active; 'I' for Inactive)
REMARK    1  A    between atoms: O1_1  and  C1_3 
REMARK    2  A    between atoms: C1_3  and  C2_4 
REMARK    3  A    between atoms: C2_4  and  C3_5 
REMARK    4  A    between atoms: C3_5  and  N1_6 
REMARK    5  A    between atoms: C5_8  and  C6_9 
REMARK    6  A    between atoms: C7_10  and  C8_11 
REMARK    7  A    between atoms: C9_14  and  C10_15 
REMARK    8  A    between atoms: C10_15  and  O3_16 
ROOT
HETATM    1  N1  UNL     1     -11.143  -6.851 -20.540  1.00  0.00     0.094 N 
HETATM    2  C4  UNL     1     -10.832  -7.132 -19.176  1.00  0.00     0.317 C 
HETATM    3  C5  UNL     1     -11.046  -6.104 -18.152  1.00  0.00     0.229 C 
HETATM    4  O2  UNL     1     -10.902  -4.807 -18.633  1.00  0.00    -0.363 OA
HETATM    5  C9  UNL     1     -11.936  -4.711 -19.594  1.00  0.00     0.175 C 
HETATM    6  C11 UNL     1     -11.546  -5.499 -20.808  1.00  0.00     0.306 C 
ENDROOT
BRANCH   1   7
HETATM    7  C3  UNL     1     -12.144  -7.807 -20.991  1.00  0.00     0.275 C 
BRANCH   7   8
HETATM    8  C2  UNL     1     -12.611  -8.752 -19.922  1.00  0.00     0.056 C 
BRANCH   8   9
HETATM    9  C1  UNL     1     -12.682 -10.188 -20.492  1.00  0.00     0.165 C 
BRANCH   9  10
HETATM   10  O1  UNL     1     -11.426 -10.574 -20.949  1.00  0.00    -0.401 OA
ATOM     11  H1  UNL     1     -10.956 -11.021 -20.255  1.00  0.00     0.209 HD
ENDBRANCH   9  10
ENDBRANCH   8   9
ENDBRANCH   7   8
ENDBRANCH   1   7
BRANCH   3  12
HETATM   12  C6  UNL     1     -10.158  -6.344 -17.003  1.00  0.00    -0.071 C 
HETATM   13  C7  UNL     1      -9.436  -6.547 -16.061  1.00  0.00    -0.089 C 
BRANCH  13  14
HETATM   14  C8  UNL     1      -8.544  -6.810 -14.916  1.00  0.00     0.208 C 
HETATM   15 CL1  UNL     1      -7.440  -8.159 -15.289  1.00  0.00    -0.117 Cl
ENDBRANCH  13  14
ENDBRANCH   3  12
BRANCH   5  16
HETATM   16  C10 UNL     1     -12.302  -3.301 -19.850  1.00  0.00     0.197 C 
BRANCH  16  17
HETATM   17  O3  UNL     1     -11.960  -2.519 -18.755  1.00  0.00    -0.398 OA
ATOM     18  H3  UNL     1     -11.897  -1.608 -19.016  1.00  0.00     0.209 HD
ENDBRANCH  16  17
ENDBRANCH   5  16
TORSDOF 8
ENDMDL
MODEL 4
REMARK VINA RESULT: -5.997364235      2.359      3.722
REMARK  8 active torsions:
REMARK  status: ('A' for Active; 'I' for Inactive)
REMARK    1  A    between atoms: O1_1  and  C1_3 
REMARK    2  A    between atoms: C1_3  and  C2_4 
REMARK    3  A    between atoms: C2_4  and  C3_5 
REMARK    4  A    between atoms: C3_5  and  N1_6 
REMARK    5  A    between atoms: C5_8  and  C6_9 
REMARK    6  A    between atoms: C7_10  and  C8_11 
REMARK    7  A    between atoms: C9_14  and  C10_15 
REMARK    8  A    between atoms: C10_15  and  O3_16 
ROOT
HETATM    1  N1  UNL     1     -10.306  -5.672 -19.170  1.00  0.00     0.094 N 
HETATM    2  C4  UNL     1      -9.303  -6.453 -18.519  1.00  0.00     0.317 C 
HETATM    3  C5  UNL     1      -9.482  -6.851 -17.120  1.00  0.00     0.229 C 
HETATM    4  O2  UNL     1     -10.228  -5.941 -16.378  1.00  0.00    -0.363 OA
HETATM    5  C9  UNL     1     -11.488  -5.969 -17.021  1.00  0.00     0.175 C 
HETATM    6  C11 UNL     1     -11.384  -5.239 -18.327  1.00  0.00     0.306 C 
ENDROOT
BRANCH   1   7
HETATM    7  C3  UNL     1     -10.794  -6.415 -20.322  1.00  0.00     0.275 C 
BRANCH   7   8
HETATM    8  C2  UNL     1     -11.656  -7.592 -19.969  1.00  0.00     0.056 C 
BRANCH   8   9
HETATM    9  C1  UNL     1     -13.001  -7.498 -20.727  1.00  0.00     0.165 C 
BRANCH   9  10
HETATM   10  O1  UNL     1     -14.017  -7.154 -19.841  1.00  0.00    -0.401 OA
ATOM     11  H1  UNL     1     -14.440  -7.940 -19.518  1.00  0.00     0.209 HD
ENDBRANCH   9  10
ENDBRANCH   8   9
ENDBRANCH   7   8
ENDBRANCH   1   7
BRANCH   3  12
HETATM   12  C6  UNL     1      -8.173  -7.097 -16.494  1.00  0.00    -0.071 C 
HETATM   13  C7  UNL     1      -7.103  -7.305 -15.982  1.00  0.00    -0.089 C 
BRANCH  13  14
HETATM   14  C8  UNL     1      -5.788  -7.569 -15.370  1.00  0.00     0.208 C 
HETATM   15 CL1  UNL     1      -5.979  -7.985 -13.647  1.00  0.00    -0.117 Cl
ENDBRANCH  13  14
ENDBRANCH   3  12
BRANCH   5  16
HETATM   16  C10 UNL     1     -12.561  -5.497 -16.120  1.00  0.00     0.197 C 
BRANCH  16  17
HETATM   17  O3  UNL     1     -13.516  -4.801 -16.848  1.00  0.00    -0.398 OA
ATOM     18  H3  UNL     1     -13.092  -4.260 -17.503  1.00  0.00     0.209 HD
ENDBRANCH  16  17
ENDBRANCH   5  16
TORSDOF 8
ENDMDL
MODEL 5
REMARK VINA RESULT: -5.966212454      1.099      1.153
REMARK  8 active torsions:
REMARK  status: ('A' for Active; 'I' for Inactive)
REMARK    1  A    between atoms: O1_1  and  C1_3 
REMARK    2  A    between atoms: C1_3  and  C2_4 
REMARK    3  A    between atoms: C2_4  and  C3_5 
REMARK    4  A    between atoms: C3_5  and  N1_6 
REMARK    5  A    between atoms: C5_8  and  C6_9 
REMARK    6  A    between atoms: C7_10  and  C8_11 
REMARK    7  A    between atoms: C9_14  and  C10_15 
REMARK    8  A    between atoms: C10_15  and  O3_16 
ROOT
HETATM    1  N1  UNL     1     -13.000  -5.762 -19.249  1.00  0.00     0.094 N 
HETATM    2  C4  UNL     1     -11.658  -5.655 -18.774  1.00  0.00     0.317 C 
HETATM    3  C5  UNL     1     -10.686  -6.708 -19.086  1.00  0.00     0.229 C 
HETATM    4  O2  UNL     1     -11.262  -7.966 -19.227  1.00  0.00    -0.363 OA
HETATM    5  C9  UNL     1     -12.120  -7.797 -20.340  1.00  0.00     0.175 C 
HETATM    6  C11 UNL     1     -13.313  -6.994 -19.918  1.00  0.00     0.306 C 
ENDROOT
BRANCH   1   7
HETATM    7  C3  UNL     1     -13.286  -4.609 -20.090  1.00  0.00     0.275 C 
BRANCH   7   8
HETATM    8  C2  UNL     1     -12.149  -3.635 -20.197  1.00  0.00     0.056 C 
BRANCH   8   9
HETATM    9  C1  UNL     1     -12.700  -2.190 -20.192  1.00  0.00     0.165 C 
BRANCH   9  10
HETATM   10  O1  UNL     1     -12.563  -1.639 -18.921  1.00  0.00    -0.401 OA
ATOM     11  H1  UNL     1     -12.075  -2.234 -18.365  1.00  0.00     0.209 HD
ENDBRANCH   9  10
ENDBRANCH   8   9
ENDBRANCH   7   8
ENDBRANCH   1   7
BRANCH   3  12
HETATM   12  C6  UNL     1      -9.619  -6.725 -18.073  1.00  0.00    -0.071 C 
HETATM   13  C7  UNL     1      -8.750  -6.745 -17.240  1.00  0.00    -0.089 C 
BRANCH  13  14
HETATM   14  C8  UNL     1      -7.679  -6.785 -16.226  1.00  0.00     0.208 C 
HETATM   15 CL1  UNL     1      -8.355  -7.195 -14.629  1.00  0.00    -0.117 Cl
ENDBRANCH  13  14
ENDBRANCH   3  12
BRANCH   5  16
HETATM   16  C10 UNL     1     -12.428  -9.093 -20.982  1.00  0.00     0.197 C 
BRANCH  16  17
HETATM   17  O3  UNL     1     -13.277  -9.831 -20.170  1.00  0.00    -0.398 OA
ATOM     18  H3  UNL     1     -12.900  -9.917 -19.303  1.00  0.00     0.209 HD
ENDBRANCH  16  17
ENDBRANCH   5  16
TORSDOF 8
ENDMDL
