MODEL 1
REMARK VINA RESULT: -6.236643867      0.000      0.000
REMARK  7 active torsions:
REMARK  status: ('A' for Active; 'I' for Inactive)
REMARK    1  A    between atoms: N1_1  and  C1_5 
REMARK    2  A    between atoms: C2_6  and  O1_7 
REMARK    3  A    between atoms: C3_9  and  O2_10 
REMARK    4  A    between atoms: N2_13  and  C5_14 
REMARK    5  A    between atoms: C5_14  and  C6_15 
REMARK    6  A    between atoms: C6_15  and  C7_16 
REMARK    7  A    between atoms: C7_16  and  C8_17 
ROOT
HETATM    1  C1  UNL     1     -10.994  -5.471 -19.374  1.00  0.00     0.448 C 
HETATM    2  C2  UNL     1     -12.106  -4.508 -19.191  1.00  0.00     0.209 C 
HETATM    3  C3  UNL     1     -12.983  -5.067 -18.118  1.00  0.00     0.179 C 
HETATM    4  C4  UNL     1     -12.282  -6.289 -17.598  1.00  0.00     0.309 C 
HETATM    5  N2  UNL     1     -10.989  -6.403 -18.245  1.00  0.00     0.124 N 
ENDROOT
BRANCH   5   6
HETATM    6  C5  UNL     1      -9.897  -5.983 -17.386  1.00  0.00     0.275 C 
BRANCH   6   7
HETATM    7  C6  UNL     1     -10.233  -6.060 -15.914  1.00  0.00     0.031 C 
BRANCH   7   8
HETATM    8  C7  UNL     1      -9.080  -6.837 -15.280  1.00  0.00     0.012 C 
BRANCH   8   9
HETATM    9  C8  UNL     1      -7.881  -6.936 -16.164  1.00  0.00     0.085 C 
HETATM   10 BR1  UNL     1      -6.833  -8.438 -15.571  1.00  0.00    -0.097 Br
ENDBRANCH   8   9
ENDBRANCH   7   8
ENDBRANCH   6   7
ENDBRANCH   5   6
BRANCH   1  11
HETATM   11  N1  UNL     1     -11.061  -6.224 -20.627  1.00  0.00    -0.045 N 
ATOM     12  H13 UNL     1     -11.595  -7.084 -20.501  1.00  0.00     0.277 HD
ATOM     13  H12 UNL     1     -11.659  -5.747 -21.301  1.00  0.00     0.277 HD
ATOM     14  H11 UNL     1     -10.148  -6.426 -21.038  1.00  0.00     0.277 HD
ENDBRANCH   1  11
BRANCH   2  15
HETATM   15  O1  UNL     1     -11.670  -3.204 -18.857  1.00  0.00    -0.389 OA
ATOM     16  H1  UNL     1     -12.109  -2.844 -18.095  1.00  0.00     0.210 HD
ENDBRANCH   2  15
BRANCH   3  17
HETATM   17  O2  UNL     1     -14.243  -5.354 -18.682  1.00  0.00    -0.391 OA
ATOM     18  H2  UNL     1     -14.832  -4.638 -18.473  1.00  0.00     0.210 HD
ENDBRANCH   3  17
TORSDOF 7
ENDMDL
MODEL 2
REMARK VINA RESULT: -5.851113237      1.330      1.560
REMARK  7 active torsions:
REMARK  status: ('A' for Active; 'I' for Inactive)
REMARK    1  A    between atoms: N1_1  and  C1_5 
REMARK    2  A    between atoms: C2_6  and  O1_7 
REMARK    3  A    between atoms: C3_9  and  O2_10 
REMARK    4  A    between atoms: N2_13  and  C5_14 
REMARK    5  A    between atoms: C5_14  and  C6_15 
REMARK    6  A    between atoms: C6_15  and  C7_16 
REMARK    7  A    between atoms: C7_16  and  C8_17 
ROOT
HETATM    1  C1  UNL     1     -11.443  -4.836 -18.901  1.00  0.00     0.448 C 
HETATM    2  C2  UNL     1     -12.869  -5.181 -18.684  1.00  0.00     0.209 C 
HETATM    3  C3  UNL     1     -12.957  -6.672 -18.716  1.00  0.00     0.179 C 
HETATM    4  C4  UNL     1     -11.545  -7.174 -18.816  1.00  0.00     0.309 C 
HETATM    5  N2  UNL     1     -10.637  -6.046 -18.735  1.00  0.00     0.124 N 
ENDROOT
BRANCH   5   6
HETATM    6  C5  UNL     1     -10.008  -5.930 -17.431  1.00  0.00     0.275 C 
BRANCH   6   7
HETATM    7  C6  UNL     1      -8.847  -6.880 -17.242  1.00  0.00     0.031 C 
BRANCH   7   8
HETATM    8  C7  UNL     1      -8.621  -6.939 -15.732  1.00  0.00     0.012 C 
BRANCH   8   9
HETATM    9  C8  UNL     1      -7.176  -6.938 -15.353  1.00  0.00     0.085 C 
HETATM   10 BR1  UNL     1      -6.860  -8.469 -14.230  1.00  0.00    -0.097 Br
ENDBRANCH   8   9
ENDBRANCH   7   8
ENDBRANCH   6   7
ENDBRANCH   5   6
BRANCH   1  11
HETATM   11  N1  UNL     1     -11.168  -4.244 -20.212  1.00  0.00    -0.045 N 
ATOM     12  H13 UNL     1     -11.834  -3.498 -20.414  1.00  0.00     0.277 HD
ATOM     13  H12 UNL     1     -10.304  -3.702 -20.186  1.00  0.00     0.277 HD
ATOM     14  H11 UNL     1     -11.145  -4.921 -20.975  1.00  0.00     0.277 HD
ENDBRANCH   1  11
BRANCH   2  15
HETATM   15  O1  UNL     1     -13.391  -4.671 -17.472  1.00  0.00    -0.389 OA
ATOM     16  H1  UNL     1     -13.279  -5.260 -16.736  1.00  0.00     0.210 HD
ENDBRANCH   2  15
BRANCH   3  17
HETATM   17  O2  UNL     1     -13.752  -7.043 -19.819  1.00  0.00    -0.391 OA
ATOM     18  H2  UNL     1     -14.354  -7.723 -19.537  1.00  0.00     0.210 HD
ENDBRANCH   3  17
TORSDOF 7
ENDMDL
MODEL 3
REMARK VINA RESULT: -5.840413462      5.583      7.489
REMARK  7 active torsions:
REMARK  status: ('A' for Active; 'I' for Inactive)
REMARK    1  A    between atoms: N1_1  and  C1_5 
REMARK    2  A    between atoms: C2_6  and  O1_7 
REMARK    3  A    between atoms: C3_9  and  O2_10 
REMARK    4  A    between atoms: N2_13  and  C5_14 
REMARK    5  A    between atoms: C5_14  and  C6_15 
REMARK    6  A    between atoms: C6_15  and  C7_16 
REMARK    7  A    between atoms: C7_16  and  C8_17 
ROOT
HETATM    1  C1  UNL     1      -5.068  -8.327 -16.723  1.00  0.00     0.448 C 
HETATM    2  C2  UNL     1      -4.082  -9.214 -16.061  1.00  0.00     0.209 C 
HETATM    3  C3  UNL     1      -4.064  -8.831 -14.616  1.00  0.00     0.179 C 
HETATM    4  C4  UNL     1      -5.152  -7.810 -14.440  1.00  0.00     0.309 C 
HETATM    5  N2  UNL     1      -5.869  -7.664 -15.693  1.00  0.00     0.124 N 
ENDROOT
BRANCH   5   6
HETATM    6  C5  UNL     1      -7.150  -8.346 -15.683  1.00  0.00     0.275 C 
BRANCH   6   7
HETATM    7  C6  UNL     1      -8.329  -7.401 -15.746  1.00  0.00     0.031 C 
BRANCH   7   8
HETATM    8  C7  UNL     1      -8.311  -6.833 -17.165  1.00  0.00     0.012 C 
BRANCH   8   9
HETATM    9  C8  UNL     1      -9.669  -6.485 -17.677  1.00  0.00     0.085 C 
HETATM   10 BR1  UNL     1     -10.942  -6.881 -16.289  1.00  0.00    -0.097 Br
ENDBRANCH   8   9
ENDBRANCH   7   8
ENDBRANCH   6   7
ENDBRANCH   5   6
BRANCH   1  11
HETATM   11  N1  UNL     1      -4.467  -7.319 -17.597  1.00  0.00    -0.045 N 
ATOM     12  H13 UNL     1      -4.533  -7.606 -18.574  1.00  0.00     0.277 HD
ATOM     13  H12 UNL     1      -5.044  -6.478 -17.625  1.00  0.00     0.277 HD
ATOM     14  H11 UNL     1      -3.503  -7.085 -17.357  1.00  0.00     0.277 HD
ENDBRANCH   1  11
BRANCH   2  15
HETATM   15  O1  UNL     1      -4.373 -10.591 -16.213  1.00  0.00    -0.389 OA
ATOM     16  H1  UNL     1      -4.312 -11.081 -15.402  1.00  0.00     0.210 HD
ENDBRANCH   2  15
BRANCH   3  17
HETATM   17  O2  UNL     1      -2.783  -8.330 -14.309  1.00  0.00    -0.391 OA
ATOM     18  H2  UNL     1      -2.489  -8.738 -13.503  1.00  0.00     0.210 HD
ENDBRANCH   3  17
TORSDOF 7
ENDMDL
MODEL 4
REMARK VINA RESULT: -5.822121998      4.771      6.381
REMARK  7 active torsions:
REMARK  status: ('A' for Active; 'I' for Inactive)
REMARK    1  A    between atoms: N1_1  and  C1_5 
REMARK    2  A    between atoms: C2_6  and  O1_7 
REMARK    3  A    between atoms: C3_9  and  O2_10 
REMARK    4  A    between atoms: N2_13  and  C5_14 
REMARK    5  A    between atoms: C5_14  and  C6_15 
REMARK    6  A    between atoms: C6_15  and  C7_16 
REMARK    7  A    between atoms: C7_16  and  C8_17 
ROOT
HETATM    1  C1  UNL     1      -6.529  -7.920 -16.360  1.00  0.00     0.448 C 
HETATM    2  C2  UNL     1      -6.313  -8.627 -15.075  1.00  0.00     0.209 C 
HETATM    3  C3  UNL     1      -6.770  -7.701 -13.995  1.00  0.00     0.179 C 
HETATM    4  C4  UNL     1      -7.376  -6.514 -14.690  1.00  0.00     0.309 C 
HETATM    5  N2  UNL     1      -7.387  -6.760 -16.119  1.00  0.00     0.124 N 
ENDROOT
BRANCH   5   6
HETATM    6  C5  UNL     1      -8.703  -7.128 -16.609  1.00  0.00     0.275 C 
BRANCH   6   7
HETATM    7  C6  UNL     1      -9.814  -6.806 -15.636  1.00  0.00     0.031 C 
BRANCH   7   8
HETATM    8  C7  UNL     1     -11.086  -6.758 -16.482  1.00  0.00     0.012 C 
BRANCH   8   9
HETATM    9  C8  UNL     1     -11.237  -5.485 -17.247  1.00  0.00     0.085 C 
HETATM   10 BR1  UNL     1     -13.020  -5.441 -17.972  1.00  0.00    -0.097 Br
ENDBRANCH   8   9
ENDBRANCH   7   8
ENDBRANCH   6   7
ENDBRANCH   5   6
BRANCH   1  11
HETATM   11  N1  UNL     1      -5.293  -7.484 -17.013  1.00  0.00    -0.045 N 
ATOM     12  H13 UNL     1      -4.478  -7.808 -16.491  1.00  0.00     0.277 HD
ATOM     13  H12 UNL     1      -5.150  -7.992 -17.886  1.00  0.00     0.277 HD
ATOM     14  H11 UNL     1      -5.241  -6.477 -17.171  1.00  0.00     0.277 HD
ENDBRANCH   1  11
BRANCH   2  15
HETATM   15  O1  UNL     1      -6.992  -9.867 -14.996  1.00  0.00    -0.389 OA
ATOM     16  H1  UNL     1      -6.633 -10.451 -14.338  1.00  0.00     0.210 HD
ENDBRANCH   2  15
BRANCH   3  17
HETATM   17  O2  UNL     1      -5.655  -7.364 -13.202  1.00  0.00    -0.391 OA
ATOM     18  H2  UNL     1      -5.917  -7.400 -12.289  1.00  0.00     0.210 HD
ENDBRANCH   3  17
TORSDOF 7
ENDMDL
MODEL 5
REMARK VINA RESULT: -5.819310491      1.040      1.093
REMARK  7 active torsions:
REMARK  status: ('A' for Active; 'I' for Inactive)
REMARK    1  A    between atoms: N1_1  and  C1_5 
REMARK    2  A    between atoms: C2_6  and  O1_7 
REMARK    3  A    between atoms: C3_9  and  O2_10 
REMARK    4  A    between atoms: N2_13  and  C5_14 
REMARK    5  A    between atoms: C5_14  and  C6_15 
REMARK    6  A    between atoms: C6_15  and  C7_16 
REMARK    7  A    between atoms: C7_16  and  C8_17 
ROOT
HETATM    1  C1  UNL     1     -11.046  -6.413 -19.112  1.00  0.00     0.448 C 
HETATM    2  C2  UNL     1     -11.894  -5.208 -19.274  1.00  0.00     0.209 C 
HETATM    3  C3  UNL     1     -12.668  -5.056 -18.005  1.00  0.00     0.179 C 
HETATM    4  C4  UNL     1     -12.148  -6.110 -17.069  1.00  0.00     0.309 C 
HETATM    5  N2  UNL     1     -11.036  -6.794 -17.700  1.00  0.00     0.124 N 
ENDROOT
BRANCH   5   6
HETATM    6  C5  UNL     1      -9.751  -6.363 -17.179  1.00  0.00     0.275 C 
BRANCH   6   7
HETATM    7  C6  UNL     1      -9.633  -6.515 -15.680  1.00  0.00     0.031 C 
BRANCH   7   8
HETATM    8  C7  UNL     1      -8.171  -6.885 -15.429  1.00  0.00     0.012 C 
BRANCH   8   9
HETATM    9  C8  UNL     1      -7.990  -7.825 -14.283  1.00  0.00     0.085 C 
HETATM   10 BR1  UNL     1      -6.100  -8.094 -14.035  1.00  0.00    -0.097 Br
ENDBRANCH   8   9
ENDBRANCH   7   8
ENDBRANCH   6   7
ENDBRANCH   5   6
BRANCH   1  11
HETATM   11  N1  UNL     1     -11.477  -7.555 -19.922  1.00  0.00    -0.045 N 
ATOM     12  H13 UNL     1     -12.468  -7.477 -20.152  1.00  0.00     0.277 HD
ATOM     13  H12 UNL     1     -11.078  -7.501 -20.859  1.00  0.00     0.277 HD
ATOM     14  H11 UNL     1     -11.277  -8.461 -19.498  1.00  0.00     0.277 HD
ENDBRANCH   1  11
BRANCH   2  15
HETATM   15  O1  UNL     1     -11.153  -4.035 -19.556  1.00  0.00    -0.389 OA
ATOM     16  H1  UNL     1     -11.481  -3.553 -20.306  1.00  0.00     0.210 HD
ENDBRANCH   2  15
BRANCH   3  17
HETATM   17  O2  UNL     1     -14.037  -5.211 -18.303  1.00  0.00    -0.391 OA
ATOM     18  H2  UNL     1     -14.455  -5.642 -17.567  1.00  0.00     0.210 HD
ENDBRANCH   3  17
TORSDOF 7
ENDMDL
