MODEL 1
REMARK VINA RESULT: -6.330150302      0.000      0.000
REMARK  4 active torsions:
REMARK  status: ('A' for Active; 'I' for Inactive)
REMARK    1  A    between atoms: S1_2  and  C1_5 
REMARK    2  A    between atoms: C1_5  and  C2_6 
REMARK    3  A    between atoms: C2_6  and  C3_7 
REMARK    4  A    between atoms: C3_7  and  O4_8 
ROOT
HETATM    1  C2  UNL     1     -12.272  -5.477 -18.330  1.00  0.00     0.037 C 
HETATM    2  C4  UNL     1     -12.463  -5.627 -16.813  1.00  0.00     0.246 C 
HETATM    3  N1  UNL     1     -11.321  -5.099 -16.112  1.00  0.00    -0.074 N 
ATOM      4  H11 UNL     1     -11.520  -4.884 -15.135  1.00  0.00     0.277 HD
ATOM      5  H12 UNL     1     -11.074  -4.155 -16.409  1.00  0.00     0.277 HD
HETATM    6  C5  UNL     1     -10.234  -6.041 -16.271  1.00  0.00     0.233 C 
HETATM    7  C6  UNL     1     -10.312  -6.835 -17.530  1.00  0.00     0.048 C 
HETATM    8  C7  UNL     1     -10.968  -6.139 -18.682  1.00  0.00     0.097 C 
HETATM    9 CL1  UNL     1     -11.240  -7.386 -19.936  1.00  0.00    -0.124 Cl
ENDROOT
BRANCH   1  10
HETATM   10  C1  UNL     1     -12.224  -4.024 -18.608  1.00  0.00     0.180 C 
BRANCH  10  11
HETATM   11  S1  UNL     1     -11.894  -3.541 -20.280  1.00  0.00     0.102 S 
HETATM   12  O1  UNL     1     -12.794  -4.363 -21.427  1.00  0.00    -0.595 OA
HETATM   13  O2  UNL     1     -10.234  -3.818 -20.659  1.00  0.00    -0.595 OA
HETATM   14  O3  UNL     1     -12.132  -1.872 -20.495  1.00  0.00    -0.595 OA
ENDBRANCH  10  11
ENDBRANCH   1  10
BRANCH   1  15
HETATM   15  C3  UNL     1     -13.457  -6.178 -18.956  1.00  0.00     0.177 C 
BRANCH  15  16
HETATM   16  O4  UNL     1     -14.503  -5.241 -19.036  1.00  0.00    -0.400 OA
ATOM     17  H4  UNL     1     -15.266  -5.632 -18.627  1.00  0.00     0.209 HD
ENDBRANCH  15  16
ENDBRANCH   1  15
TORSDOF 4
ENDMDL
MODEL 2
REMARK VINA RESULT: -6.315934440      0.028      1.263
REMARK  4 active torsions:
REMARK  status: ('A' for Active; 'I' for Inactive)
REMARK    1  A    between atoms: S1_2  and  C1_5 
REMARK    2  A    between atoms: C1_5  and  C2_6 
REMARK    3  A    between atoms: C2_6  and  C3_7 
REMARK    4  A    between atoms: C3_7  and  O4_8 
ROOT
HETATM    1  C2  UNL     1     -12.267  -5.484 -18.326  1.00  0.00     0.037 C 
HETATM    2  C4  UNL     1     -12.450  -5.630 -16.807  1.00  0.00     0.246 C 
HETATM    3  N1  UNL     1     -11.305  -5.099 -16.113  1.00  0.00    -0.074 N 
ATOM      4  H11 UNL     1     -11.500  -4.881 -15.135  1.00  0.00     0.277 HD
ATOM      5  H12 UNL     1     -11.061  -4.155 -16.414  1.00  0.00     0.277 HD
HETATM    6  C5  UNL     1     -10.219  -6.040 -16.275  1.00  0.00     0.233 C 
HETATM    7  C6  UNL     1     -10.302  -6.838 -17.531  1.00  0.00     0.048 C 
HETATM    8  C7  UNL     1     -10.964  -6.145 -18.682  1.00  0.00     0.097 C 
HETATM    9 CL1  UNL     1     -11.241  -7.396 -19.931  1.00  0.00    -0.124 Cl
ENDROOT
BRANCH   1  10
HETATM   10  C1  UNL     1     -12.222  -4.032 -18.608  1.00  0.00     0.180 C 
BRANCH  10  11
HETATM   11  S1  UNL     1     -11.816  -3.553 -20.264  1.00  0.00     0.102 S 
HETATM   12  O1  UNL     1     -10.215  -3.806 -20.683  1.00  0.00    -0.595 OA
HETATM   13  O2  UNL     1     -12.129  -1.871 -20.488  1.00  0.00    -0.595 OA
HETATM   14  O3  UNL     1     -12.806  -4.349 -21.393  1.00  0.00    -0.595 OA
ENDBRANCH  10  11
ENDBRANCH   1  10
BRANCH   1  15
HETATM   15  C3  UNL     1     -13.455  -6.188 -18.944  1.00  0.00     0.177 C 
BRANCH  15  16
HETATM   16  O4  UNL     1     -14.492  -5.244 -19.050  1.00  0.00    -0.400 OA
ATOM     17  H4  UNL     1     -14.762  -5.018 -18.168  1.00  0.00     0.209 HD
ENDBRANCH  15  16
ENDBRANCH   1  15
TORSDOF 4
ENDMDL
MODEL 3
REMARK VINA RESULT: -5.934838741      2.342      3.335
REMARK  4 active torsions:
REMARK  status: ('A' for Active; 'I' for Inactive)
REMARK    1  A    between atoms: S1_2  and  C1_5 
REMARK    2  A    between atoms: C1_5  and  C2_6 
REMARK    3  A    between atoms: C2_6  and  C3_7 
REMARK    4  A    between atoms: C3_7  and  O4_8 
ROOT
HETATM    1  C2  UNL     1     -11.029  -6.052 -18.561  1.00  0.00     0.037 C 
HETATM    2  C4  UNL     1      -9.522  -5.811 -18.374  1.00  0.00     0.246 C 
HETATM    3  N1  UNL     1      -8.894  -6.987 -17.829  1.00  0.00    -0.074 N 
ATOM      4  H11 UNL     1      -7.884  -7.001 -17.977  1.00  0.00     0.277 HD
ATOM      5  H12 UNL     1      -9.118  -7.835 -18.350  1.00  0.00     0.277 HD
HETATM    6  C5  UNL     1      -9.258  -7.071 -16.431  1.00  0.00     0.233 C 
HETATM    7  C6  UNL     1     -10.576  -6.449 -16.120  1.00  0.00     0.048 C 
HETATM    8  C7  UNL     1     -11.578  -6.489 -17.232  1.00  0.00     0.097 C 
HETATM    9 CL1  UNL     1     -12.917  -5.407 -16.744  1.00  0.00    -0.124 Cl
ENDROOT
BRANCH   1  10
HETATM   10  C1  UNL     1     -11.162  -7.126 -19.572  1.00  0.00     0.180 C 
BRANCH  10  11
HETATM   11  S1  UNL     1     -12.621  -7.101 -20.576  1.00  0.00     0.102 S 
HETATM   12  O1  UNL     1     -14.034  -6.795 -19.732  1.00  0.00    -0.595 OA
HETATM   13  O2  UNL     1     -12.828  -8.624 -21.358  1.00  0.00    -0.595 OA
HETATM   14  O3  UNL     1     -12.481  -5.965 -21.833  1.00  0.00    -0.595 OA
ENDBRANCH  10  11
ENDBRANCH   1  10
BRANCH   1  15
HETATM   15  C3  UNL     1     -11.596  -4.723 -19.007  1.00  0.00     0.177 C 
BRANCH  15  16
HETATM   16  O4  UNL     1     -10.672  -4.151 -19.900  1.00  0.00    -0.400 OA
ATOM     17  H4  UNL     1      -9.803  -4.326 -19.559  1.00  0.00     0.209 HD
ENDBRANCH  15  16
ENDBRANCH   1  15
TORSDOF 4
ENDMDL
MODEL 4
REMARK VINA RESULT: -5.857193819      2.344      3.319
REMARK  4 active torsions:
REMARK  status: ('A' for Active; 'I' for Inactive)
REMARK    1  A    between atoms: S1_2  and  C1_5 
REMARK    2  A    between atoms: C1_5  and  C2_6 
REMARK    3  A    between atoms: C2_6  and  C3_7 
REMARK    4  A    between atoms: C3_7  and  O4_8 
ROOT
HETATM    1  C2  UNL     1     -11.027  -6.074 -18.603  1.00  0.00     0.037 C 
HETATM    2  C4  UNL     1      -9.520  -5.814 -18.446  1.00  0.00     0.246 C 
HETATM    3  N1  UNL     1      -8.871  -6.968 -17.880  1.00  0.00    -0.074 N 
ATOM      4  H11 UNL     1      -7.864  -6.977 -18.044  1.00  0.00     0.277 HD
ATOM      5  H12 UNL     1      -9.095  -7.832 -18.374  1.00  0.00     0.277 HD
HETATM    6  C5  UNL     1      -9.213  -7.019 -16.475  1.00  0.00     0.233 C 
HETATM    7  C6  UNL     1     -10.532  -6.402 -16.159  1.00  0.00     0.048 C 
HETATM    8  C7  UNL     1     -11.550  -6.481 -17.253  1.00  0.00     0.097 C 
HETATM    9 CL1  UNL     1     -12.892  -5.400 -16.773  1.00  0.00    -0.124 Cl
ENDROOT
BRANCH   1  10
HETATM   10  C1  UNL     1     -11.165  -7.176 -19.582  1.00  0.00     0.180 C 
BRANCH  10  11
HETATM   11  S1  UNL     1     -12.617  -7.166 -20.595  1.00  0.00     0.102 S 
HETATM   12  O1  UNL     1     -12.895  -8.596 -21.419  1.00  0.00    -0.595 OA
HETATM   13  O2  UNL     1     -12.502  -5.922 -21.784  1.00  0.00    -0.595 OA
HETATM   14  O3  UNL     1     -14.000  -6.788 -19.681  1.00  0.00    -0.595 OA
ENDBRANCH  10  11
ENDBRANCH   1  10
BRANCH   1  15
HETATM   15  C3  UNL     1     -11.614  -4.763 -19.074  1.00  0.00     0.177 C 
BRANCH  15  16
HETATM   16  O4  UNL     1     -10.664  -4.156 -19.914  1.00  0.00    -0.400 OA
ATOM     17  H4  UNL     1     -10.153  -4.850 -20.314  1.00  0.00     0.209 HD
ENDBRANCH  15  16
ENDBRANCH   1  15
TORSDOF 4
ENDMDL
MODEL 5
REMARK VINA RESULT: -5.760962947      3.343      4.134
REMARK  4 active torsions:
REMARK  status: ('A' for Active; 'I' for Inactive)
REMARK    1  A    between atoms: S1_2  and  C1_5 
REMARK    2  A    between atoms: C1_5  and  C2_6 
REMARK    3  A    between atoms: C2_6  and  C3_7 
REMARK    4  A    between atoms: C3_7  and  O4_8 
ROOT
HETATM    1  C2  UNL     1     -12.157  -6.085 -19.054  1.00  0.00     0.037 C 
HETATM    2  C4  UNL     1     -13.519  -6.696 -19.422  1.00  0.00     0.246 C 
HETATM    3  N1  UNL     1     -13.335  -7.975 -20.058  1.00  0.00    -0.074 N 
ATOM      4  H11 UNL     1     -14.176  -8.553 -20.035  1.00  0.00     0.277 HD
ATOM      5  H12 UNL     1     -12.729  -8.600 -19.526  1.00  0.00     0.277 HD
HETATM    6  C5  UNL     1     -12.855  -7.733 -21.401  1.00  0.00     0.233 C 
HETATM    7  C6  UNL     1     -12.080  -6.467 -21.538  1.00  0.00     0.048 C 
HETATM    8  C7  UNL     1     -11.335  -6.040 -20.312  1.00  0.00     0.097 C 
HETATM    9 CL1  UNL     1     -10.782  -4.366 -20.615  1.00  0.00    -0.124 Cl
ENDROOT
BRANCH   1  10
HETATM   10  C1  UNL     1     -11.548  -6.986 -18.050  1.00  0.00     0.180 C 
BRANCH  10  11
HETATM   11  S1  UNL     1     -10.190  -6.339 -17.116  1.00  0.00     0.102 S 
HETATM   12  O1  UNL     1      -8.956  -5.695 -18.045  1.00  0.00    -0.595 OA
HETATM   13  O2  UNL     1      -9.488  -7.584 -16.150  1.00  0.00    -0.595 OA
HETATM   14  O3  UNL     1     -10.714  -5.156 -16.013  1.00  0.00    -0.595 OA
ENDBRANCH  10  11
ENDBRANCH   1  10
BRANCH   1  15
HETATM   15  C3  UNL     1     -12.467  -4.703 -18.522  1.00  0.00     0.177 C 
BRANCH  15  16
HETATM   16  O4  UNL     1     -13.382  -4.856 -17.465  1.00  0.00    -0.400 OA
ATOM     17  H4  UNL     1     -12.896  -4.768 -16.654  1.00  0.00     0.209 HD
ENDBRANCH  15  16
ENDBRANCH   1  15
TORSDOF 4
ENDMDL
