MODEL 1
REMARK VINA RESULT: -7.130605808      0.000      0.000
REMARK  7 active torsions:
REMARK  status: ('A' for Active; 'I' for Inactive)
REMARK    1  A    between atoms: C2_3  and  C3_4 
REMARK    2  A    between atoms: C4_5  and  C5_6 
REMARK    3  A    between atoms: C7_8  and  N2_9 
REMARK    4  A    between atoms: C9_15  and  C10_16 
REMARK    5  A    between atoms: C9_15  and  C11_19 
REMARK    6  A    between atoms: C10_16  and  O1_17 
REMARK    7  A    between atoms: C11_19  and  O2_20 
ROOT
HETATM    1  C1  UNL     1     -12.339  -5.744 -16.501  1.00  0.00     0.312 C 
HETATM    2  N1  UNL     1     -11.435  -5.453 -17.572  1.00  0.00     0.109 N 
HETATM    3  C2  UNL     1     -10.712  -6.688 -17.938  1.00  0.00     0.267 C 
HETATM    4  C8  UNL     1     -10.863  -6.286 -19.356  1.00  0.00     0.162 C 
HETATM    5 CL1  UNL     1     -11.406  -7.612 -20.433  1.00  0.00    -0.119 Cl
HETATM    6  C9  UNL     1     -12.010  -5.400 -18.900  1.00  0.00     0.220 C 
ENDROOT
BRANCH   3   7
HETATM    7  C3  UNL     1      -9.393  -6.673 -17.305  1.00  0.00     0.006 C 
HETATM    8  C4  UNL     1      -9.070  -7.153 -16.146  1.00  0.00    -0.022 C 
BRANCH   8   9
HETATM    9  C5  UNL     1      -7.717  -7.103 -15.567  1.00  0.00     0.040 A 
HETATM   10  C6  UNL     1      -6.839  -8.331 -15.825  1.00  0.00     0.044 A 
HETATM   11  C7  UNL     1      -7.318  -7.919 -14.417  1.00  0.00     0.191 A 
BRANCH  11  12
HETATM   12  N2  UNL     1      -6.204  -7.526 -13.571  1.00  0.00    -0.074 N 
ATOM     13  H23 UNL     1      -5.339  -7.729 -14.072  1.00  0.00     0.274 HD
ATOM     14  H22 UNL     1      -6.186  -6.508 -13.523  1.00  0.00     0.274 HD
ATOM     15  H21 UNL     1      -6.112  -7.889 -12.622  1.00  0.00     0.274 HD
ENDBRANCH  11  12
ENDBRANCH   8   9
ENDBRANCH   3   7
BRANCH   6  16
HETATM   16  C10 UNL     1     -13.365  -5.999 -19.064  1.00  0.00     0.210 C 
BRANCH  16  17
HETATM   17  O1  UNL     1     -14.334  -5.010 -19.167  1.00  0.00    -0.398 OA
ATOM     18  H1  UNL     1     -14.962  -5.219 -19.849  1.00  0.00     0.209 HD
ENDBRANCH  16  17
ENDBRANCH   6  16
BRANCH   6  19
HETATM   19  C11 UNL     1     -11.860  -4.027 -19.498  1.00  0.00     0.210 C 
BRANCH  19  20
HETATM   20  O2  UNL     1     -12.528  -3.033 -18.794  1.00  0.00    -0.398 OA
ATOM     21  H2  UNL     1     -12.747  -2.272 -19.320  1.00  0.00     0.209 HD
ENDBRANCH  19  20
ENDBRANCH   6  19
TORSDOF 7
ENDMDL
MODEL 2
REMARK VINA RESULT: -7.004192386      1.799      2.463
REMARK  7 active torsions:
REMARK  status: ('A' for Active; 'I' for Inactive)
REMARK    1  A    between atoms: C2_3  and  C3_4 
REMARK    2  A    between atoms: C4_5  and  C5_6 
REMARK    3  A    between atoms: C7_8  and  N2_9 
REMARK    4  A    between atoms: C9_15  and  C10_16 
REMARK    5  A    between atoms: C9_15  and  C11_19 
REMARK    6  A    between atoms: C10_16  and  O1_17 
REMARK    7  A    between atoms: C11_19  and  O2_20 
ROOT
HETATM    1  C1  UNL     1     -10.558  -5.014 -20.169  1.00  0.00     0.312 C 
HETATM    2  N1  UNL     1     -10.997  -6.106 -19.354  1.00  0.00     0.109 N 
HETATM    3  C2  UNL     1     -10.716  -5.791 -17.938  1.00  0.00     0.267 C 
HETATM    4  C8  UNL     1     -12.031  -6.386 -17.605  1.00  0.00     0.162 C 
HETATM    5 CL1  UNL     1     -13.010  -5.400 -16.473  1.00  0.00    -0.119 Cl
HETATM    6  C9  UNL     1     -12.414  -6.155 -19.058  1.00  0.00     0.220 C 
ENDROOT
BRANCH   3   7
HETATM    7  C3  UNL     1      -9.480  -6.463 -17.537  1.00  0.00     0.006 C 
HETATM    8  C4  UNL     1      -9.158  -6.879 -16.354  1.00  0.00    -0.022 C 
BRANCH   8   9
HETATM    9  C5  UNL     1      -7.892  -7.552 -16.019  1.00  0.00     0.040 A 
HETATM   10  C6  UNL     1      -7.642  -7.793 -14.528  1.00  0.00     0.044 A 
HETATM   11  C7  UNL     1      -6.769  -6.854 -15.386  1.00  0.00     0.191 A 
BRANCH  11  12
HETATM   12  N2  UNL     1      -5.411  -7.355 -15.508  1.00  0.00    -0.074 N 
ATOM     13  H23 UNL     1      -5.004  -7.397 -14.574  1.00  0.00     0.274 HD
ATOM     14  H22 UNL     1      -5.459  -8.342 -15.761  1.00  0.00     0.274 HD
ATOM     15  H21 UNL     1      -4.737  -6.903 -16.127  1.00  0.00     0.274 HD
ENDBRANCH  11  12
ENDBRANCH   8   9
ENDBRANCH   3   7
BRANCH   6  16
HETATM   16  C10 UNL     1     -13.191  -4.909 -19.308  1.00  0.00     0.210 C 
BRANCH  16  17
HETATM   17  O1  UNL     1     -14.556  -5.146 -19.198  1.00  0.00    -0.398 OA
ATOM     18  H1  UNL     1     -15.028  -4.752 -19.922  1.00  0.00     0.209 HD
ENDBRANCH  16  17
ENDBRANCH   6  16
BRANCH   6  19
HETATM   19  C11 UNL     1     -13.039  -7.402 -19.623  1.00  0.00     0.210 C 
BRANCH  19  20
HETATM   20  O2  UNL     1     -13.770  -7.187 -20.784  1.00  0.00    -0.398 OA
ATOM     21  H2  UNL     1     -14.149  -6.317 -20.843  1.00  0.00     0.209 HD
ENDBRANCH  19  20
ENDBRANCH   6  19
TORSDOF 7
ENDMDL
MODEL 3
REMARK VINA RESULT: -6.512810771      0.980      1.150
REMARK  7 active torsions:
REMARK  status: ('A' for Active; 'I' for Inactive)
REMARK    1  A    between atoms: C2_3  and  C3_4 
REMARK    2  A    between atoms: C4_5  and  C5_6 
REMARK    3  A    between atoms: C7_8  and  N2_9 
REMARK    4  A    between atoms: C9_15  and  C10_16 
REMARK    5  A    between atoms: C9_15  and  C11_19 
REMARK    6  A    between atoms: C10_16  and  O1_17 
REMARK    7  A    between atoms: C11_19  and  O2_20 
ROOT
HETATM    1  C1  UNL     1     -13.032  -5.336 -16.778  1.00  0.00     0.312 C 
HETATM    2  N1  UNL     1     -11.910  -5.444 -17.660  1.00  0.00     0.109 N 
HETATM    3  C2  UNL     1     -11.627  -6.873 -17.904  1.00  0.00     0.267 C 
HETATM    4  C8  UNL     1     -11.371  -6.520 -19.320  1.00  0.00     0.162 C 
HETATM    5 CL1  UNL     1     -12.157  -7.621 -20.497  1.00  0.00    -0.119 Cl
HETATM    6  C9  UNL     1     -12.184  -5.260 -19.070  1.00  0.00     0.220 C 
ENDROOT
BRANCH   3   7
HETATM    7  C3  UNL     1     -10.525  -7.295 -17.039  1.00  0.00     0.006 C 
HETATM    8  C4  UNL     1      -9.264  -7.041 -17.190  1.00  0.00    -0.022 C 
BRANCH   8   9
HETATM    9  C5  UNL     1      -8.204  -7.499 -16.277  1.00  0.00     0.040 A 
HETATM   10  C6  UNL     1      -8.364  -7.085 -14.812  1.00  0.00     0.044 A 
HETATM   11  C7  UNL     1      -7.206  -6.591 -15.704  1.00  0.00     0.191 A 
BRANCH  11  12
HETATM   12  N2  UNL     1      -5.925  -7.088 -15.233  1.00  0.00    -0.074 N 
ATOM     13  H23 UNL     1      -5.536  -7.694 -15.955  1.00  0.00     0.274 HD
ATOM     14  H22 UNL     1      -5.264  -6.310 -15.233  1.00  0.00     0.274 HD
ATOM     15  H21 UNL     1      -5.845  -7.570 -14.338  1.00  0.00     0.274 HD
ENDBRANCH  11  12
ENDBRANCH   8   9
ENDBRANCH   3   7
BRANCH   6  16
HETATM   16  C10 UNL     1     -13.611  -5.345 -19.489  1.00  0.00     0.210 C 
BRANCH  16  17
HETATM   17  O1  UNL     1     -13.984  -4.217 -20.208  1.00  0.00    -0.398 OA
ATOM     18  H1  UNL     1     -13.341  -4.013 -20.877  1.00  0.00     0.209 HD
ENDBRANCH  16  17
ENDBRANCH   6  16
BRANCH   6  19
HETATM   19  C11 UNL     1     -11.447  -4.065 -19.612  1.00  0.00     0.210 C 
BRANCH  19  20
HETATM   20  O2  UNL     1     -11.860  -2.857 -19.066  1.00  0.00    -0.398 OA
ATOM     21  H2  UNL     1     -12.161  -2.227 -19.711  1.00  0.00     0.209 HD
ENDBRANCH  19  20
ENDBRANCH   6  19
TORSDOF 7
ENDMDL
MODEL 4
REMARK VINA RESULT: -6.236468428      1.631      2.112
REMARK  7 active torsions:
REMARK  status: ('A' for Active; 'I' for Inactive)
REMARK    1  A    between atoms: C2_3  and  C3_4 
REMARK    2  A    between atoms: C4_5  and  C5_6 
REMARK    3  A    between atoms: C7_8  and  N2_9 
REMARK    4  A    between atoms: C9_15  and  C10_16 
REMARK    5  A    between atoms: C9_15  and  C11_19 
REMARK    6  A    between atoms: C10_16  and  O1_17 
REMARK    7  A    between atoms: C11_19  and  O2_20 
ROOT
HETATM    1  C1  UNL     1     -11.583  -8.313 -19.547  1.00  0.00     0.312 C 
HETATM    2  N1  UNL     1     -11.578  -7.036 -18.901  1.00  0.00     0.109 N 
HETATM    3  C2  UNL     1     -10.375  -6.289 -19.326  1.00  0.00     0.267 C 
HETATM    4  C8  UNL     1     -11.224  -5.077 -19.394  1.00  0.00     0.162 C 
HETATM    5 CL1  UNL     1     -10.989  -4.109 -20.884  1.00  0.00    -0.119 Cl
HETATM    6  C9  UNL     1     -12.417  -6.015 -19.493  1.00  0.00     0.220 C 
ENDROOT
BRANCH   3   7
HETATM    7  C3  UNL     1      -9.349  -6.412 -18.291  1.00  0.00     0.006 C 
HETATM    8  C4  UNL     1      -9.526  -6.472 -17.009  1.00  0.00    -0.022 C 
BRANCH   8   9
HETATM    9  C5  UNL     1      -8.442  -6.595 -16.019  1.00  0.00     0.040 A 
HETATM   10  C6  UNL     1      -7.232  -7.424 -16.460  1.00  0.00     0.044 A 
HETATM   11  C7  UNL     1      -8.163  -7.842 -15.303  1.00  0.00     0.191 A 
BRANCH  11  12
HETATM   12  N2  UNL     1      -7.464  -7.834 -14.029  1.00  0.00    -0.074 N 
ATOM     13  H23 UNL     1      -6.466  -7.932 -14.215  1.00  0.00     0.274 HD
ATOM     14  H22 UNL     1      -7.514  -6.890 -13.646  1.00  0.00     0.274 HD
ATOM     15  H21 UNL     1      -7.714  -8.489 -13.288  1.00  0.00     0.274 HD
ENDBRANCH  11  12
ENDBRANCH   8   9
ENDBRANCH   3   7
BRANCH   6  16
HETATM   16  C10 UNL     1     -12.899  -6.268 -20.879  1.00  0.00     0.210 C 
BRANCH  16  17
HETATM   17  O1  UNL     1     -14.058  -7.032 -20.869  1.00  0.00    -0.398 OA
ATOM     18  H1  UNL     1     -13.995  -7.737 -20.235  1.00  0.00     0.209 HD
ENDBRANCH  16  17
ENDBRANCH   6  16
BRANCH   6  19
HETATM   19  C11 UNL     1     -13.489  -5.575 -18.532  1.00  0.00     0.210 C 
BRANCH  19  20
HETATM   20  O2  UNL     1     -14.605  -5.025 -19.151  1.00  0.00    -0.398 OA
ATOM     21  H2  UNL     1     -14.407  -4.562 -19.957  1.00  0.00     0.209 HD
ENDBRANCH  19  20
ENDBRANCH   6  19
TORSDOF 7
ENDMDL
MODEL 5
REMARK VINA RESULT: -6.101889696      1.521      1.653
REMARK  7 active torsions:
REMARK  status: ('A' for Active; 'I' for Inactive)
REMARK    1  A    between atoms: C2_3  and  C3_4 
REMARK    2  A    between atoms: C4_5  and  C5_6 
REMARK    3  A    between atoms: C7_8  and  N2_9 
REMARK    4  A    between atoms: C9_15  and  C10_16 
REMARK    5  A    between atoms: C9_15  and  C11_19 
REMARK    6  A    between atoms: C10_16  and  O1_17 
REMARK    7  A    between atoms: C11_19  and  O2_20 
ROOT
HETATM    1  C1  UNL     1     -12.248  -4.725 -17.916  1.00  0.00     0.312 C 
HETATM    2  N1  UNL     1     -11.387  -5.401 -18.838  1.00  0.00     0.109 N 
HETATM    3  C2  UNL     1     -11.080  -6.746 -18.310  1.00  0.00     0.267 C 
HETATM    4  C8  UNL     1     -11.221  -7.257 -19.694  1.00  0.00     0.162 C 
HETATM    5 CL1  UNL     1     -12.206  -8.749 -19.820  1.00  0.00    -0.119 Cl
HETATM    6  C9  UNL     1     -12.026  -6.002 -19.990  1.00  0.00     0.220 C 
ENDROOT
BRANCH   3   7
HETATM    7  C3  UNL     1      -9.766  -6.717 -17.667  1.00  0.00     0.006 C 
HETATM    8  C4  UNL     1      -9.498  -6.912 -16.415  1.00  0.00    -0.022 C 
BRANCH   8   9
HETATM    9  C5  UNL     1      -8.146  -6.867 -15.832  1.00  0.00     0.040 A 
HETATM   10  C6  UNL     1      -7.292  -8.120 -16.041  1.00  0.00     0.044 A 
HETATM   11  C7  UNL     1      -7.768  -7.648 -14.652  1.00  0.00     0.191 A 
BRANCH  11  12
HETATM   12  N2  UNL     1      -6.649  -7.247 -13.815  1.00  0.00    -0.074 N 
ATOM     13  H23 UNL     1      -5.816  -7.202 -14.401  1.00  0.00     0.274 HD
ATOM     14  H22 UNL     1      -6.780  -6.268 -13.560  1.00  0.00     0.274 HD
ATOM     15  H21 UNL     1      -6.414  -7.765 -12.969  1.00  0.00     0.274 HD
ENDBRANCH  11  12
ENDBRANCH   8   9
ENDBRANCH   3   7
BRANCH   6  16
HETATM   16  C10 UNL     1     -13.504  -6.177 -19.917  1.00  0.00     0.210 C 
BRANCH  16  17
HETATM   17  O1  UNL     1     -14.143  -5.401 -20.876  1.00  0.00    -0.398 OA
ATOM     18  H1  UNL     1     -15.040  -5.219 -20.623  1.00  0.00     0.209 HD
ENDBRANCH  16  17
ENDBRANCH   6  16
BRANCH   6  19
HETATM   19  C11 UNL     1     -11.537  -5.374 -21.267  1.00  0.00     0.210 C 
BRANCH  19  20
HETATM   20  O2  UNL     1     -11.844  -6.108 -22.406  1.00  0.00    -0.398 OA
ATOM     21  H2  UNL     1     -11.841  -7.048 -22.269  1.00  0.00     0.209 HD
ENDBRANCH  19  20
ENDBRANCH   6  19
TORSDOF 7
ENDMDL
