MODEL 1
REMARK VINA RESULT: -6.453058035      0.000      0.000
REMARK  7 active torsions:
REMARK  status: ('A' for Active; 'I' for Inactive)
REMARK    1  A    between atoms: C2_2  and  N1_3 
REMARK    2  A    between atoms: N1_3  and  C3_4 
REMARK    3  A    between atoms: N1_3  and  C5_7 
REMARK    4  A    between atoms: C3_4  and  C4_5 
REMARK    5  A    between atoms: C6_8  and  O1_9 
REMARK    6  A    between atoms: C9_13  and  O2_14 
REMARK    7  A    between atoms: C10_16  and  O3_17 
ROOT
HETATM    1  C5  UNL     1      -5.220  -7.743 -15.190  1.00  0.00     0.143 C 
HETATM    2  C6  UNL     1      -6.060  -8.171 -14.028  1.00  0.00     0.143 C 
HETATM    3  C7  UNL     1      -7.522  -8.010 -14.174  1.00  0.00     0.036 C 
HETATM    4  C8  UNL     1      -8.043  -7.142 -15.239  1.00  0.00     0.037 C 
HETATM    5  C9  UNL     1      -7.113  -6.812 -16.353  1.00  0.00     0.149 C 
HETATM    6  C10 UNL     1      -6.051  -7.913 -16.455  1.00  0.00     0.172 C 
ENDROOT
BRANCH   1   7
HETATM    7  N1  UNL     1      -3.961  -8.333 -15.342  1.00  0.00    -0.383 N 
BRANCH   7   8
HETATM    8  C2  UNL     1      -2.911  -8.017 -14.471  1.00  0.00     0.054 C 
HETATM    9  C1  UNL     1      -2.525  -9.034 -13.446  1.00  0.00     0.054 C 
ENDBRANCH   7   8
BRANCH   7  10
HETATM   10  C3  UNL     1      -3.900  -9.696 -15.745  1.00  0.00     0.137 C 
BRANCH  10  11
HETATM   11  C4  UNL     1      -2.869  -9.965 -16.818  1.00  0.00     0.134 C 
HETATM   12 CL1  UNL     1      -3.655 -10.536 -18.326  1.00  0.00    -0.129 Cl
ENDBRANCH  10  11
ENDBRANCH   7  10
ENDBRANCH   1   7
BRANCH   2  13
HETATM   13  O1  UNL     1      -5.765  -9.511 -13.748  1.00  0.00    -0.393 OA
ATOM     14  H1  UNL     1      -6.229  -9.756 -12.956  1.00  0.00     0.210 HD
ENDBRANCH   2  13
BRANCH   6  15
HETATM   15  O3  UNL     1      -5.323  -7.626 -17.600  1.00  0.00    -0.391 OA
ATOM     16  H3  UNL     1      -5.413  -6.717 -17.862  1.00  0.00     0.210 HD
ENDBRANCH   6  15
BRANCH   5  17
HETATM   17  O2  UNL     1      -7.782  -6.642 -17.565  1.00  0.00    -0.393 OA
ATOM     18  H2  UNL     1      -7.313  -6.063 -18.156  1.00  0.00     0.210 HD
ENDBRANCH   5  17
TORSDOF 7
ENDMDL
MODEL 2
REMARK VINA RESULT: -6.346114216      5.184      7.343
REMARK  7 active torsions:
REMARK  status: ('A' for Active; 'I' for Inactive)
REMARK    1  A    between atoms: C2_2  and  N1_3 
REMARK    2  A    between atoms: N1_3  and  C3_4 
REMARK    3  A    between atoms: N1_3  and  C5_7 
REMARK    4  A    between atoms: C3_4  and  C4_5 
REMARK    5  A    between atoms: C6_8  and  O1_9 
REMARK    6  A    between atoms: C9_13  and  O2_14 
REMARK    7  A    between atoms: C10_16  and  O3_17 
ROOT
HETATM    1  C5  UNL     1     -10.439  -6.969 -17.860  1.00  0.00     0.143 C 
HETATM    2  C6  UNL     1     -11.125  -6.971 -16.531  1.00  0.00     0.143 C 
HETATM    3  C7  UNL     1     -10.259  -6.853 -15.339  1.00  0.00     0.036 C 
HETATM    4  C8  UNL     1      -8.817  -7.102 -15.476  1.00  0.00     0.037 C 
HETATM    5  C9  UNL     1      -8.252  -7.045 -16.852  1.00  0.00     0.149 C 
HETATM    6  C10 UNL     1      -9.154  -6.162 -17.722  1.00  0.00     0.172 C 
ENDROOT
BRANCH   1   7
HETATM    7  N1  UNL     1     -11.170  -6.548 -18.976  1.00  0.00    -0.383 N 
BRANCH   7   8
HETATM    8  C2  UNL     1     -10.888  -5.326 -19.600  1.00  0.00     0.054 C 
HETATM    9  C1  UNL     1     -11.863  -4.208 -19.415  1.00  0.00     0.054 C 
ENDBRANCH   7   8
BRANCH   7  10
HETATM   10  C3  UNL     1     -11.574  -7.527 -19.925  1.00  0.00     0.137 C 
BRANCH  10  11
HETATM   11  C4  UNL     1     -13.067  -7.762 -19.955  1.00  0.00     0.134 C 
HETATM   12 CL1  UNL     1     -13.845  -6.749 -21.215  1.00  0.00    -0.129 Cl
ENDBRANCH  10  11
ENDBRANCH   7  10
ENDBRANCH   1   7
BRANCH   2  13
HETATM   13  O1  UNL     1     -12.066  -5.934 -16.526  1.00  0.00    -0.393 OA
ATOM     14  H1  UNL     1     -12.514  -5.946 -15.688  1.00  0.00     0.210 HD
ENDBRANCH   2  13
BRANCH   6  15
HETATM   15  O3  UNL     1      -8.491  -6.027 -18.932  1.00  0.00    -0.391 OA
ATOM     16  H3  UNL     1      -8.660  -5.186 -19.340  1.00  0.00     0.210 HD
ENDBRANCH   6  15
BRANCH   5  17
HETATM   17  O2  UNL     1      -6.935  -6.587 -16.863  1.00  0.00    -0.393 OA
ATOM     18  H2  UNL     1      -6.826  -5.792 -16.354  1.00  0.00     0.210 HD
ENDBRANCH   5  17
TORSDOF 7
ENDMDL
MODEL 3
REMARK VINA RESULT: -6.343958474      6.658      8.955
REMARK  7 active torsions:
REMARK  status: ('A' for Active; 'I' for Inactive)
REMARK    1  A    between atoms: C2_2  and  N1_3 
REMARK    2  A    between atoms: N1_3  and  C3_4 
REMARK    3  A    between atoms: N1_3  and  C5_7 
REMARK    4  A    between atoms: C3_4  and  C4_5 
REMARK    5  A    between atoms: C6_8  and  O1_9 
REMARK    6  A    between atoms: C9_13  and  O2_14 
REMARK    7  A    between atoms: C10_16  and  O3_17 
ROOT
HETATM    1  C5  UNL     1     -12.253  -5.560 -18.856  1.00  0.00     0.143 C 
HETATM    2  C6  UNL     1     -12.698  -5.918 -17.473  1.00  0.00     0.143 C 
HETATM    3  C7  UNL     1     -11.665  -6.458 -16.565  1.00  0.00     0.036 C 
HETATM    4  C8  UNL     1     -10.400  -6.947 -17.131  1.00  0.00     0.037 C 
HETATM    5  C9  UNL     1     -10.060  -6.496 -18.508  1.00  0.00     0.149 C 
HETATM    6  C10 UNL     1     -10.782  -5.172 -18.787  1.00  0.00     0.172 C 
ENDROOT
BRANCH   1   7
HETATM    7  N1  UNL     1     -12.987  -4.595 -19.552  1.00  0.00    -0.383 N 
BRANCH   7   8
HETATM    8  C2  UNL     1     -12.438  -3.336 -19.830  1.00  0.00     0.054 C 
HETATM    9  C1  UNL     1     -12.979  -2.583 -21.001  1.00  0.00     0.054 C 
ENDBRANCH   7   8
BRANCH   7  10
HETATM   10  C3  UNL     1     -13.837  -5.026 -20.608  1.00  0.00     0.137 C 
BRANCH  10  11
HETATM   11  C4  UNL     1     -13.438  -6.358 -21.201  1.00  0.00     0.134 C 
HETATM   12 CL1  UNL     1     -12.229  -6.136 -22.507  1.00  0.00    -0.129 Cl
ENDBRANCH  10  11
ENDBRANCH   7  10
ENDBRANCH   1   7
BRANCH   2  13
HETATM   13  O1  UNL     1     -13.277  -4.781 -16.895  1.00  0.00    -0.393 OA
ATOM     14  H1  UNL     1     -13.188  -4.853 -15.952  1.00  0.00     0.210 HD
ENDBRANCH   2  13
BRANCH   6  15
HETATM   15  O3  UNL     1     -10.300  -4.735 -20.012  1.00  0.00    -0.391 OA
ATOM     16  H3  UNL     1      -9.362  -4.866 -20.094  1.00  0.00     0.210 HD
ENDBRANCH   6  15
BRANCH   5  17
HETATM   17  O2  UNL     1      -8.684  -6.371 -18.697  1.00  0.00    -0.393 OA
ATOM     18  H2  UNL     1      -8.271  -7.205 -18.889  1.00  0.00     0.210 HD
ENDBRANCH   5  17
TORSDOF 7
ENDMDL
MODEL 4
REMARK VINA RESULT: -6.315317442      4.931      7.146
REMARK  7 active torsions:
REMARK  status: ('A' for Active; 'I' for Inactive)
REMARK    1  A    between atoms: C2_2  and  N1_3 
REMARK    2  A    between atoms: N1_3  and  C3_4 
REMARK    3  A    between atoms: N1_3  and  C5_7 
REMARK    4  A    between atoms: C3_4  and  C4_5 
REMARK    5  A    between atoms: C6_8  and  O1_9 
REMARK    6  A    between atoms: C9_13  and  O2_14 
REMARK    7  A    between atoms: C10_16  and  O3_17 
ROOT
HETATM    1  C5  UNL     1     -10.270  -6.827 -17.352  1.00  0.00     0.143 C 
HETATM    2  C6  UNL     1     -10.686  -6.404 -15.978  1.00  0.00     0.143 C 
HETATM    3  C7  UNL     1      -9.623  -6.357 -14.951  1.00  0.00     0.036 C 
HETATM    4  C8  UNL     1      -8.351  -7.046 -15.207  1.00  0.00     0.037 C 
HETATM    5  C9  UNL     1      -8.044  -7.388 -16.622  1.00  0.00     0.149 C 
HETATM    6  C10 UNL     1      -8.812  -6.431 -17.541  1.00  0.00     0.172 C 
ENDROOT
BRANCH   1   7
HETATM    7  N1  UNL     1     -11.045  -6.395 -18.433  1.00  0.00    -0.383 N 
BRANCH   7   8
HETATM    8  C2  UNL     1     -12.271  -7.006 -18.727  1.00  0.00     0.054 C 
HETATM    9  C1  UNL     1     -12.274  -8.113 -19.731  1.00  0.00     0.054 C 
ENDBRANCH   7   8
BRANCH   7  10
HETATM   10  C3  UNL     1     -11.085  -5.002 -18.720  1.00  0.00     0.137 C 
BRANCH  10  11
HETATM   11  C4  UNL     1     -10.863  -4.678 -20.179  1.00  0.00     0.134 C 
HETATM   12 CL1  UNL     1     -12.007  -3.411 -20.730  1.00  0.00    -0.129 Cl
ENDBRANCH  10  11
ENDBRANCH   7  10
ENDBRANCH   1   7
BRANCH   2  13
HETATM   13  O1  UNL     1     -11.294  -5.146 -16.075  1.00  0.00    -0.393 OA
ATOM     14  H1  UNL     1     -11.506  -4.853 -15.197  1.00  0.00     0.210 HD
ENDBRANCH   2  13
BRANCH   6  15
HETATM   15  O3  UNL     1      -8.361  -6.702 -18.825  1.00  0.00    -0.391 OA
ATOM     16  H3  UNL     1      -9.073  -6.921 -19.415  1.00  0.00     0.210 HD
ENDBRANCH   6  15
BRANCH   5  17
HETATM   17  O2  UNL     1      -6.675  -7.355 -16.889  1.00  0.00    -0.393 OA
ATOM     18  H2  UNL     1      -6.385  -8.119 -17.374  1.00  0.00     0.210 HD
ENDBRANCH   5  17
TORSDOF 7
ENDMDL
MODEL 5
REMARK VINA RESULT: -6.238514935      1.656      2.250
REMARK  7 active torsions:
REMARK  status: ('A' for Active; 'I' for Inactive)
REMARK    1  A    between atoms: C2_2  and  N1_3 
REMARK    2  A    between atoms: N1_3  and  C3_4 
REMARK    3  A    between atoms: N1_3  and  C5_7 
REMARK    4  A    between atoms: C3_4  and  C4_5 
REMARK    5  A    between atoms: C6_8  and  O1_9 
REMARK    6  A    between atoms: C9_13  and  O2_14 
REMARK    7  A    between atoms: C10_16  and  O3_17 
ROOT
HETATM    1  C5  UNL     1      -5.774  -7.937 -15.199  1.00  0.00     0.143 C 
HETATM    2  C6  UNL     1      -6.712  -8.304 -14.092  1.00  0.00     0.143 C 
HETATM    3  C7  UNL     1      -8.125  -7.907 -14.264  1.00  0.00     0.036 C 
HETATM    4  C8  UNL     1      -8.466  -6.898 -15.277  1.00  0.00     0.037 C 
HETATM    5  C9  UNL     1      -7.457  -6.644 -16.340  1.00  0.00     0.149 C 
HETATM    6  C10 UNL     1      -6.575  -7.889 -16.493  1.00  0.00     0.172 C 
ENDROOT
BRANCH   1   7
HETATM    7  N1  UNL     1      -4.617  -8.705 -15.360  1.00  0.00    -0.383 N 
BRANCH   7   8
HETATM    8  C2  UNL     1      -4.594  -9.791 -16.244  1.00  0.00     0.054 C 
HETATM    9  C1  UNL     1      -3.367  -9.988 -17.075  1.00  0.00     0.054 C 
ENDBRANCH   7   8
BRANCH   7  10
HETATM   10  C3  UNL     1      -3.358  -8.043 -15.329  1.00  0.00     0.137 C 
BRANCH  10  11
HETATM   11  C4  UNL     1      -2.539  -8.357 -14.099  1.00  0.00     0.134 C 
HETATM   12 CL1  UNL     1      -3.603  -8.686 -12.693  1.00  0.00    -0.129 Cl
ENDBRANCH  10  11
ENDBRANCH   7  10
ENDBRANCH   1   7
BRANCH   2  13
HETATM   13  O1  UNL     1      -6.638  -9.690 -13.902  1.00  0.00    -0.393 OA
ATOM     14  H1  UNL     1      -6.172  -9.852 -13.090  1.00  0.00     0.210 HD
ENDBRANCH   2  13
BRANCH   6  15
HETATM   15  O3  UNL     1      -5.769  -7.643 -17.595  1.00  0.00    -0.391 OA
ATOM     16  H3  UNL     1      -6.259  -7.672 -18.409  1.00  0.00     0.210 HD
ENDBRANCH   6  15
BRANCH   5  17
HETATM   17  O2  UNL     1      -8.046  -6.290 -17.553  1.00  0.00    -0.393 OA
ATOM     18  H2  UNL     1      -7.473  -5.750 -18.087  1.00  0.00     0.210 HD
ENDBRANCH   5  17
TORSDOF 7
ENDMDL
