MODEL 1
REMARK VINA RESULT: -7.538538745      0.000      0.000
REMARK  7 active torsions:
REMARK  status: ('A' for Active; 'I' for Inactive)
REMARK    1  A    between atoms: C3_3  and  C4_4 
REMARK    2  A    between atoms: C4_4  and  C5_5 
REMARK    3  A    between atoms: C5_5  and  N1_6 
REMARK    4  A    between atoms: N1_6  and  C6_8 
REMARK    5  A    between atoms: C7_11  and  N3_12 
REMARK    6  A    between atoms: C9_17  and  N5_18 
REMARK    7  A    between atoms: N5_18  and  C10_20 
ROOT
HETATM    1  C1  UNL     1      -2.164  -7.028  -5.305  1.00  0.00     0.012 C 
HETATM    2  C2  UNL     1      -2.249  -6.523  -6.394  1.00  0.00    -0.117 C 
HETATM    3  C3  UNL     1      -2.364  -5.933  -7.717  1.00  0.00     0.094 C 
ENDROOT
BRANCH   3   4
HETATM    4  C4  UNL     1      -3.179  -6.865  -8.599  1.00  0.00     0.032 C 
BRANCH   4   5
HETATM    5  C5  UNL     1      -4.456  -6.136  -8.953  1.00  0.00     0.139 C 
BRANCH   5   6
HETATM    6  N1  UNL     1      -5.500  -6.427  -8.027  1.00  0.00    -0.225 N 
ATOM      7  H1  UNL     1      -5.302  -6.294  -7.035  1.00  0.00     0.177 HD
BRANCH   6   8
HETATM    8  C6  UNL     1      -6.673  -6.846  -8.348  1.00  0.00     0.707 A 
HETATM    9  N2  UNL     1      -7.652  -6.997  -7.440  1.00  0.00    -0.022 N 
HETATM   10  C7  UNL     1      -8.881  -7.436  -7.777  1.00  0.00     0.706 A 
ATOM     11  H2  UNL     1      -7.459  -6.773  -6.463  1.00  0.00     0.203 HD
HETATM   12  N4  UNL     1      -9.143  -7.736  -9.080  1.00  0.00    -0.022 N 
HETATM   13  C9  UNL     1      -8.180  -7.591 -10.004  1.00  0.00     0.707 A 
ATOM     14  H4  UNL     1     -10.068  -8.069  -9.353  1.00  0.00     0.203 HD
HETATM   15  N6  UNL     1      -6.985  -7.156  -9.622  1.00  0.00    -0.022 N 
ATOM     16  H6  UNL     1      -6.262  -7.051 -10.333  1.00  0.00     0.203 HD
BRANCH  10  17
HETATM   17  N3  UNL     1      -9.794  -7.569  -6.881  1.00  0.00    -0.229 N 
HETATM   18  C8  UNL     1     -10.637  -8.717  -6.751  1.00  0.00     0.165 C 
ATOM     19  H3  UNL     1      -9.925  -6.805  -6.219  1.00  0.00     0.177 HD
ENDBRANCH  10  17
BRANCH  13  20
HETATM   20  N5  UNL     1      -8.452  -7.880 -11.225  1.00  0.00    -0.225 N 
ATOM     21  H5  UNL     1      -8.095  -7.255 -11.947  1.00  0.00     0.177 HD
BRANCH  20  22
HETATM   22  C10 UNL     1      -9.216  -9.009 -11.649  1.00  0.00     0.133 C 
HETATM   23  C11 UNL     1     -10.685  -8.616 -11.627  1.00  0.00     0.027 C 
ENDBRANCH  20  22
ENDBRANCH  13  20
ENDBRANCH   6   8
ENDBRANCH   5   6
ENDBRANCH   4   5
ENDBRANCH   3   4
TORSDOF 7
ENDMDL
MODEL 2
REMARK VINA RESULT: -7.384239388      0.482      2.899
REMARK  7 active torsions:
REMARK  status: ('A' for Active; 'I' for Inactive)
REMARK    1  A    between atoms: C3_3  and  C4_4 
REMARK    2  A    between atoms: C4_4  and  C5_5 
REMARK    3  A    between atoms: C5_5  and  N1_6 
REMARK    4  A    between atoms: N1_6  and  C6_8 
REMARK    5  A    between atoms: C7_11  and  N3_12 
REMARK    6  A    between atoms: C9_17  and  N5_18 
REMARK    7  A    between atoms: N5_18  and  C10_20 
ROOT
HETATM    1  C1  UNL     1      -2.378  -7.629  -5.330  1.00  0.00     0.012 C 
HETATM    2  C2  UNL     1      -2.494  -6.892  -6.275  1.00  0.00    -0.117 C 
HETATM    3  C3  UNL     1      -2.641  -6.020  -7.429  1.00  0.00     0.094 C 
ENDROOT
BRANCH   3   4
HETATM    4  C4  UNL     1      -3.242  -6.821  -8.572  1.00  0.00     0.032 C 
BRANCH   4   5
HETATM    5  C5  UNL     1      -4.539  -6.143  -8.955  1.00  0.00     0.139 C 
BRANCH   5   6
HETATM    6  N1  UNL     1      -5.603  -6.518  -8.083  1.00  0.00    -0.225 N 
ATOM      7  H1  UNL     1      -5.441  -6.437  -7.080  1.00  0.00     0.177 HD
BRANCH   6   8
HETATM    8  C6  UNL     1      -6.751  -6.949  -8.468  1.00  0.00     0.707 A 
HETATM    9  N2  UNL     1      -7.028  -7.191  -9.762  1.00  0.00    -0.022 N 
HETATM   10  C7  UNL     1      -8.233  -7.642 -10.164  1.00  0.00     0.706 A 
ATOM     11  H2  UNL     1      -6.303  -7.027 -10.461  1.00  0.00     0.203 HD
HETATM   12  N4  UNL     1      -9.203  -7.863  -9.234  1.00  0.00    -0.022 N 
HETATM   13  C9  UNL     1      -8.948  -7.629  -7.937  1.00  0.00     0.707 A 
ATOM     14  H4  UNL     1     -10.119  -8.205  -9.522  1.00  0.00     0.203 HD
HETATM   15  N6  UNL     1      -7.746  -7.184  -7.590  1.00  0.00    -0.022 N 
ATOM     16  H6  UNL     1      -7.565  -7.010  -6.602  1.00  0.00     0.203 HD
BRANCH  10  17
HETATM   17  N3  UNL     1      -8.462  -7.862 -11.410  1.00  0.00    -0.229 N 
HETATM   18  C8  UNL     1      -9.658  -8.459 -11.919  1.00  0.00     0.165 C 
ATOM     19  H3  UNL     1      -7.742  -7.594 -12.081  1.00  0.00     0.177 HD
ENDBRANCH  10  17
BRANCH  13  20
HETATM   20  N5  UNL     1      -9.878  -7.845  -7.080  1.00  0.00    -0.225 N 
ATOM     21  H5  UNL     1      -9.848  -7.317  -6.208  1.00  0.00     0.177 HD
BRANCH  20  22
HETATM   22  C10 UNL     1     -10.954  -8.767  -7.253  1.00  0.00     0.133 C 
HETATM   23  C11 UNL     1     -10.628 -10.022  -6.459  1.00  0.00     0.027 C 
ENDBRANCH  20  22
ENDBRANCH  13  20
ENDBRANCH   6   8
ENDBRANCH   5   6
ENDBRANCH   4   5
ENDBRANCH   3   4
TORSDOF 7
ENDMDL
MODEL 3
REMARK VINA RESULT: -6.852253171      4.671      8.500
REMARK  7 active torsions:
REMARK  status: ('A' for Active; 'I' for Inactive)
REMARK    1  A    between atoms: C3_3  and  C4_4 
REMARK    2  A    between atoms: C4_4  and  C5_5 
REMARK    3  A    between atoms: C5_5  and  N1_6 
REMARK    4  A    between atoms: N1_6  and  C6_8 
REMARK    5  A    between atoms: C7_11  and  N3_12 
REMARK    6  A    between atoms: C9_17  and  N5_18 
REMARK    7  A    between atoms: N5_18  and  C10_20 
ROOT
HETATM    1  C1  UNL     1      -7.000  -7.213 -10.007  1.00  0.00     0.012 C 
HETATM    2  C2  UNL     1      -5.912  -6.894  -9.605  1.00  0.00    -0.117 C 
HETATM    3  C3  UNL     1      -4.605  -6.508  -9.098  1.00  0.00     0.094 C 
ENDROOT
BRANCH   3   4
HETATM    4  C4  UNL     1      -4.685  -6.387  -7.585  1.00  0.00     0.032 C 
BRANCH   4   5
HETATM    5  C5  UNL     1      -3.264  -6.354  -7.067  1.00  0.00     0.139 C 
BRANCH   5   6
HETATM    6  N1  UNL     1      -2.764  -5.021  -6.993  1.00  0.00    -0.225 N 
ATOM      7  H1  UNL     1      -2.510  -4.563  -7.868  1.00  0.00     0.177 HD
BRANCH   6   8
HETATM    8  C6  UNL     1      -2.611  -4.353  -5.905  1.00  0.00     0.707 A 
HETATM    9  N2  UNL     1      -3.014  -4.825  -4.713  1.00  0.00    -0.022 N 
HETATM   10  C7  UNL     1      -2.853  -4.124  -3.573  1.00  0.00     0.706 A 
ATOM     11  H2  UNL     1      -3.456  -5.744  -4.669  1.00  0.00     0.203 HD
HETATM   12  N4  UNL     1      -2.262  -2.897  -3.627  1.00  0.00    -0.022 N 
HETATM   13  C9  UNL     1      -1.851  -2.407  -4.807  1.00  0.00     0.707 A 
ATOM     14  H4  UNL     1      -2.133  -2.354  -2.774  1.00  0.00     0.203 HD
HETATM   15  N6  UNL     1      -2.033  -3.136  -5.902  1.00  0.00    -0.022 N 
ATOM     16  H6  UNL     1      -1.716  -2.752  -6.792  1.00  0.00     0.203 HD
BRANCH  10  17
HETATM   17  N3  UNL     1      -3.252  -4.607  -2.450  1.00  0.00    -0.229 N 
HETATM   18  C8  UNL     1      -2.670  -4.291  -1.182  1.00  0.00     0.165 C 
ATOM     19  H3  UNL     1      -4.035  -5.259  -2.464  1.00  0.00     0.177 HD
ENDBRANCH  10  17
BRANCH  13  20
HETATM   20  N5  UNL     1      -1.297  -1.250  -4.831  1.00  0.00    -0.225 N 
ATOM     21  H5  UNL     1      -0.763  -1.000  -5.663  1.00  0.00     0.177 HD
BRANCH  20  22
HETATM   22  C10 UNL     1      -1.371  -0.283  -3.782  1.00  0.00     0.133 C 
HETATM   23  C11 UNL     1      -1.257   1.097  -4.409  1.00  0.00     0.027 C 
ENDBRANCH  20  22
ENDBRANCH  13  20
ENDBRANCH   6   8
ENDBRANCH   5   6
ENDBRANCH   4   5
ENDBRANCH   3   4
TORSDOF 7
ENDMDL
MODEL 4
REMARK VINA RESULT: -6.851774475      3.493      7.516
REMARK  7 active torsions:
REMARK  status: ('A' for Active; 'I' for Inactive)
REMARK    1  A    between atoms: C3_3  and  C4_4 
REMARK    2  A    between atoms: C4_4  and  C5_5 
REMARK    3  A    between atoms: C5_5  and  N1_6 
REMARK    4  A    between atoms: N1_6  and  C6_8 
REMARK    5  A    between atoms: C7_11  and  N3_12 
REMARK    6  A    between atoms: C9_17  and  N5_18 
REMARK    7  A    between atoms: N5_18  and  C10_20 
ROOT
HETATM    1  C1  UNL     1      -7.638  -8.806 -10.864  1.00  0.00     0.012 C 
HETATM    2  C2  UNL     1      -7.320  -7.809 -10.269  1.00  0.00    -0.117 C 
HETATM    3  C3  UNL     1      -6.920  -6.618  -9.540  1.00  0.00     0.094 C 
ENDROOT
BRANCH   3   4
HETATM    4  C4  UNL     1      -5.721  -6.957  -8.669  1.00  0.00     0.032 C 
BRANCH   4   5
HETATM    5  C5  UNL     1      -4.531  -6.223  -9.246  1.00  0.00     0.139 C 
BRANCH   5   6
HETATM    6  N1  UNL     1      -3.319  -6.601  -8.597  1.00  0.00    -0.225 N 
ATOM      7  H1  UNL     1      -2.692  -7.231  -9.098  1.00  0.00     0.177 HD
BRANCH   6   8
HETATM    8  C6  UNL     1      -2.957  -6.205  -7.429  1.00  0.00     0.707 A 
HETATM    9  N2  UNL     1      -2.852  -7.050  -6.388  1.00  0.00    -0.022 N 
HETATM   10  C7  UNL     1      -2.472  -6.635  -5.163  1.00  0.00     0.706 A 
ATOM     11  H2  UNL     1      -3.067  -8.037  -6.530  1.00  0.00     0.203 HD
HETATM   12  N4  UNL     1      -2.184  -5.317  -4.970  1.00  0.00    -0.022 N 
HETATM   13  C9  UNL     1      -2.281  -4.456  -5.995  1.00  0.00     0.707 A 
ATOM     14  H4  UNL     1      -1.895  -4.986  -4.049  1.00  0.00     0.203 HD
HETATM   15  N6  UNL     1      -2.660  -4.914  -7.182  1.00  0.00    -0.022 N 
ATOM     16  H6  UNL     1      -2.730  -4.250  -7.953  1.00  0.00     0.203 HD
BRANCH  10  17
HETATM   17  N3  UNL     1      -2.383  -7.471  -4.191  1.00  0.00    -0.229 N 
HETATM   18  C8  UNL     1      -2.096  -8.864  -4.347  1.00  0.00     0.165 C 
ATOM     19  H3  UNL     1      -2.527  -7.118  -3.245  1.00  0.00     0.177 HD
ENDBRANCH  10  17
BRANCH  13  20
HETATM   20  N5  UNL     1      -2.004  -3.221  -5.787  1.00  0.00    -0.225 N 
ATOM     21  H5  UNL     1      -2.009  -2.595  -6.592  1.00  0.00     0.177 HD
BRANCH  20  22
HETATM   22  C10 UNL     1      -1.689  -2.654  -4.515  1.00  0.00     0.133 C 
HETATM   23  C11 UNL     1      -1.589  -1.146  -4.686  1.00  0.00     0.027 C 
ENDBRANCH  20  22
ENDBRANCH  13  20
ENDBRANCH   6   8
ENDBRANCH   5   6
ENDBRANCH   4   5
ENDBRANCH   3   4
TORSDOF 7
ENDMDL
MODEL 5
REMARK VINA RESULT: -6.835862297      4.200      8.548
REMARK  7 active torsions:
REMARK  status: ('A' for Active; 'I' for Inactive)
REMARK    1  A    between atoms: C3_3  and  C4_4 
REMARK    2  A    between atoms: C4_4  and  C5_5 
REMARK    3  A    between atoms: C5_5  and  N1_6 
REMARK    4  A    between atoms: N1_6  and  C6_8 
REMARK    5  A    between atoms: C7_11  and  N3_12 
REMARK    6  A    between atoms: C9_17  and  N5_18 
REMARK    7  A    between atoms: N5_18  and  C10_20 
ROOT
HETATM    1  C1  UNL     1      -7.250  -7.867 -10.458  1.00  0.00     0.012 C 
HETATM    2  C2  UNL     1      -6.934  -7.428  -9.383  1.00  0.00    -0.117 C 
HETATM    3  C3  UNL     1      -6.530  -6.894  -8.092  1.00  0.00     0.094 C 
ENDROOT
BRANCH   3   4
HETATM    4  C4  UNL     1      -5.057  -6.529  -8.154  1.00  0.00     0.032 C 
BRANCH   4   5
HETATM    5  C5  UNL     1      -4.626  -6.183  -6.746  1.00  0.00     0.139 C 
BRANCH   5   6
HETATM    6  N1  UNL     1      -3.422  -5.419  -6.740  1.00  0.00    -0.225 N 
ATOM      7  H1  UNL     1      -2.825  -5.472  -7.565  1.00  0.00     0.177 HD
BRANCH   6   8
HETATM    8  C6  UNL     1      -3.034  -4.667  -5.772  1.00  0.00     0.707 A 
HETATM    9  N2  UNL     1      -2.350  -3.528  -5.980  1.00  0.00    -0.022 N 
HETATM   10  C7  UNL     1      -1.943  -2.740  -4.964  1.00  0.00     0.706 A 
ATOM     11  H2  UNL     1      -2.132  -3.251  -6.937  1.00  0.00     0.203 HD
HETATM   12  N4  UNL     1      -2.233  -3.107  -3.684  1.00  0.00    -0.022 N 
HETATM   13  C9  UNL     1      -2.916  -4.239  -3.454  1.00  0.00     0.707 A 
ATOM     14  H4  UNL     1      -1.933  -2.522  -2.905  1.00  0.00     0.203 HD
HETATM   15  N6  UNL     1      -3.294  -4.982  -4.487  1.00  0.00    -0.022 N 
ATOM     16  H6  UNL     1      -3.812  -5.840  -4.299  1.00  0.00     0.203 HD
BRANCH  10  17
HETATM   17  N3  UNL     1      -1.291  -1.658  -5.201  1.00  0.00    -0.229 N 
HETATM   18  C8  UNL     1      -1.355  -0.482  -4.389  1.00  0.00     0.165 C 
ATOM     19  H3  UNL     1      -0.688  -1.637  -6.023  1.00  0.00     0.177 HD
ENDBRANCH  10  17
BRANCH  13  20
HETATM   20  N5  UNL     1      -3.177  -4.562  -2.239  1.00  0.00    -0.225 N 
ATOM     21  H5  UNL     1      -4.158  -4.614  -1.966  1.00  0.00     0.177 HD
BRANCH  20  22
HETATM   22  C10 UNL     1      -2.199  -4.854  -1.240  1.00  0.00     0.133 C 
HETATM   23  C11 UNL     1      -1.715  -6.279  -1.460  1.00  0.00     0.027 C 
ENDBRANCH  20  22
ENDBRANCH  13  20
ENDBRANCH   6   8
ENDBRANCH   5   6
ENDBRANCH   4   5
ENDBRANCH   3   4
TORSDOF 7
ENDMDL
