MODEL 1
REMARK VINA RESULT: -6.487821999      0.000      0.000
REMARK  7 active torsions:
REMARK  status: ('A' for Active; 'I' for Inactive)
REMARK    1  A    between atoms: C2_2  and  C3_3 
REMARK    2  A    between atoms: C3_3  and  C4_4 
REMARK    3  A    between atoms: C4_4  and  C5_5 
REMARK    4  A    between atoms: C9_10  and  O1_11 
REMARK    5  A    between atoms: C10_13  and  O2_14 
REMARK    6  A    between atoms: C11_16  and  C12_17 
REMARK    7  A    between atoms: C12_17  and  O3_18 
ROOT
HETATM    1  C5  UNL     1      -2.616  -5.941  -6.531  1.00  0.00     0.169 C 
HETATM    2  C6  UNL     1      -3.984  -6.571  -6.221  1.00  0.00     0.072 C 
HETATM    3  C7  UNL     1      -4.167  -5.370  -5.340  1.00  0.00     0.276 C 
HETATM    4  N1  UNL     1      -3.129  -4.713  -6.102  1.00  0.00     0.101 N 
HETATM    5  C8  UNL     1      -2.335  -3.879  -5.294  1.00  0.00     0.307 C 
HETATM    6  C9  UNL     1      -1.570  -4.596  -4.213  1.00  0.00     0.175 C 
HETATM    7  C10 UNL     1      -0.752  -5.680  -4.853  1.00  0.00     0.157 C 
HETATM    8  C11 UNL     1      -1.511  -6.558  -5.793  1.00  0.00     0.079 C 
ENDROOT
BRANCH   1   9
HETATM    9  C4  UNL     1      -2.478  -5.959  -8.061  1.00  0.00     0.046 C 
BRANCH   9  10
HETATM   10  C3  UNL     1      -3.394  -6.929  -8.713  1.00  0.00     0.029 C 
BRANCH  10  11
HETATM   11  C2  UNL     1      -4.486  -6.166  -9.410  1.00  0.00    -0.037 C 
HETATM   12  C1  UNL     1      -5.619  -6.740  -9.694  1.00  0.00     0.007 C 
ENDBRANCH  10  11
ENDBRANCH   9  10
ENDBRANCH   1   9
BRANCH   8  13
HETATM   13  C12 UNL     1      -1.920  -7.806  -4.990  1.00  0.00     0.174 C 
BRANCH  13  14
HETATM   14  O3  UNL     1      -0.784  -8.123  -4.222  1.00  0.00    -0.400 OA
ATOM     15  H3  UNL     1      -0.772  -9.072  -4.191  1.00  0.00     0.209 HD
ENDBRANCH  13  14
ENDBRANCH   8  13
BRANCH   7  16
HETATM   16  O2  UNL     1       0.331  -5.069  -5.479  1.00  0.00    -0.392 OA
ATOM     17  H2  UNL     1       0.091  -4.165  -5.645  1.00  0.00     0.210 HD
ENDBRANCH   7  16
BRANCH   6  18
HETATM   18  O1  UNL     1      -0.689  -3.672  -3.640  1.00  0.00    -0.391 OA
ATOM     19  H1  UNL     1      -1.167  -3.207  -2.963  1.00  0.00     0.210 HD
ENDBRANCH   6  18
TORSDOF 7
ENDMDL
MODEL 2
REMARK VINA RESULT: -6.309619273      1.463      2.016
REMARK  7 active torsions:
REMARK  status: ('A' for Active; 'I' for Inactive)
REMARK    1  A    between atoms: C2_2  and  C3_3 
REMARK    2  A    between atoms: C3_3  and  C4_4 
REMARK    3  A    between atoms: C4_4  and  C5_5 
REMARK    4  A    between atoms: C9_10  and  O1_11 
REMARK    5  A    between atoms: C10_13  and  O2_14 
REMARK    6  A    between atoms: C11_16  and  C12_17 
REMARK    7  A    between atoms: C12_17  and  O3_18 
ROOT
HETATM    1  C5  UNL     1      -3.056  -5.643  -6.928  1.00  0.00     0.169 C 
HETATM    2  C6  UNL     1      -2.908  -7.166  -6.778  1.00  0.00     0.072 C 
HETATM    3  C7  UNL     1      -3.670  -6.961  -5.501  1.00  0.00     0.276 C 
HETATM    4  N1  UNL     1      -4.131  -5.700  -6.035  1.00  0.00     0.101 N 
HETATM    5  C8  UNL     1      -4.247  -4.718  -5.034  1.00  0.00     0.307 C 
HETATM    6  C9  UNL     1      -2.950  -4.356  -4.358  1.00  0.00     0.175 C 
HETATM    7  C10 UNL     1      -1.965  -3.948  -5.413  1.00  0.00     0.157 C 
HETATM    8  C11 UNL     1      -1.847  -4.903  -6.556  1.00  0.00     0.079 C 
ENDROOT
BRANCH   1   9
HETATM    9  C4  UNL     1      -3.560  -5.405  -8.360  1.00  0.00     0.046 C 
BRANCH   9  10
HETATM   10  C3  UNL     1      -3.938  -6.661  -9.056  1.00  0.00     0.029 C 
BRANCH  10  11
HETATM   11  C2  UNL     1      -5.378  -6.563  -9.476  1.00  0.00    -0.037 C 
HETATM   12  C1  UNL     1      -6.329  -6.967  -8.684  1.00  0.00     0.007 C 
ENDBRANCH  10  11
ENDBRANCH   9  10
ENDBRANCH   1   9
BRANCH   8  13
HETATM   13  C12 UNL     1      -0.637  -5.803  -6.250  1.00  0.00     0.174 C 
BRANCH  13  14
HETATM   14  O3  UNL     1       0.197  -5.012  -5.437  1.00  0.00    -0.400 OA
ATOM     15  H3  UNL     1       0.384  -4.243  -5.962  1.00  0.00     0.209 HD
ENDBRANCH  13  14
ENDBRANCH   8  13
BRANCH   7  16
HETATM   16  O2  UNL     1      -2.319  -2.671  -5.843  1.00  0.00    -0.392 OA
ATOM     17  H2  UNL     1      -2.652  -2.200  -5.089  1.00  0.00     0.210 HD
ENDBRANCH   7  16
BRANCH   6  18
HETATM   18  O1  UNL     1      -3.199  -3.243  -3.546  1.00  0.00    -0.391 OA
ATOM     19  H1  UNL     1      -2.358  -2.912  -3.253  1.00  0.00     0.210 HD
ENDBRANCH   6  18
TORSDOF 7
ENDMDL
MODEL 3
REMARK VINA RESULT: -6.181193964      2.522      4.681
REMARK  7 active torsions:
REMARK  status: ('A' for Active; 'I' for Inactive)
REMARK    1  A    between atoms: C2_2  and  C3_3 
REMARK    2  A    between atoms: C3_3  and  C4_4 
REMARK    3  A    between atoms: C4_4  and  C5_5 
REMARK    4  A    between atoms: C9_10  and  O1_11 
REMARK    5  A    between atoms: C10_13  and  O2_14 
REMARK    6  A    between atoms: C11_16  and  C12_17 
REMARK    7  A    between atoms: C12_17  and  O3_18 
ROOT
HETATM    1  C5  UNL     1      -2.578  -5.212  -6.250  1.00  0.00     0.169 C 
HETATM    2  C6  UNL     1      -1.099  -5.568  -6.478  1.00  0.00     0.072 C 
HETATM    3  C7  UNL     1      -1.499  -5.647  -7.923  1.00  0.00     0.276 C 
HETATM    4  N1  UNL     1      -2.655  -4.842  -7.597  1.00  0.00     0.101 N 
HETATM    5  C8  UNL     1      -3.783  -5.217  -8.350  1.00  0.00     0.307 C 
HETATM    6  C9  UNL     1      -4.260  -6.625  -8.107  1.00  0.00     0.175 C 
HETATM    7  C10 UNL     1      -4.503  -6.794  -6.636  1.00  0.00     0.157 C 
HETATM    8  C11 UNL     1      -3.378  -6.339  -5.764  1.00  0.00     0.079 C 
ENDROOT
BRANCH   1   9
HETATM    9  C4  UNL     1      -2.579  -3.966  -5.351  1.00  0.00     0.046 C 
BRANCH   9  10
HETATM   10  C3  UNL     1      -3.332  -4.166  -4.087  1.00  0.00     0.029 C 
BRANCH  10  11
HETATM   11  C2  UNL     1      -2.365  -4.113  -2.937  1.00  0.00    -0.037 C 
HETATM   12  C1  UNL     1      -1.641  -5.151  -2.630  1.00  0.00     0.007 C 
ENDBRANCH  10  11
ENDBRANCH   9  10
ENDBRANCH   1   9
BRANCH   8  13
HETATM   13  C12 UNL     1      -2.550  -7.592  -5.430  1.00  0.00     0.174 C 
BRANCH  13  14
HETATM   14  O3  UNL     1      -3.163  -8.128  -4.282  1.00  0.00    -0.400 OA
ATOM     15  H3  UNL     1      -3.560  -8.938  -4.578  1.00  0.00     0.209 HD
ENDBRANCH  13  14
ENDBRANCH   8  13
BRANCH   7  16
HETATM   16  O2  UNL     1      -5.691  -6.136  -6.331  1.00  0.00    -0.392 OA
ATOM     17  H2  UNL     1      -5.483  -5.218  -6.204  1.00  0.00     0.210 HD
ENDBRANCH   7  16
BRANCH   6  18
HETATM   18  O1  UNL     1      -5.486  -6.770  -8.766  1.00  0.00    -0.391 OA
ATOM     19  H1  UNL     1      -6.171  -6.583  -8.135  1.00  0.00     0.210 HD
ENDBRANCH   6  18
TORSDOF 7
ENDMDL
MODEL 4
REMARK VINA RESULT: -6.094762522      1.577      3.051
REMARK  7 active torsions:
REMARK  status: ('A' for Active; 'I' for Inactive)
REMARK    1  A    between atoms: C2_2  and  C3_3 
REMARK    2  A    between atoms: C3_3  and  C4_4 
REMARK    3  A    between atoms: C4_4  and  C5_5 
REMARK    4  A    between atoms: C9_10  and  O1_11 
REMARK    5  A    between atoms: C10_13  and  O2_14 
REMARK    6  A    between atoms: C11_16  and  C12_17 
REMARK    7  A    between atoms: C12_17  and  O3_18 
ROOT
HETATM    1  C5  UNL     1      -3.157  -5.706  -6.036  1.00  0.00     0.169 C 
HETATM    2  C6  UNL     1      -2.776  -5.078  -7.387  1.00  0.00     0.072 C 
HETATM    3  C7  UNL     1      -1.598  -6.004  -7.313  1.00  0.00     0.276 C 
HETATM    4  N1  UNL     1      -2.340  -6.795  -6.358  1.00  0.00     0.101 N 
HETATM    5  C8  UNL     1      -1.503  -7.344  -5.369  1.00  0.00     0.307 C 
HETATM    6  C9  UNL     1      -0.800  -6.328  -4.508  1.00  0.00     0.175 C 
HETATM    7  C10 UNL     1      -1.834  -5.421  -3.908  1.00  0.00     0.157 C 
HETATM    8  C11 UNL     1      -2.815  -4.863  -4.887  1.00  0.00     0.079 C 
ENDROOT
BRANCH   1   9
HETATM    9  C4  UNL     1      -4.639  -6.094  -6.151  1.00  0.00     0.046 C 
BRANCH   9  10
HETATM   10  C3  UNL     1      -5.034  -6.464  -7.534  1.00  0.00     0.029 C 
BRANCH  10  11
HETATM   11  C2  UNL     1      -6.506  -6.771  -7.547  1.00  0.00    -0.037 C 
HETATM   12  C1  UNL     1      -7.106  -7.091  -8.657  1.00  0.00     0.007 C 
ENDBRANCH  10  11
ENDBRANCH   9  10
ENDBRANCH   1   9
BRANCH   8  13
HETATM   13  C12 UNL     1      -2.299  -3.465  -5.273  1.00  0.00     0.174 C 
BRANCH  13  14
HETATM   14  O3  UNL     1      -2.610  -2.654  -4.165  1.00  0.00    -0.400 OA
ATOM     15  H3  UNL     1      -3.070  -1.909  -4.535  1.00  0.00     0.209 HD
ENDBRANCH  13  14
ENDBRANCH   8  13
BRANCH   7  16
HETATM   16  O2  UNL     1      -2.468  -6.128  -2.889  1.00  0.00    -0.392 OA
ATOM     17  H2  UNL     1      -3.302  -6.431  -3.229  1.00  0.00     0.210 HD
ENDBRANCH   7  16
BRANCH   6  18
HETATM   18  O1  UNL     1      -0.179  -7.023  -3.464  1.00  0.00    -0.391 OA
ATOM     19  H1  UNL     1       0.294  -6.387  -2.941  1.00  0.00     0.210 HD
ENDBRANCH   6  18
TORSDOF 7
ENDMDL
MODEL 5
REMARK VINA RESULT: -6.017003289      2.105      3.209
REMARK  7 active torsions:
REMARK  status: ('A' for Active; 'I' for Inactive)
REMARK    1  A    between atoms: C2_2  and  C3_3 
REMARK    2  A    between atoms: C3_3  and  C4_4 
REMARK    3  A    between atoms: C4_4  and  C5_5 
REMARK    4  A    between atoms: C9_10  and  O1_11 
REMARK    5  A    between atoms: C10_13  and  O2_14 
REMARK    6  A    between atoms: C11_16  and  C12_17 
REMARK    7  A    between atoms: C12_17  and  O3_18 
ROOT
HETATM    1  C5  UNL     1      -2.534  -5.985  -5.401  1.00  0.00     0.169 C 
HETATM    2  C6  UNL     1      -1.381  -6.185  -6.398  1.00  0.00     0.072 C 
HETATM    3  C7  UNL     1      -0.541  -6.335  -5.164  1.00  0.00     0.276 C 
HETATM    4  N1  UNL     1      -1.754  -6.625  -4.432  1.00  0.00     0.101 N 
HETATM    5  C8  UNL     1      -1.715  -6.104  -3.126  1.00  0.00     0.307 C 
HETATM    6  C9  UNL     1      -1.615  -4.603  -3.052  1.00  0.00     0.175 C 
HETATM    7  C10 UNL     1      -2.746  -4.014  -3.843  1.00  0.00     0.157 C 
HETATM    8  C11 UNL     1      -2.905  -4.580  -5.217  1.00  0.00     0.079 C 
ENDROOT
BRANCH   1   9
HETATM    9  C4  UNL     1      -3.668  -6.909  -5.873  1.00  0.00     0.046 C 
BRANCH   9  10
HETATM   10  C3  UNL     1      -4.865  -6.164  -6.339  1.00  0.00     0.029 C 
BRANCH  10  11
HETATM   11  C2  UNL     1      -5.139  -6.540  -7.769  1.00  0.00    -0.037 C 
HETATM   12  C1  UNL     1      -4.340  -6.153  -8.721  1.00  0.00     0.007 C 
ENDBRANCH  10  11
ENDBRANCH   9  10
ENDBRANCH   1   9
BRANCH   8  13
HETATM   13  C12 UNL     1      -2.180  -3.615  -6.171  1.00  0.00     0.174 C 
BRANCH  13  14
HETATM   14  O3  UNL     1      -2.440  -2.334  -5.647  1.00  0.00    -0.400 OA
ATOM     15  H3  UNL     1      -3.252  -2.066  -6.061  1.00  0.00     0.209 HD
ENDBRANCH  13  14
ENDBRANCH   8  13
BRANCH   7  16
HETATM   16  O2  UNL     1      -3.906  -4.165  -3.086  1.00  0.00    -0.392 OA
ATOM     17  H2  UNL     1      -4.643  -4.119  -3.683  1.00  0.00     0.210 HD
ENDBRANCH   7  16
BRANCH   6  18
HETATM   18  O1  UNL     1      -1.789  -4.238  -1.712  1.00  0.00    -0.391 OA
ATOM     19  H1  UNL     1      -1.106  -4.666  -1.210  1.00  0.00     0.210 HD
ENDBRANCH   6  18
TORSDOF 7
ENDMDL
