MODEL 1
REMARK VINA RESULT: -8.189246106      0.000      0.000
REMARK  5 active torsions:
REMARK  status: ('A' for Active; 'I' for Inactive)
REMARK    1  A    between atoms: C3_9  and  N4_10 
REMARK    2  A    between atoms: N4_10  and  C4_12 
REMARK    3  A    between atoms: C4_12  and  C5_13 
REMARK    4  A    between atoms: C5_13  and  C6_14 
REMARK    5  A    between atoms: C6_14  and  N5_15 
ROOT
HETATM    1  C4  UNL     1      -6.257  -6.726  -9.849  1.00  0.00     0.123 C 
ENDROOT
BRANCH   1   2
HETATM    2  N4  UNL     1      -7.080  -7.766  -9.372  1.00  0.00    -0.374 N 
ATOM      3  H4  UNL     1      -6.769  -8.711  -9.598  1.00  0.00     0.161 HD
BRANCH   2   4
HETATM    4  C3  UNL     1      -8.143  -7.691  -8.707  1.00  0.00     0.141 A 
HETATM    5  C2  UNL     1      -9.411  -8.047  -9.058  1.00  0.00     0.068 A 
HETATM    6  C1  UNL     1      -9.914  -8.627 -10.335  1.00  0.00     0.074 C 
HETATM    7  N1  UNL     1     -10.190  -7.760  -7.972  1.00  0.00    -0.287 N 
HETATM    8  N2  UNL     1      -9.443  -7.260  -7.015  1.00  0.00    -0.241 N 
ATOM      9  H1  UNL     1     -11.197  -7.911  -7.914  1.00  0.00     0.188 HD
HETATM   10  N3  UNL     1      -8.202  -7.198  -7.410  1.00  0.00    -0.270 N 
ATOM     11  H2  UNL     1      -9.782  -6.964  -6.100  1.00  0.00     0.208 HD
ATOM     12  H3  UNL     1      -7.414  -6.850  -6.863  1.00  0.00     0.190 HD
ENDBRANCH   2   4
ENDBRANCH   1   2
BRANCH   1  13
HETATM   13  C5  UNL     1      -4.854  -6.957  -9.268  1.00  0.00     0.050 C 
BRANCH  13  14
HETATM   14  C6  UNL     1      -4.169  -5.629  -9.019  1.00  0.00     0.274 C 
BRANCH  14  15
HETATM   15  N5  UNL     1      -3.518  -5.719  -7.733  1.00  0.00     0.090 N 
HETATM   16  C7  UNL     1      -2.138  -6.099  -7.823  1.00  0.00     0.274 C 
HETATM   17  C8  UNL     1      -1.354  -5.247  -6.843  1.00  0.00     0.057 C 
HETATM   18  C9  UNL     1      -1.375  -5.886  -5.470  1.00  0.00     0.234 C 
HETATM   19  N6  UNL     1      -2.730  -5.890  -5.003  1.00  0.00    -0.073 N 
HETATM   20  C10 UNL     1      -3.472  -6.971  -5.622  1.00  0.00     0.262 C 
ATOM     21  H62 UNL     1      -2.781  -5.929  -3.985  1.00  0.00     0.277 HD
ATOM     22  H61 UNL     1      -3.183  -4.988  -5.143  1.00  0.00     0.277 HD
HETATM   23  C11 UNL     1      -4.276  -6.400  -6.750  1.00  0.00     0.299 C 
ENDBRANCH  14  15
ENDBRANCH  13  14
ENDBRANCH   1  13
TORSDOF 5
ENDMDL
MODEL 2
REMARK VINA RESULT: -8.172043216      0.941      1.070
REMARK  5 active torsions:
REMARK  status: ('A' for Active; 'I' for Inactive)
REMARK    1  A    between atoms: C3_9  and  N4_10 
REMARK    2  A    between atoms: N4_10  and  C4_12 
REMARK    3  A    between atoms: C4_12  and  C5_13 
REMARK    4  A    between atoms: C5_13  and  C6_14 
REMARK    5  A    between atoms: C6_14  and  N5_15 
ROOT
HETATM    1  C4  UNL     1      -6.550  -6.891  -9.913  1.00  0.00     0.123 C 
ENDROOT
BRANCH   1   2
HETATM    2  N4  UNL     1      -7.173  -7.829  -9.065  1.00  0.00    -0.374 N 
ATOM      3  H4  UNL     1      -6.611  -8.644  -8.822  1.00  0.00     0.161 HD
BRANCH   2   4
HETATM    4  C3  UNL     1      -8.326  -7.799  -8.565  1.00  0.00     0.141 A 
HETATM    5  C2  UNL     1      -9.518  -8.161  -9.117  1.00  0.00     0.068 A 
HETATM    6  C1  UNL     1      -9.810  -8.697 -10.476  1.00  0.00     0.074 C 
HETATM    7  N1  UNL     1     -10.458  -7.932  -8.150  1.00  0.00    -0.287 N 
HETATM    8  N2  UNL     1      -9.874  -7.459  -7.074  1.00  0.00    -0.241 N 
ATOM      9  H1  UNL     1     -11.458  -8.103  -8.250  1.00  0.00     0.188 HD
HETATM   10  N3  UNL     1      -8.589  -7.360  -7.274  1.00  0.00    -0.270 N 
ATOM     11  H2  UNL     1     -10.353  -7.207  -6.209  1.00  0.00     0.208 HD
ATOM     12  H3  UNL     1      -7.901  -7.021  -6.602  1.00  0.00     0.190 HD
ENDBRANCH   2   4
ENDBRANCH   1   2
BRANCH   1  13
HETATM   13  C5  UNL     1      -5.167  -6.590  -9.317  1.00  0.00     0.050 C 
BRANCH  13  14
HETATM   14  C6  UNL     1      -5.244  -6.577  -7.805  1.00  0.00     0.274 C 
BRANCH  14  15
HETATM   15  N5  UNL     1      -4.052  -5.920  -7.322  1.00  0.00     0.090 N 
HETATM   16  C7  UNL     1      -2.846  -6.625  -7.649  1.00  0.00     0.274 C 
HETATM   17  C8  UNL     1      -1.811  -5.603  -8.084  1.00  0.00     0.057 C 
HETATM   18  C9  UNL     1      -1.087  -5.054  -6.873  1.00  0.00     0.234 C 
HETATM   19  N6  UNL     1      -2.038  -4.345  -6.069  1.00  0.00    -0.073 N 
HETATM   20  C10 UNL     1      -2.833  -5.275  -5.291  1.00  0.00     0.262 C 
ATOM     21  H62 UNL     1      -1.590  -3.643  -5.481  1.00  0.00     0.277 HD
ATOM     22  H61 UNL     1      -2.620  -3.723  -6.630  1.00  0.00     0.277 HD
HETATM   23  C11 UNL     1      -4.147  -5.462  -5.986  1.00  0.00     0.299 C 
ENDBRANCH  14  15
ENDBRANCH  13  14
ENDBRANCH   1  13
TORSDOF 5
ENDMDL
MODEL 3
REMARK VINA RESULT: -8.153433410      0.760      1.492
REMARK  5 active torsions:
REMARK  status: ('A' for Active; 'I' for Inactive)
REMARK    1  A    between atoms: C3_9  and  N4_10 
REMARK    2  A    between atoms: N4_10  and  C4_12 
REMARK    3  A    between atoms: C4_12  and  C5_13 
REMARK    4  A    between atoms: C5_13  and  C6_14 
REMARK    5  A    between atoms: C6_14  and  N5_15 
ROOT
HETATM    1  C4  UNL     1      -6.203  -6.873  -9.605  1.00  0.00     0.123 C 
ENDROOT
BRANCH   1   2
HETATM    2  N4  UNL     1      -7.092  -7.885  -9.191  1.00  0.00    -0.374 N 
ATOM      3  H4  UNL     1      -6.788  -8.841  -9.375  1.00  0.00     0.161 HD
BRANCH   2   4
HETATM    4  C3  UNL     1      -8.208  -7.773  -8.625  1.00  0.00     0.141 A 
HETATM    5  C2  UNL     1      -9.454  -8.044  -9.105  1.00  0.00     0.068 A 
HETATM    6  C1  UNL     1      -9.864  -8.551 -10.445  1.00  0.00     0.074 C 
HETATM    7  N1  UNL     1     -10.316  -7.751  -8.086  1.00  0.00    -0.287 N 
HETATM    8  N2  UNL     1      -9.637  -7.327  -7.045  1.00  0.00    -0.241 N 
ATOM      9  H1  UNL     1     -11.330  -7.847  -8.127  1.00  0.00     0.188 HD
HETATM   10  N3  UNL     1      -8.363  -7.321  -7.321  1.00  0.00    -0.270 N 
ATOM     11  H2  UNL     1     -10.045  -7.044  -6.154  1.00  0.00     0.208 HD
ATOM     12  H3  UNL     1      -7.613  -7.037  -6.690  1.00  0.00     0.190 HD
ENDBRANCH   2   4
ENDBRANCH   1   2
BRANCH   1  13
HETATM   13  C5  UNL     1      -5.249  -6.600  -8.433  1.00  0.00     0.050 C 
BRANCH  13  14
HETATM   14  C6  UNL     1      -3.813  -6.633  -8.913  1.00  0.00     0.274 C 
BRANCH  14  15
HETATM   15  N5  UNL     1      -2.970  -6.523  -7.746  1.00  0.00     0.090 N 
HETATM   16  C7  UNL     1      -3.706  -6.522  -6.514  1.00  0.00     0.274 C 
HETATM   17  C8  UNL     1      -2.957  -7.393  -5.522  1.00  0.00     0.057 C 
HETATM   18  C9  UNL     1      -1.896  -6.575  -4.815  1.00  0.00     0.234 C 
HETATM   19  N6  UNL     1      -0.932  -6.159  -5.790  1.00  0.00    -0.073 N 
HETATM   20  C10 UNL     1      -1.437  -5.028  -6.546  1.00  0.00     0.262 C 
ATOM     21  H62 UNL     1      -0.026  -5.959  -5.368  1.00  0.00     0.277 HD
ATOM     22  H61 UNL     1      -0.650  -6.927  -6.399  1.00  0.00     0.277 HD
HETATM   23  C11 UNL     1      -1.961  -5.536  -7.854  1.00  0.00     0.299 C 
ENDBRANCH  14  15
ENDBRANCH  13  14
ENDBRANCH   1  13
TORSDOF 5
ENDMDL
MODEL 4
REMARK VINA RESULT: -7.968563543      1.491      2.034
REMARK  5 active torsions:
REMARK  status: ('A' for Active; 'I' for Inactive)
REMARK    1  A    between atoms: C3_9  and  N4_10 
REMARK    2  A    between atoms: N4_10  and  C4_12 
REMARK    3  A    between atoms: C4_12  and  C5_13 
REMARK    4  A    between atoms: C5_13  and  C6_14 
REMARK    5  A    between atoms: C6_14  and  N5_15 
ROOT
HETATM    1  C4  UNL     1      -5.015  -6.503  -7.588  1.00  0.00     0.123 C 
ENDROOT
BRANCH   1   2
HETATM    2  N4  UNL     1      -5.955  -6.849  -8.580  1.00  0.00    -0.374 N 
ATOM      3  H4  UNL     1      -5.594  -6.894  -9.532  1.00  0.00     0.161 HD
BRANCH   2   4
HETATM    4  C3  UNL     1      -7.178  -7.110  -8.453  1.00  0.00     0.141 A 
HETATM    5  C2  UNL     1      -8.064  -7.575  -9.377  1.00  0.00     0.068 A 
HETATM    6  C1  UNL     1      -7.849  -7.909 -10.813  1.00  0.00     0.074 C 
HETATM    7  N1  UNL     1      -9.259  -7.687  -8.721  1.00  0.00    -0.287 N 
HETATM    8  N2  UNL     1      -9.110  -7.313  -7.471  1.00  0.00    -0.241 N 
ATOM      9  H1  UNL     1     -10.131  -8.011  -9.138  1.00  0.00     0.188 HD
HETATM   10  N3  UNL     1      -7.873  -6.955  -7.261  1.00  0.00    -0.270 N 
ATOM     11  H2  UNL     1      -9.850  -7.303  -6.769  1.00  0.00     0.208 HD
ATOM     12  H3  UNL     1      -7.487  -6.622  -6.378  1.00  0.00     0.190 HD
ENDBRANCH   2   4
ENDBRANCH   1   2
BRANCH   1  13
HETATM   13  C5  UNL     1      -3.626  -6.565  -8.240  1.00  0.00     0.050 C 
BRANCH  13  14
HETATM   14  C6  UNL     1      -2.801  -5.366  -7.821  1.00  0.00     0.274 C 
BRANCH  14  15
HETATM   15  N5  UNL     1      -2.571  -5.482  -6.400  1.00  0.00     0.090 N 
HETATM   16  C7  UNL     1      -2.403  -4.215  -5.748  1.00  0.00     0.274 C 
HETATM   17  C8  UNL     1      -3.165  -4.259  -4.436  1.00  0.00     0.057 C 
HETATM   18  C9  UNL     1      -2.294  -4.860  -3.354  1.00  0.00     0.234 C 
HETATM   19  N6  UNL     1      -2.022  -6.222  -3.706  1.00  0.00    -0.073 N 
HETATM   20  C10 UNL     1      -0.980  -6.284  -4.712  1.00  0.00     0.262 C 
ATOM     21  H62 UNL     1      -1.795  -6.788  -2.889  1.00  0.00     0.277 HD
ATOM     22  H61 UNL     1      -2.866  -6.714  -4.001  1.00  0.00     0.277 HD
HETATM   23  C11 UNL     1      -1.629  -6.478  -6.048  1.00  0.00     0.299 C 
ENDBRANCH  14  15
ENDBRANCH  13  14
ENDBRANCH   1  13
TORSDOF 5
ENDMDL
MODEL 5
REMARK VINA RESULT: -7.900675801      1.376      1.967
REMARK  5 active torsions:
REMARK  status: ('A' for Active; 'I' for Inactive)
REMARK    1  A    between atoms: C3_9  and  N4_10 
REMARK    2  A    between atoms: N4_10  and  C4_12 
REMARK    3  A    between atoms: C4_12  and  C5_13 
REMARK    4  A    between atoms: C5_13  and  C6_14 
REMARK    5  A    between atoms: C6_14  and  N5_15 
ROOT
HETATM    1  C4  UNL     1      -5.108  -6.547  -7.590  1.00  0.00     0.123 C 
ENDROOT
BRANCH   1   2
HETATM    2  N4  UNL     1      -6.062  -6.827  -8.590  1.00  0.00    -0.374 N 
ATOM      3  H4  UNL     1      -5.714  -6.806  -9.548  1.00  0.00     0.161 HD
BRANCH   2   4
HETATM    4  C3  UNL     1      -7.282  -7.099  -8.463  1.00  0.00     0.141 A 
HETATM    5  C2  UNL     1      -8.174  -7.532  -9.398  1.00  0.00     0.068 A 
HETATM    6  C1  UNL     1      -7.969  -7.809 -10.848  1.00  0.00     0.074 C 
HETATM    7  N1  UNL     1      -9.362  -7.676  -8.738  1.00  0.00    -0.287 N 
HETATM    8  N2  UNL     1      -9.205  -7.350  -7.475  1.00  0.00    -0.241 N 
ATOM      9  H1  UNL     1     -10.236  -7.988  -9.160  1.00  0.00     0.188 HD
HETATM   10  N3  UNL     1      -7.969  -6.996  -7.261  1.00  0.00    -0.270 N 
ATOM     11  H2  UNL     1      -9.940  -7.372  -6.768  1.00  0.00     0.208 HD
ATOM     12  H3  UNL     1      -7.576  -6.696  -6.368  1.00  0.00     0.190 HD
ENDBRANCH   2   4
ENDBRANCH   1   2
BRANCH   1  13
HETATM   13  C5  UNL     1      -3.919  -5.860  -8.279  1.00  0.00     0.050 C 
BRANCH  13  14
HETATM   14  C6  UNL     1      -2.654  -6.661  -8.053  1.00  0.00     0.274 C 
BRANCH  14  15
HETATM   15  N5  UNL     1      -2.007  -6.116  -6.883  1.00  0.00     0.090 N 
HETATM   16  C7  UNL     1      -2.186  -6.921  -5.710  1.00  0.00     0.274 C 
HETATM   17  C8  UNL     1      -0.861  -6.972  -4.971  1.00  0.00     0.057 C 
HETATM   18  C9  UNL     1      -0.736  -5.775  -4.053  1.00  0.00     0.234 C 
HETATM   19  N6  UNL     1      -0.697  -4.594  -4.864  1.00  0.00    -0.073 N 
HETATM   20  C10 UNL     1      -2.034  -4.240  -5.300  1.00  0.00     0.262 C 
ATOM     21  H62 UNL     1      -0.235  -3.820  -4.387  1.00  0.00     0.277 HD
ATOM     22  H61 UNL     1      -0.054  -4.693  -5.649  1.00  0.00     0.277 HD
HETATM   23  C11 UNL     1      -2.211  -4.726  -6.706  1.00  0.00     0.299 C 
ENDBRANCH  14  15
ENDBRANCH  13  14
ENDBRANCH   1  13
TORSDOF 5
ENDMDL
