MODEL 1
REMARK VINA RESULT: -6.875485902      0.000      0.000
REMARK  7 active torsions:
REMARK  status: ('A' for Active; 'I' for Inactive)
REMARK    1  A    between atoms: N1_2  and  C2_3 
REMARK    2  A    between atoms: N1_2  and  C7_8 
REMARK    3  A    between atoms: C2_3  and  C3_4 
REMARK    4  A    between atoms: C9_10  and  C10_11 
REMARK    5  A    between atoms: C10_11  and  O1_12 
REMARK    6  A    between atoms: C11_14  and  O2_15 
REMARK    7  A    between atoms: C12_17  and  O3_18 
ROOT
HETATM    1  C7  UNL     1      -3.988  -6.750  -7.613  1.00  0.00     0.114 C 
HETATM    2  C8  UNL     1      -2.534  -6.801  -7.233  1.00  0.00     0.037 C 
HETATM    3  C9  UNL     1      -2.511  -6.479  -5.729  1.00  0.00     0.042 C 
HETATM    4  C11 UNL     1      -3.456  -5.329  -5.702  1.00  0.00     0.155 C 
HETATM    5  C12 UNL     1      -4.597  -5.855  -6.553  1.00  0.00     0.170 C 
ENDROOT
BRANCH   1   6
HETATM    6  N1  UNL     1      -4.255  -6.206  -8.877  1.00  0.00    -0.390 N 
HETATM    7  C1  UNL     1      -3.447  -5.089  -9.263  1.00  0.00     0.149 C 
BRANCH   6   8
HETATM    8  C2  UNL     1      -5.526  -6.292  -9.451  1.00  0.00     0.062 C 
BRANCH   8   9
HETATM    9  C3  UNL     1      -6.271  -7.565  -9.255  1.00  0.00     0.024 C 
HETATM   10  C4  UNL     1      -7.582  -7.407  -8.465  1.00  0.00     0.010 C 
HETATM   11  C5  UNL     1      -8.242  -8.402  -9.425  1.00  0.00     0.001 C 
HETATM   12  C6  UNL     1      -7.189  -7.940 -10.427  1.00  0.00     0.010 C 
ENDBRANCH   8   9
ENDBRANCH   6   8
ENDBRANCH   1   6
BRANCH   5  13
HETATM   13  O3  UNL     1      -5.498  -6.568  -5.773  1.00  0.00    -0.391 OA
ATOM     14  H3  UNL     1      -6.014  -7.153  -6.314  1.00  0.00     0.210 HD
ENDBRANCH   5  13
BRANCH   3  15
HETATM   15  C10 UNL     1      -1.128  -6.226  -5.281  1.00  0.00     0.171 C 
BRANCH  15  16
HETATM   16  O1  UNL     1      -0.476  -5.435  -6.229  1.00  0.00    -0.400 OA
ATOM     17  H1  UNL     1      -0.042  -5.997  -6.859  1.00  0.00     0.209 HD
ENDBRANCH  15  16
ENDBRANCH   3  15
BRANCH   4  18
HETATM   18  O2  UNL     1      -3.001  -4.187  -6.340  1.00  0.00    -0.392 OA
ATOM     19  H2  UNL     1      -2.323  -4.335  -6.988  1.00  0.00     0.210 HD
ENDBRANCH   4  18
TORSDOF 7
ENDMDL
MODEL 2
REMARK VINA RESULT: -6.823491830      3.118      6.314
REMARK  7 active torsions:
REMARK  status: ('A' for Active; 'I' for Inactive)
REMARK    1  A    between atoms: N1_2  and  C2_3 
REMARK    2  A    between atoms: N1_2  and  C7_8 
REMARK    3  A    between atoms: C2_3  and  C3_4 
REMARK    4  A    between atoms: C9_10  and  C10_11 
REMARK    5  A    between atoms: C10_11  and  O1_12 
REMARK    6  A    between atoms: C11_14  and  O2_15 
REMARK    7  A    between atoms: C12_17  and  O3_18 
ROOT
HETATM    1  C7  UNL     1      -7.383  -6.588  -9.082  1.00  0.00     0.114 C 
HETATM    2  C8  UNL     1      -7.870  -6.866 -10.477  1.00  0.00     0.037 C 
HETATM    3  C9  UNL     1      -9.080  -7.798 -10.292  1.00  0.00     0.042 C 
HETATM    4  C11 UNL     1      -8.522  -8.737  -9.279  1.00  0.00     0.155 C 
HETATM    5  C12 UNL     1      -7.892  -7.775  -8.289  1.00  0.00     0.170 C 
ENDROOT
BRANCH   1   6
HETATM    6  N1  UNL     1      -5.991  -6.508  -8.941  1.00  0.00    -0.390 N 
HETATM    7  C1  UNL     1      -5.220  -6.953 -10.062  1.00  0.00     0.149 C 
BRANCH   6   8
HETATM    8  C2  UNL     1      -5.383  -6.590  -7.685  1.00  0.00     0.062 C 
BRANCH   8   9
HETATM    9  C3  UNL     1      -3.897  -6.663  -7.658  1.00  0.00     0.024 C 
HETATM   10  C4  UNL     1      -3.206  -5.294  -7.539  1.00  0.00     0.010 C 
HETATM   11  C5  UNL     1      -2.198  -5.923  -6.571  1.00  0.00     0.001 C 
HETATM   12  C6  UNL     1      -3.309  -6.922  -6.263  1.00  0.00     0.010 C 
ENDBRANCH   8   9
ENDBRANCH   6   8
ENDBRANCH   1   6
BRANCH   5  13
HETATM   13  O3  UNL     1      -8.824  -7.366  -7.346  1.00  0.00    -0.391 OA
ATOM     14  H3  UNL     1      -8.390  -7.088  -6.547  1.00  0.00     0.210 HD
ENDBRANCH   5  13
BRANCH   3  15
HETATM   15  C10 UNL     1      -9.488  -8.370 -11.589  1.00  0.00     0.171 C 
BRANCH  15  16
HETATM   16  O1  UNL     1      -9.755  -9.730 -11.427  1.00  0.00    -0.400 OA
ATOM     17  H1  UNL     1      -9.534 -10.190 -12.228  1.00  0.00     0.209 HD
ENDBRANCH  15  16
ENDBRANCH   3  15
BRANCH   4  18
HETATM   18  O2  UNL     1      -7.493  -9.541  -9.736  1.00  0.00    -0.392 OA
ATOM     19  H2  UNL     1      -7.715 -10.093 -10.476  1.00  0.00     0.210 HD
ENDBRANCH   4  18
TORSDOF 7
ENDMDL
MODEL 3
REMARK VINA RESULT: -6.761486735      1.587      2.358
REMARK  7 active torsions:
REMARK  status: ('A' for Active; 'I' for Inactive)
REMARK    1  A    between atoms: N1_2  and  C2_3 
REMARK    2  A    between atoms: N1_2  and  C7_8 
REMARK    3  A    between atoms: C2_3  and  C3_4 
REMARK    4  A    between atoms: C9_10  and  C10_11 
REMARK    5  A    between atoms: C10_11  and  O1_12 
REMARK    6  A    between atoms: C11_14  and  O2_15 
REMARK    7  A    between atoms: C12_17  and  O3_18 
ROOT
HETATM    1  C7  UNL     1      -3.057  -5.568  -6.278  1.00  0.00     0.114 C 
HETATM    2  C8  UNL     1      -2.526  -6.695  -5.435  1.00  0.00     0.037 C 
HETATM    3  C9  UNL     1      -1.919  -6.008  -4.200  1.00  0.00     0.042 C 
HETATM    4  C11 UNL     1      -1.184  -4.897  -4.865  1.00  0.00     0.155 C 
HETATM    5  C12 UNL     1      -2.230  -4.378  -5.833  1.00  0.00     0.170 C 
ENDROOT
BRANCH   1   6
HETATM    6  N1  UNL     1      -2.906  -5.736  -7.661  1.00  0.00    -0.390 N 
HETATM    7  C1  UNL     1      -1.622  -5.399  -8.198  1.00  0.00     0.149 C 
BRANCH   6   8
HETATM    8  C2  UNL     1      -3.997  -5.636  -8.528  1.00  0.00     0.062 C 
BRANCH   8   9
HETATM    9  C3  UNL     1      -4.899  -6.815  -8.619  1.00  0.00     0.024 C 
HETATM   10  C4  UNL     1      -6.168  -6.700  -7.757  1.00  0.00     0.010 C 
HETATM   11  C5  UNL     1      -6.965  -7.333  -8.902  1.00  0.00     0.001 C 
HETATM   12  C6  UNL     1      -5.873  -6.769  -9.806  1.00  0.00     0.010 C 
ENDBRANCH   8   9
ENDBRANCH   6   8
ENDBRANCH   1   6
BRANCH   5  13
HETATM   13  O3  UNL     1      -3.036  -3.430  -5.218  1.00  0.00    -0.391 OA
ATOM     14  H3  UNL     1      -3.584  -2.991  -5.859  1.00  0.00     0.210 HD
ENDBRANCH   5  13
BRANCH   3  15
HETATM   15  C10 UNL     1      -1.121  -6.972  -3.420  1.00  0.00     0.171 C 
BRANCH  15  16
HETATM   16  O1  UNL     1      -0.579  -7.925  -4.283  1.00  0.00    -0.400 OA
ATOM     17  H1  UNL     1      -0.809  -8.794  -3.974  1.00  0.00     0.209 HD
ENDBRANCH  15  16
ENDBRANCH   3  15
BRANCH   4  18
HETATM   18  O2  UNL     1      -0.110  -5.293  -5.643  1.00  0.00    -0.392 OA
ATOM     19  H2  UNL     1      -0.214  -5.140  -6.575  1.00  0.00     0.210 HD
ENDBRANCH   4  18
TORSDOF 7
ENDMDL
MODEL 4
REMARK VINA RESULT: -6.537804764      2.267      3.830
REMARK  7 active torsions:
REMARK  status: ('A' for Active; 'I' for Inactive)
REMARK    1  A    between atoms: N1_2  and  C2_3 
REMARK    2  A    between atoms: N1_2  and  C7_8 
REMARK    3  A    between atoms: C2_3  and  C3_4 
REMARK    4  A    between atoms: C9_10  and  C10_11 
REMARK    5  A    between atoms: C10_11  and  O1_12 
REMARK    6  A    between atoms: C11_14  and  O2_15 
REMARK    7  A    between atoms: C12_17  and  O3_18 
ROOT
HETATM    1  C7  UNL     1      -2.379  -4.987  -5.777  1.00  0.00     0.114 C 
HETATM    2  C8  UNL     1      -2.818  -3.759  -5.027  1.00  0.00     0.037 C 
HETATM    3  C9  UNL     1      -1.525  -3.187  -4.422  1.00  0.00     0.042 C 
HETATM    4  C11 UNL     1      -0.911  -4.442  -3.906  1.00  0.00     0.155 C 
HETATM    5  C12 UNL     1      -1.084  -5.373  -5.092  1.00  0.00     0.170 C 
ENDROOT
BRANCH   1   6
HETATM    6  N1  UNL     1      -3.266  -6.070  -5.720  1.00  0.00    -0.390 N 
HETATM    7  C1  UNL     1      -2.673  -7.356  -5.514  1.00  0.00     0.149 C 
BRANCH   6   8
HETATM    8  C2  UNL     1      -4.492  -6.042  -6.390  1.00  0.00     0.062 C 
BRANCH   8   9
HETATM    9  C3  UNL     1      -4.575  -6.782  -7.678  1.00  0.00     0.024 C 
HETATM   10  C4  UNL     1      -5.970  -6.754  -8.327  1.00  0.00     0.010 C 
HETATM   11  C5  UNL     1      -5.296  -6.576  -9.691  1.00  0.00     0.001 C 
HETATM   12  C6  UNL     1      -4.146  -5.959  -8.902  1.00  0.00     0.010 C 
ENDBRANCH   8   9
ENDBRANCH   6   8
ENDBRANCH   1   6
BRANCH   5  13
HETATM   13  O3  UNL     1      -0.015  -5.250  -5.969  1.00  0.00    -0.391 OA
ATOM     14  H3  UNL     1       0.118  -4.340  -6.206  1.00  0.00     0.210 HD
ENDBRANCH   5  13
BRANCH   3  15
HETATM   15  C10 UNL     1      -1.844  -2.138  -3.435  1.00  0.00     0.171 C 
BRANCH  15  16
HETATM   16  O1  UNL     1      -2.376  -1.031  -4.097  1.00  0.00    -0.400 OA
ATOM     17  H1  UNL     1      -2.250  -0.256  -3.561  1.00  0.00     0.209 HD
ENDBRANCH  15  16
ENDBRANCH   3  15
BRANCH   4  18
HETATM   18  O2  UNL     1      -1.590  -5.034  -2.856  1.00  0.00    -0.392 OA
ATOM     19  H2  UNL     1      -1.780  -4.455  -2.126  1.00  0.00     0.210 HD
ENDBRANCH   4  18
TORSDOF 7
ENDMDL
MODEL 5
REMARK VINA RESULT: -6.529746366      2.616      3.546
REMARK  7 active torsions:
REMARK  status: ('A' for Active; 'I' for Inactive)
REMARK    1  A    between atoms: N1_2  and  C2_3 
REMARK    2  A    between atoms: N1_2  and  C7_8 
REMARK    3  A    between atoms: C2_3  and  C3_4 
REMARK    4  A    between atoms: C9_10  and  C10_11 
REMARK    5  A    between atoms: C10_11  and  O1_12 
REMARK    6  A    between atoms: C11_14  and  O2_15 
REMARK    7  A    between atoms: C12_17  and  O3_18 
ROOT
HETATM    1  C7  UNL     1      -2.153  -5.178  -4.739  1.00  0.00     0.114 C 
HETATM    2  C8  UNL     1      -0.765  -4.667  -4.467  1.00  0.00     0.037 C 
HETATM    3  C9  UNL     1      -0.964  -3.492  -3.493  1.00  0.00     0.042 C 
HETATM    4  C11 UNL     1      -2.111  -2.809  -4.153  1.00  0.00     0.155 C 
HETATM    5  C12 UNL     1      -3.032  -3.979  -4.445  1.00  0.00     0.170 C 
ENDROOT
BRANCH   1   6
HETATM    6  N1  UNL     1      -2.385  -5.602  -6.054  1.00  0.00    -0.390 N 
HETATM    7  C1  UNL     1      -1.235  -5.670  -6.903  1.00  0.00     0.149 C 
BRANCH   6   8
HETATM    8  C2  UNL     1      -3.617  -5.391  -6.679  1.00  0.00     0.062 C 
BRANCH   8   9
HETATM    9  C3  UNL     1      -4.127  -6.480  -7.554  1.00  0.00     0.024 C 
HETATM   10  C4  UNL     1      -5.660  -6.606  -7.567  1.00  0.00     0.010 C 
HETATM   11  C5  UNL     1      -5.594  -6.866  -9.075  1.00  0.00     0.001 C 
HETATM   12  C6  UNL     1      -4.290  -6.076  -9.026  1.00  0.00     0.010 C 
ENDBRANCH   8   9
ENDBRANCH   6   8
ENDBRANCH   1   6
BRANCH   5  13
HETATM   13  O3  UNL     1      -3.855  -4.235  -3.356  1.00  0.00    -0.391 OA
ATOM     14  H3  UNL     1      -4.367  -3.465  -3.137  1.00  0.00     0.210 HD
ENDBRANCH   5  13
BRANCH   3  15
HETATM   15  C10 UNL     1       0.288  -2.725  -3.356  1.00  0.00     0.171 C 
BRANCH  15  16
HETATM   16  O1  UNL     1       0.007  -1.362  -3.466  1.00  0.00    -0.400 OA
ATOM     17  H1  UNL     1       0.719  -0.864  -3.082  1.00  0.00     0.209 HD
ENDBRANCH  15  16
ENDBRANCH   3  15
BRANCH   4  18
HETATM   18  O2  UNL     1      -1.822  -2.238  -5.380  1.00  0.00    -0.392 OA
ATOM     19  H2  UNL     1      -2.525  -1.721  -5.756  1.00  0.00     0.210 HD
ENDBRANCH   4  18
TORSDOF 7
ENDMDL
