MODEL 1
REMARK VINA RESULT: -6.923551290      0.000      0.000
REMARK  1 active torsions:
REMARK  status: ('A' for Active; 'I' for Inactive)
REMARK    1  A    between atoms: C4_4  and  C5_5 
ROOT
HETATM    1  C5  UNL     1      36.375  -0.614  35.167  1.00  0.00     0.015 C 
HETATM    2  C6  UNL     1      36.682   0.856  35.229  1.00  0.00     0.008 C 
HETATM    3  C7  UNL     1      37.526   1.350  34.104  1.00  0.00     0.028 C 
HETATM    4  C8  UNL     1      37.554   0.382  32.926  1.00  0.00     0.232 C 
HETATM    5  N1  UNL     1      36.164  -0.079  32.775  1.00  0.00    -0.075 N 
ATOM      6  H11 UNL     1      35.946  -0.409  31.835  1.00  0.00     0.277 HD
ATOM      7  H12 UNL     1      35.480   0.678  32.803  1.00  0.00     0.277 HD
HETATM    8  C9  UNL     1      35.957  -1.076  33.794  1.00  0.00     0.237 C 
ENDROOT
BRANCH   1   9
HETATM    9  C4  UNL     1      35.236  -0.929  36.106  1.00  0.00    -0.009 C 
HETATM   10  C3  UNL     1      33.914  -1.056  35.414  1.00  0.00     0.005 C 
HETATM   11  C2  UNL     1      32.949  -1.703  36.415  1.00  0.00     0.000 C 
HETATM   12  C1  UNL     1      32.869  -0.809  37.609  1.00  0.00     0.000 C 
HETATM   13  C11 UNL     1      33.658   0.475  37.409  1.00  0.00     0.000 C 
HETATM   14  C10 UNL     1      35.100   0.155  37.159  1.00  0.00     0.005 C 
ENDBRANCH   1   9
TORSDOF 1
ENDMDL
MODEL 2
REMARK VINA RESULT: -6.910159337      1.791      4.625
REMARK  1 active torsions:
REMARK  status: ('A' for Active; 'I' for Inactive)
REMARK    1  A    between atoms: C4_4  and  C5_5 
ROOT
HETATM    1  C5  UNL     1      35.089   0.739  36.238  1.00  0.00     0.015 C 
HETATM    2  C6  UNL     1      35.236  -0.691  36.672  1.00  0.00     0.008 C 
HETATM    3  C7  UNL     1      34.115  -1.190  37.519  1.00  0.00     0.028 C 
HETATM    4  C8  UNL     1      32.875  -0.306  37.426  1.00  0.00     0.232 C 
HETATM    5  N1  UNL     1      32.746   0.025  35.998  1.00  0.00    -0.075 N 
ATOM      6  H11 UNL     1      31.795   0.270  35.723  1.00  0.00     0.277 HD
ATOM      7  H12 UNL     1      32.850  -0.782  35.383  1.00  0.00     0.277 HD
HETATM    8  C9  UNL     1      33.704   1.069  35.739  1.00  0.00     0.237 C 
ENDROOT
BRANCH   1   9
HETATM    9  C4  UNL     1      36.046   1.023  35.106  1.00  0.00    -0.009 C 
HETATM   10  C3  UNL     1      35.383   1.064  33.764  1.00  0.00     0.005 C 
HETATM   11  C2  UNL     1      36.390   1.689  32.790  1.00  0.00     0.000 C 
HETATM   12  C1  UNL     1      37.609   0.825  32.783  1.00  0.00     0.000 C 
HETATM   13  C11 UNL     1      37.423  -0.423  33.632  1.00  0.00     0.000 C 
HETATM   14  C10 UNL     1      37.130  -0.038  35.049  1.00  0.00     0.005 C 
ENDBRANCH   1   9
TORSDOF 1
ENDMDL
MODEL 3
REMARK VINA RESULT: -6.907790860      1.678      4.758
REMARK  1 active torsions:
REMARK  status: ('A' for Active; 'I' for Inactive)
REMARK    1  A    between atoms: C4_4  and  C5_5 
ROOT
HETATM    1  C5  UNL     1      34.898  -0.844  36.133  1.00  0.00     0.015 C 
HETATM    2  C6  UNL     1      33.753  -1.383  35.324  1.00  0.00     0.008 C 
HETATM    3  C7  UNL     1      32.488  -1.553  36.094  1.00  0.00     0.028 C 
HETATM    4  C8  UNL     1      32.493  -0.772  37.404  1.00  0.00     0.232 C 
HETATM    5  N1  UNL     1      33.087   0.533  37.070  1.00  0.00    -0.075 N 
ATOM      6  H11 UNL     1      32.815   1.278  37.712  1.00  0.00     0.277 HD
ATOM      7  H12 UNL     1      32.700   0.950  36.223  1.00  0.00     0.277 HD
HETATM    8  C9  UNL     1      34.510   0.323  37.007  1.00  0.00     0.237 C 
ENDROOT
BRANCH   1   9
HETATM    9  C4  UNL     1      35.986  -0.361  35.206  1.00  0.00    -0.009 C 
HETATM   10  C3  UNL     1      36.355   1.075  35.420  1.00  0.00     0.005 C 
HETATM   11  C2  UNL     1      37.671   1.313  34.670  1.00  0.00     0.000 C 
HETATM   12  C1  UNL     1      37.431   1.008  33.227  1.00  0.00     0.000 C 
HETATM   13  C11 UNL     1      35.972   0.680  32.953  1.00  0.00     0.000 C 
HETATM   14  C10 UNL     1      35.557  -0.512  33.758  1.00  0.00     0.005 C 
ENDBRANCH   1   9
TORSDOF 1
ENDMDL
MODEL 4
REMARK VINA RESULT: -6.895377027      1.268      1.697
REMARK  1 active torsions:
REMARK  status: ('A' for Active; 'I' for Inactive)
REMARK    1  A    between atoms: C4_4  and  C5_5 
ROOT
HETATM    1  C5  UNL     1      36.067   0.837  34.844  1.00  0.00     0.015 C 
HETATM    2  C6  UNL     1      35.245   1.324  33.685  1.00  0.00     0.008 C 
HETATM    3  C7  UNL     1      36.017   1.500  32.422  1.00  0.00     0.028 C 
HETATM    4  C8  UNL     1      37.356   0.770  32.449  1.00  0.00     0.232 C 
HETATM    5  N1  UNL     1      37.068  -0.536  33.064  1.00  0.00    -0.075 N 
ATOM      6  H11 UNL     1      37.740  -1.260  32.810  1.00  0.00     0.277 HD
ATOM      7  H12 UNL     1      36.241  -0.992  32.680  1.00  0.00     0.277 HD
HETATM    8  C9  UNL     1      36.987  -0.303  34.483  1.00  0.00     0.237 C 
ENDROOT
BRANCH   1   9
HETATM    9  C4  UNL     1      35.151   0.337  35.935  1.00  0.00    -0.009 C 
HETATM   10  C3  UNL     1      35.424  -1.079  36.338  1.00  0.00     0.005 C 
HETATM   11  C2  UNL     1      34.672  -1.320  37.653  1.00  0.00     0.000 C 
HETATM   12  C1  UNL     1      33.220  -1.084  37.394  1.00  0.00     0.000 C 
HETATM   13  C11 UNL     1      32.946  -0.800  35.925  1.00  0.00     0.000 C 
HETATM   14  C10 UNL     1      33.703   0.416  35.490  1.00  0.00     0.005 C 
ENDBRANCH   1   9
TORSDOF 1
ENDMDL
MODEL 5
REMARK VINA RESULT: -6.811425561      1.902      4.747
REMARK  1 active torsions:
REMARK  status: ('A' for Active; 'I' for Inactive)
REMARK    1  A    between atoms: C4_4  and  C5_5 
ROOT
HETATM    1  C5  UNL     1      34.440  -1.010  36.667  1.00  0.00     0.015 C 
HETATM    2  C6  UNL     1      33.612  -1.559  35.540  1.00  0.00     0.008 C 
HETATM    3  C7  UNL     1      32.175  -1.756  35.879  1.00  0.00     0.028 C 
HETATM    4  C8  UNL     1      31.759  -0.987  37.129  1.00  0.00     0.232 C 
HETATM    5  N1  UNL     1      32.403   0.330  37.002  1.00  0.00    -0.075 N 
ATOM      6  H11 UNL     1      31.933   1.065  37.530  1.00  0.00     0.277 HD
ATOM      7  H12 UNL     1      32.291   0.749  36.078  1.00  0.00     0.277 HD
HETATM    8  C9  UNL     1      33.780   0.143  37.381  1.00  0.00     0.237 C 
ENDROOT
BRANCH   1   9
HETATM    9  C4  UNL     1      35.754  -0.500  36.125  1.00  0.00    -0.009 C 
HETATM   10  C3  UNL     1      35.611   0.729  35.282  1.00  0.00     0.005 C 
HETATM   11  C2  UNL     1      37.019   1.309  35.100  1.00  0.00     0.000 C 
HETATM   12  C1  UNL     1      37.854   0.267  34.429  1.00  0.00     0.000 C 
HETATM   13  C11 UNL     1      37.036  -0.956  34.049  1.00  0.00     0.000 C 
HETATM   14  C10 UNL     1      36.425  -1.563  35.274  1.00  0.00     0.005 C 
ENDBRANCH   1   9
TORSDOF 1
ENDMDL
