MODEL 1
REMARK VINA RESULT: -7.201048499      0.000      0.000
REMARK  2 active torsions:
REMARK  status: ('A' for Active; 'I' for Inactive)
REMARK    1  A    between atoms: C1_4  and  C2_5 
REMARK    2  A    between atoms: C1_4  and  C8_11 
ROOT
HETATM    1  N1  UNL     1      34.415   2.237  36.498  1.00  0.00    -0.405 N 
ATOM      2  H11 UNL     1      33.714   2.074  37.220  1.00  0.00     0.155 HD
ATOM      3  H12 UNL     1      34.775   3.169  36.294  1.00  0.00     0.155 HD
HETATM    4  C1  UNL     1      34.847   1.237  35.836  1.00  0.00    -0.012 C 
ENDROOT
BRANCH   4   5
HETATM    5  C2  UNL     1      35.865   1.473  34.789  1.00  0.00     0.031 C 
HETATM    6  C3  UNL     1      37.065   0.604  34.995  1.00  0.00     0.010 C 
HETATM    7  C4  UNL     1      37.643  -0.004  33.778  1.00  0.00     0.001 C 
HETATM    8  C5  UNL     1      37.416   0.667  32.490  1.00  0.00     0.000 C 
HETATM    9  C6  UNL     1      36.326   1.674  32.439  1.00  0.00     0.001 C 
HETATM   10  C7  UNL     1      35.262   1.257  33.446  1.00  0.00     0.010 C 
ENDBRANCH   4   5
BRANCH   4  11
HETATM   11  C8  UNL     1      34.331  -0.098  36.129  1.00  0.00     0.031 C 
HETATM   12  C9  UNL     1      32.891  -0.283  35.698  1.00  0.00     0.010 C 
HETATM   13  C10 UNL     1      32.512  -1.568  36.401  1.00  0.00     0.001 C 
HETATM   14  C11 UNL     1      33.458  -1.714  37.573  1.00  0.00     0.001 C 
HETATM   15  C12 UNL     1      34.205  -0.375  37.625  1.00  0.00     0.010 C 
ENDBRANCH   4  11
TORSDOF 2
ENDMDL
MODEL 2
REMARK VINA RESULT: -7.120411215      1.970      4.967
REMARK  2 active torsions:
REMARK  status: ('A' for Active; 'I' for Inactive)
REMARK    1  A    between atoms: C1_4  and  C2_5 
REMARK    2  A    between atoms: C1_4  and  C8_11 
ROOT
HETATM    1  N1  UNL     1      36.305  -2.373  34.359  1.00  0.00    -0.405 N 
ATOM      2  H11 UNL     1      37.147  -2.256  33.796  1.00  0.00     0.155 HD
ATOM      3  H12 UNL     1      35.956  -3.294  34.624  1.00  0.00     0.155 HD
HETATM    4  C1  UNL     1      35.678  -1.331  34.736  1.00  0.00    -0.012 C 
ENDROOT
BRANCH   4   5
HETATM    5  C2  UNL     1      34.456  -1.501  35.553  1.00  0.00     0.031 C 
HETATM    6  C3  UNL     1      34.734  -1.248  37.001  1.00  0.00     0.010 C 
HETATM    7  C4  UNL     1      33.708  -0.477  37.734  1.00  0.00     0.001 C 
HETATM    8  C5  UNL     1      32.328  -0.499  37.227  1.00  0.00     0.000 C 
HETATM    9  C6  UNL     1      32.130  -0.966  35.832  1.00  0.00     0.001 C 
HETATM   10  C7  UNL     1      33.382  -0.608  35.042  1.00  0.00     0.010 C 
ENDBRANCH   4   5
BRANCH   4  11
HETATM   11  C8  UNL     1      36.178  -0.012  34.355  1.00  0.00     0.031 C 
HETATM   12  C9  UNL     1      36.684   0.039  32.929  1.00  0.00     0.010 C 
HETATM   13  C10 UNL     1      37.433   1.354  32.905  1.00  0.00     0.001 C 
HETATM   14  C11 UNL     1      37.805   1.665  34.338  1.00  0.00     0.001 C 
HETATM   15  C12 UNL     1      37.444   0.387  35.109  1.00  0.00     0.010 C 
ENDBRANCH   4  11
TORSDOF 2
ENDMDL
MODEL 3
REMARK VINA RESULT: -7.110277007      0.952      1.058
REMARK  2 active torsions:
REMARK  status: ('A' for Active; 'I' for Inactive)
REMARK    1  A    between atoms: C1_4  and  C2_5 
REMARK    2  A    between atoms: C1_4  and  C8_11 
ROOT
HETATM    1  N1  UNL     1      33.656   2.094  35.243  1.00  0.00    -0.405 N 
ATOM      2  H11 UNL     1      33.032   1.948  36.037  1.00  0.00     0.155 HD
ATOM      3  H12 UNL     1      33.654   2.960  34.706  1.00  0.00     0.155 HD
HETATM    4  C1  UNL     1      34.457   1.157  34.922  1.00  0.00    -0.012 C 
ENDROOT
BRANCH   4   5
HETATM    5  C2  UNL     1      35.361   1.367  33.771  1.00  0.00     0.031 C 
HETATM    6  C3  UNL     1      36.796   1.333  34.196  1.00  0.00     0.010 C 
HETATM    7  C4  UNL     1      37.722   0.612  33.298  1.00  0.00     0.001 C 
HETATM    8  C5  UNL     1      37.357   0.484  31.880  1.00  0.00     0.000 C 
HETATM    9  C6  UNL     1      35.939   0.742  31.523  1.00  0.00     0.001 C 
HETATM   10  C7  UNL     1      35.082   0.351  32.721  1.00  0.00     0.010 C 
ENDBRANCH   4   5
BRANCH   4  11
HETATM   11  C8  UNL     1      34.459  -0.085  35.693  1.00  0.00     0.031 C 
HETATM   12  C9  UNL     1      33.067  -0.565  36.045  1.00  0.00     0.010 C 
HETATM   13  C10 UNL     1      33.350  -1.621  37.090  1.00  0.00     0.001 C 
HETATM   14  C11 UNL     1      34.707  -1.296  37.676  1.00  0.00     0.001 C 
HETATM   15  C12 UNL     1      35.051   0.081  37.091  1.00  0.00     0.010 C 
ENDBRANCH   4  11
TORSDOF 2
ENDMDL
MODEL 4
REMARK VINA RESULT: -6.968282842      1.823      5.205
REMARK  2 active torsions:
REMARK  status: ('A' for Active; 'I' for Inactive)
REMARK    1  A    between atoms: C1_4  and  C2_5 
REMARK    2  A    between atoms: C1_4  and  C8_11 
ROOT
HETATM    1  N1  UNL     1      36.341  -2.317  34.734  1.00  0.00    -0.405 N 
ATOM      2  H11 UNL     1      37.092  -2.668  34.140  1.00  0.00     0.155 HD
ATOM      3  H12 UNL     1      35.892  -2.901  35.440  1.00  0.00     0.155 HD
HETATM    4  C1  UNL     1      35.961  -1.111  34.582  1.00  0.00    -0.012 C 
ENDROOT
BRANCH   4   5
HETATM    5  C2  UNL     1      34.872  -0.602  35.444  1.00  0.00     0.031 C 
HETATM    6  C3  UNL     1      33.580  -1.298  35.153  1.00  0.00     0.010 C 
HETATM    7  C4  UNL     1      32.760  -1.662  36.328  1.00  0.00     0.001 C 
HETATM    8  C5  UNL     1      32.930  -0.884  37.563  1.00  0.00     0.000 C 
HETATM    9  C6  UNL     1      34.157  -0.055  37.673  1.00  0.00     0.001 C 
HETATM   10  C7  UNL     1      35.256  -0.745  36.875  1.00  0.00     0.010 C 
ENDBRANCH   4   5
BRANCH   4  11
HETATM   11  C8  UNL     1      36.604  -0.275  33.572  1.00  0.00     0.031 C 
HETATM   12  C9  UNL     1      37.308   0.929  34.161  1.00  0.00     0.010 C 
HETATM   13  C10 UNL     1      37.575   1.773  32.935  1.00  0.00     0.001 C 
HETATM   14  C11 UNL     1      36.567   1.346  31.889  1.00  0.00     0.001 C 
HETATM   15  C12 UNL     1      35.607   0.419  32.647  1.00  0.00     0.010 C 
ENDBRANCH   4  11
TORSDOF 2
ENDMDL
MODEL 5
REMARK VINA RESULT: -6.963187529      0.574      1.842
REMARK  2 active torsions:
REMARK  status: ('A' for Active; 'I' for Inactive)
REMARK    1  A    between atoms: C1_4  and  C2_5 
REMARK    2  A    between atoms: C1_4  and  C8_11 
ROOT
HETATM    1  N1  UNL     1      35.093   2.159  36.563  1.00  0.00    -0.405 N 
ATOM      2  H11 UNL     1      34.580   2.501  37.376  1.00  0.00     0.155 HD
ATOM      3  H12 UNL     1      35.861   2.686  36.147  1.00  0.00     0.155 HD
HETATM    4  C1  UNL     1      34.755   1.039  36.060  1.00  0.00    -0.012 C 
ENDROOT
BRANCH   4   5
HETATM    5  C2  UNL     1      35.498   0.543  34.881  1.00  0.00     0.031 C 
HETATM    6  C3  UNL     1      35.157   1.329  33.655  1.00  0.00     0.010 C 
HETATM    7  C4  UNL     1      36.288   1.669  32.766  1.00  0.00     0.001 C 
HETATM    8  C5  UNL     1      37.479   0.809  32.798  1.00  0.00     0.000 C 
HETATM    9  C6  UNL     1      37.627  -0.096  33.966  1.00  0.00     0.001 C 
HETATM   10  C7  UNL     1      36.959   0.576  35.159  1.00  0.00     0.010 C 
ENDBRANCH   4   5
BRANCH   4  11
HETATM   11  C8  UNL     1      33.655   0.284  36.656  1.00  0.00     0.031 C 
HETATM   12  C9  UNL     1      34.117  -0.962  37.381  1.00  0.00     0.010 C 
HETATM   13  C10 UNL     1      32.817  -1.708  37.590  1.00  0.00     0.001 C 
HETATM   14  C11 UNL     1      31.854  -1.200  36.540  1.00  0.00     0.001 C 
HETATM   15  C12 UNL     1      32.723  -0.334  35.617  1.00  0.00     0.010 C 
ENDBRANCH   4  11
TORSDOF 2
ENDMDL
