MODEL 1
REMARK VINA RESULT: -6.981235257      0.000      0.000
REMARK  2 active torsions:
REMARK  status: ('A' for Active; 'I' for Inactive)
REMARK    1  A    between atoms: C5_5  and  N1_6 
REMARK    2  A    between atoms: N1_6  and  C6_8 
ROOT
HETATM    1  C1  UNL     1      37.766   0.640  34.801  1.00  0.00     0.038 C 
HETATM    2  C2  UNL     1      37.613  -0.887  35.132  1.00  0.00     0.083 C 
HETATM    3  C3  UNL     1      36.378  -1.276  34.606  1.00  0.00    -0.181 C 
HETATM    4  C4  UNL     1      35.110  -1.596  34.087  1.00  0.00     0.108 C 
HETATM    5  C5  UNL     1      34.522  -0.261  33.532  1.00  0.00     0.110 C 
HETATM    6  C11 UNL     1      35.575   0.824  33.408  1.00  0.00    -0.005 C 
HETATM    7  C12 UNL     1      36.405   1.271  34.483  1.00  0.00    -0.028 C 
ENDROOT
BRANCH   5   8
HETATM    8  N1  UNL     1      33.404   0.200  34.261  1.00  0.00    -0.409 N 
ATOM      9  H1  UNL     1      32.914   1.053  33.990  1.00  0.00     0.154 HD
BRANCH   8  10
HETATM   10  C6  UNL     1      32.986  -0.561  35.385  1.00  0.00     0.077 C 
HETATM   11  C7  UNL     1      33.396   0.082  36.702  1.00  0.00     0.024 C 
HETATM   12  C8  UNL     1      32.529  -0.632  37.723  1.00  0.00     0.002 C 
HETATM   13  C9  UNL     1      31.193  -0.652  37.014  1.00  0.00     0.002 C 
HETATM   14  C10 UNL     1      31.488  -0.647  35.536  1.00  0.00     0.024 C 
ENDBRANCH   8  10
ENDBRANCH   5   8
TORSDOF 2
ENDMDL
MODEL 2
REMARK VINA RESULT: -6.979252914      1.778      4.659
REMARK  2 active torsions:
REMARK  status: ('A' for Active; 'I' for Inactive)
REMARK    1  A    between atoms: C5_5  and  N1_6 
REMARK    2  A    between atoms: N1_6  and  C6_8 
ROOT
HETATM    1  C1  UNL     1      34.820  -0.631  37.732  1.00  0.00     0.038 C 
HETATM    2  C2  UNL     1      35.142   0.900  37.589  1.00  0.00     0.083 C 
HETATM    3  C3  UNL     1      34.599   1.297  36.364  1.00  0.00    -0.181 C 
HETATM    4  C4  UNL     1      34.063   1.626  35.106  1.00  0.00     0.108 C 
HETATM    5  C5  UNL     1      33.506   0.294  34.513  1.00  0.00     0.110 C 
HETATM    6  C11 UNL     1      33.401  -0.802  35.557  1.00  0.00    -0.005 C 
HETATM    7  C12 UNL     1      34.489  -1.251  36.370  1.00  0.00    -0.028 C 
ENDROOT
BRANCH   5   8
HETATM    8  N1  UNL     1      34.224  -0.154  33.382  1.00  0.00    -0.409 N 
ATOM      9  H1  UNL     1      33.929  -0.983  32.866  1.00  0.00     0.154 HD
BRANCH   8  10
HETATM   10  C6  UNL     1      35.370   0.587  32.988  1.00  0.00     0.077 C 
HETATM   11  C7  UNL     1      36.666  -0.084  33.419  1.00  0.00     0.024 C 
HETATM   12  C8  UNL     1      37.716   0.614  32.574  1.00  0.00     0.002 C 
HETATM   13  C9  UNL     1      37.033   0.655  31.226  1.00  0.00     0.002 C 
HETATM   14  C10 UNL     1      35.550   0.677  31.494  1.00  0.00     0.024 C 
ENDBRANCH   8  10
ENDBRANCH   5   8
TORSDOF 2
ENDMDL
MODEL 3
REMARK VINA RESULT: -6.894441725      1.664      5.096
REMARK  2 active torsions:
REMARK  status: ('A' for Active; 'I' for Inactive)
REMARK    1  A    between atoms: C5_5  and  N1_6 
REMARK    2  A    between atoms: N1_6  and  C6_8 
ROOT
HETATM    1  C1  UNL     1      32.470  -1.530  36.281  1.00  0.00     0.038 C 
HETATM    2  C2  UNL     1      32.962  -0.935  37.649  1.00  0.00     0.083 C 
HETATM    3  C3  UNL     1      33.691   0.215  37.331  1.00  0.00    -0.181 C 
HETATM    4  C4  UNL     1      34.443   1.339  36.944  1.00  0.00     0.108 C 
HETATM    5  C5  UNL     1      34.438   1.345  35.384  1.00  0.00     0.110 C 
HETATM    6  C11 UNL     1      33.396   0.405  34.808  1.00  0.00    -0.005 C 
HETATM    7  C12 UNL     1      33.306  -0.989  35.115  1.00  0.00    -0.028 C 
ENDROOT
BRANCH   5   8
HETATM    8  N1  UNL     1      35.709   1.094  34.822  1.00  0.00    -0.409 N 
ATOM      9  H1  UNL     1      36.557   1.163  35.386  1.00  0.00     0.154 HD
BRANCH   8  10
HETATM   10  C6  UNL     1      35.768   0.744  33.447  1.00  0.00     0.077 C 
HETATM   11  C7  UNL     1      35.775   1.966  32.541  1.00  0.00     0.024 C 
HETATM   12  C8  UNL     1      36.246   1.410  31.209  1.00  0.00     0.002 C 
HETATM   13  C9  UNL     1      37.378   0.508  31.649  1.00  0.00     0.002 C 
HETATM   14  C10 UNL     1      37.052   0.059  33.050  1.00  0.00     0.024 C 
ENDBRANCH   8  10
ENDBRANCH   5   8
TORSDOF 2
ENDMDL
MODEL 4
REMARK VINA RESULT: -6.871871561      1.176      1.981
REMARK  2 active torsions:
REMARK  status: ('A' for Active; 'I' for Inactive)
REMARK    1  A    between atoms: C5_5  and  N1_6 
REMARK    2  A    between atoms: N1_6  and  C6_8 
ROOT
HETATM    1  C1  UNL     1      36.315   1.628  32.666  1.00  0.00     0.038 C 
HETATM    2  C2  UNL     1      37.669   0.980  33.130  1.00  0.00     0.083 C 
HETATM    3  C3  UNL     1      37.328  -0.213  33.773  1.00  0.00    -0.181 C 
HETATM    4  C4  UNL     1      36.917  -1.381  34.440  1.00  0.00     0.108 C 
HETATM    5  C5  UNL     1      35.357  -1.366  34.417  1.00  0.00     0.110 C 
HETATM    6  C11 UNL     1      34.806  -0.348  33.436  1.00  0.00    -0.005 C 
HETATM    7  C12 UNL     1      35.133   1.045  33.448  1.00  0.00    -0.028 C 
ENDROOT
BRANCH   5   8
HETATM    8  N1  UNL     1      34.783  -1.197  35.696  1.00  0.00    -0.409 N 
ATOM      9  H1  UNL     1      35.327  -1.363  36.543  1.00  0.00     0.154 HD
BRANCH   8  10
HETATM   10  C6  UNL     1      33.424  -0.790  35.763  1.00  0.00     0.077 C 
HETATM   11  C7  UNL     1      32.467  -1.973  35.764  1.00  0.00     0.024 C 
HETATM   12  C8  UNL     1      31.162  -1.366  36.245  1.00  0.00     0.002 C 
HETATM   13  C9  UNL     1      31.644  -0.493  37.382  1.00  0.00     0.002 C 
HETATM   14  C10 UNL     1      33.061  -0.100  37.054  1.00  0.00     0.024 C 
ENDBRANCH   8  10
ENDBRANCH   5   8
TORSDOF 2
ENDMDL
MODEL 5
REMARK VINA RESULT: -6.807221908      1.505      4.993
REMARK  2 active torsions:
REMARK  status: ('A' for Active; 'I' for Inactive)
REMARK    1  A    between atoms: C5_5  and  N1_6 
REMARK    2  A    between atoms: N1_6  and  C6_8 
ROOT
HETATM    1  C1  UNL     1      32.130  -0.452  37.483  1.00  0.00     0.038 C 
HETATM    2  C2  UNL     1      31.760  -1.212  36.159  1.00  0.00     0.083 C 
HETATM    3  C3  UNL     1      32.974  -1.523  35.540  1.00  0.00    -0.181 C 
HETATM    4  C4  UNL     1      34.226  -1.773  34.949  1.00  0.00     0.108 C 
HETATM    5  C5  UNL     1      35.285  -1.110  35.883  1.00  0.00     0.110 C 
HETATM    6  C11 UNL     1      34.705  -0.734  37.234  1.00  0.00    -0.005 C 
HETATM    7  C12 UNL     1      33.558   0.101  37.418  1.00  0.00    -0.028 C 
ENDROOT
BRANCH   5   8
HETATM    8  N1  UNL     1      35.937  -0.007  35.290  1.00  0.00    -0.409 N 
ATOM      9  H1  UNL     1      36.378   0.714  35.861  1.00  0.00     0.154 HD
BRANCH   8  10
HETATM   10  C6  UNL     1      35.959   0.064  33.871  1.00  0.00     0.077 C 
HETATM   11  C7  UNL     1      35.559   1.440  33.357  1.00  0.00     0.024 C 
HETATM   12  C8  UNL     1      36.035   1.425  31.916  1.00  0.00     0.002 C 
HETATM   13  C9  UNL     1      37.400   0.791  32.062  1.00  0.00     0.002 C 
HETATM   14  C10 UNL     1      37.336  -0.098  33.277  1.00  0.00     0.024 C 
ENDBRANCH   8  10
ENDBRANCH   5   8
TORSDOF 2
ENDMDL
