MODEL 1
REMARK VINA RESULT: -6.526543172      0.000      0.000
REMARK  2 active torsions:
REMARK  status: ('A' for Active; 'I' for Inactive)
REMARK    1  A    between atoms: C4_4  and  C5_5 
REMARK    2  A    between atoms: C5_5  and  C6_6 
ROOT
HETATM    1  C1  UNL     1      37.133   0.951  32.938  1.00  0.00     0.108 C 
HETATM    2  C2  UNL     1      37.234   0.937  34.506  1.00  0.00     0.040 C 
HETATM    3  C3  UNL     1      36.451  -0.184  35.113  1.00  0.00    -0.021 C 
HETATM    4  C4  UNL     1      35.085  -0.506  34.954  1.00  0.00    -0.065 C 
HETATM    5  C9  UNL     1      34.503  -1.192  33.735  1.00  0.00     0.162 C 
HETATM    6  N1  UNL     1      34.930  -0.611  32.429  1.00  0.00    -0.357 N 
ATOM      7  H1  UNL     1      34.477  -0.757  31.528  1.00  0.00     0.169 HD
HETATM    8  C10 UNL     1      36.021   0.138  32.658  1.00  0.00    -0.075 C 
ENDROOT
BRANCH   4   9
HETATM    9  C5  UNL     1      34.099   0.444  35.574  1.00  0.00     0.040 C 
BRANCH   9  10
HETATM   10  C6  UNL     1      33.463   0.107  36.855  1.00  0.00    -0.011 A 
HETATM   11  C7  UNL     1      32.079  -0.445  37.023  1.00  0.00     0.005 A 
HETATM   12  C8  UNL     1      33.354  -1.258  37.357  1.00  0.00     0.005 A 
ENDBRANCH   9  10
ENDBRANCH   4   9
TORSDOF 2
ENDMDL
MODEL 2
REMARK VINA RESULT: -6.520436156      1.540      4.494
REMARK  2 active torsions:
REMARK  status: ('A' for Active; 'I' for Inactive)
REMARK    1  A    between atoms: C4_4  and  C5_5 
REMARK    2  A    between atoms: C5_5  and  C6_6 
ROOT
HETATM    1  C1  UNL     1      32.972  -0.994  37.133  1.00  0.00     0.108 C 
HETATM    2  C2  UNL     1      34.542  -0.956  37.182  1.00  0.00     0.040 C 
HETATM    3  C3  UNL     1      35.105   0.183  36.391  1.00  0.00    -0.021 C 
HETATM    4  C4  UNL     1      34.895   0.517  35.035  1.00  0.00    -0.065 C 
HETATM    5  C9  UNL     1      33.646   1.189  34.501  1.00  0.00     0.162 C 
HETATM    6  N1  UNL     1      32.365   0.583  34.966  1.00  0.00    -0.357 N 
ATOM      7  H1  UNL     1      31.447   0.719  34.545  1.00  0.00     0.169 HD
HETATM    8  C10 UNL     1      32.642  -0.174  36.040  1.00  0.00    -0.075 C 
ENDROOT
BRANCH   4   9
HETATM    9  C5  UNL     1      35.496  -0.413  34.018  1.00  0.00     0.040 C 
BRANCH   9  10
HETATM   10  C6  UNL     1      36.806  -0.105  33.429  1.00  0.00    -0.011 A 
HETATM   11  C7  UNL     1      37.036   0.450  32.055  1.00  0.00     0.005 A 
HETATM   12  C8  UNL     1      37.346   1.248  33.345  1.00  0.00     0.005 A 
ENDBRANCH   9  10
ENDBRANCH   4   9
TORSDOF 2
ENDMDL
MODEL 3
REMARK VINA RESULT: -6.391724495      1.596      2.011
REMARK  2 active torsions:
REMARK  status: ('A' for Active; 'I' for Inactive)
REMARK    1  A    between atoms: C4_4  and  C5_5 
REMARK    2  A    between atoms: C5_5  and  C6_6 
ROOT
HETATM    1  C1  UNL     1      35.881   1.564  32.380  1.00  0.00     0.108 C 
HETATM    2  C2  UNL     1      37.185   0.992  33.044  1.00  0.00     0.040 C 
HETATM    3  C3  UNL     1      37.060  -0.463  33.372  1.00  0.00    -0.021 C 
HETATM    4  C4  UNL     1      36.081  -1.122  34.148  1.00  0.00    -0.065 C 
HETATM    5  C9  UNL     1      34.680  -1.443  33.668  1.00  0.00     0.162 C 
HETATM    6  N1  UNL     1      33.971  -0.307  33.011  1.00  0.00    -0.357 N 
ATOM      7  H1  UNL     1      32.967  -0.238  32.846  1.00  0.00     0.169 HD
HETATM    8  C10 UNL     1      34.895   0.607  32.676  1.00  0.00    -0.075 C 
ENDROOT
BRANCH   4   9
HETATM    9  C5  UNL     1      36.107  -0.848  35.627  1.00  0.00     0.040 C 
BRANCH   9  10
HETATM   10  C6  UNL     1      35.089   0.025  36.227  1.00  0.00    -0.011 A 
HETATM   11  C7  UNL     1      35.145   0.607  37.608  1.00  0.00     0.005 A 
HETATM   12  C8  UNL     1      35.237   1.472  36.327  1.00  0.00     0.005 A 
ENDBRANCH   9  10
ENDBRANCH   4   9
TORSDOF 2
ENDMDL
MODEL 4
REMARK VINA RESULT: -6.375776481      1.669      4.038
REMARK  2 active torsions:
REMARK  status: ('A' for Active; 'I' for Inactive)
REMARK    1  A    between atoms: C4_4  and  C5_5 
REMARK    2  A    between atoms: C5_5  and  C6_6 
ROOT
HETATM    1  C1  UNL     1      32.338  -1.566  35.813  1.00  0.00     0.108 C 
HETATM    2  C2  UNL     1      32.986  -1.055  37.150  1.00  0.00     0.040 C 
HETATM    3  C3  UNL     1      33.341   0.397  37.087  1.00  0.00    -0.021 C 
HETATM    4  C4  UNL     1      34.148   1.078  36.149  1.00  0.00    -0.065 C 
HETATM    5  C9  UNL     1      33.701   1.460  34.752  1.00  0.00     0.162 C 
HETATM    6  N1  UNL     1      33.038   0.364  33.988  1.00  0.00    -0.357 N 
ATOM      7  H1  UNL     1      32.892   0.336  32.980  1.00  0.00     0.169 HD
HETATM    8  C10 UNL     1      32.669  -0.578  34.871  1.00  0.00    -0.075 C 
ENDROOT
BRANCH   4   9
HETATM    9  C5  UNL     1      35.620   0.778  36.192  1.00  0.00     0.040 C 
BRANCH   9  10
HETATM   10  C6  UNL     1      36.243   0.010  35.105  1.00  0.00    -0.011 A 
HETATM   11  C7  UNL     1      37.611  -0.603  35.143  1.00  0.00     0.005 A 
HETATM   12  C8  UNL     1      36.314  -1.447  35.095  1.00  0.00     0.005 A 
ENDBRANCH   9  10
ENDBRANCH   4   9
TORSDOF 2
ENDMDL
MODEL 5
REMARK VINA RESULT: -6.267995781      1.465      4.378
REMARK  2 active torsions:
REMARK  status: ('A' for Active; 'I' for Inactive)
REMARK    1  A    between atoms: C4_4  and  C5_5 
REMARK    2  A    between atoms: C5_5  and  C6_6 
ROOT
HETATM    1  C1  UNL     1      31.709  -1.056  36.634  1.00  0.00     0.108 C 
HETATM    2  C2  UNL     1      33.160  -1.311  37.180  1.00  0.00     0.040 C 
HETATM    3  C3  UNL     1      34.143  -0.308  36.664  1.00  0.00    -0.021 C 
HETATM    4  C4  UNL     1      34.443   0.041  35.328  1.00  0.00    -0.065 C 
HETATM    5  C9  UNL     1      33.575   0.927  34.458  1.00  0.00     0.162 C 
HETATM    6  N1  UNL     1      32.125   0.577  34.464  1.00  0.00    -0.357 N 
ATOM      7  H1  UNL     1      31.431   0.876  33.780  1.00  0.00     0.169 HD
HETATM    8  C10 UNL     1      31.901  -0.204  35.533  1.00  0.00    -0.075 C 
ENDROOT
BRANCH   4   9
HETATM    9  C5  UNL     1      35.160  -0.998  34.512  1.00  0.00     0.040 C 
BRANCH   9  10
HETATM   10  C6  UNL     1      36.582  -0.823  34.190  1.00  0.00    -0.011 A 
HETATM   11  C7  UNL     1      37.315   0.485  34.159  1.00  0.00     0.005 A 
HETATM   12  C8  UNL     1      37.611  -0.619  35.204  1.00  0.00     0.005 A 
ENDBRANCH   9  10
ENDBRANCH   4   9
TORSDOF 2
ENDMDL
