MODEL 1
REMARK VINA RESULT: -6.191001355      0.000      0.000
REMARK  2 active torsions:
REMARK  status: ('A' for Active; 'I' for Inactive)
REMARK    1  A    between atoms: C4_4  and  N1_5 
REMARK    2  A    between atoms: N1_5  and  C5_7 
ROOT
HETATM    1  N1  UNL     1      34.457   0.102  34.292  1.00  0.00    -0.413 N 
ATOM      2  H1  UNL     1      34.080  -0.741  33.860  1.00  0.00     0.154 HD
ENDROOT
BRANCH   1   3
HETATM    3  C4  UNL     1      35.581   0.797  33.760  1.00  0.00     0.077 C 
HETATM    4  C3  UNL     1      35.215   1.399  32.408  1.00  0.00     0.024 C 
HETATM    5  C2  UNL     1      36.251   0.889  31.426  1.00  0.00     0.002 C 
HETATM    6  C1  UNL     1      37.432   0.573  32.359  1.00  0.00     0.002 C 
HETATM    7  C10 UNL     1      36.673  -0.207  33.432  1.00  0.00     0.024 C 
ENDBRANCH   1   3
BRANCH   1   8
HETATM    8  C5  UNL     1      33.897   0.673  35.475  1.00  0.00     0.077 C 
HETATM    9  C6  UNL     1      34.885   1.429  36.315  1.00  0.00     0.024 C 
HETATM   10  C7  UNL     1      35.121   0.597  37.551  1.00  0.00     0.002 C 
HETATM   11  C8  UNL     1      34.697  -0.783  37.104  1.00  0.00     0.002 C 
HETATM   12  C9  UNL     1      33.416  -0.482  36.350  1.00  0.00     0.024 C 
ENDBRANCH   1   8
TORSDOF 2
ENDMDL
MODEL 2
REMARK VINA RESULT: -6.181961987      1.545      2.517
REMARK  2 active torsions:
REMARK  status: ('A' for Active; 'I' for Inactive)
REMARK    1  A    between atoms: C4_4  and  N1_5 
REMARK    2  A    between atoms: N1_5  and  C5_7 
ROOT
HETATM    1  N1  UNL     1      34.162  -1.124  34.454  1.00  0.00    -0.413 N 
ATOM      2  H1  UNL     1      33.757  -2.054  34.351  1.00  0.00     0.154 HD
ENDROOT
BRANCH   1   3
HETATM    3  C4  UNL     1      35.384  -0.749  33.826  1.00  0.00     0.077 C 
HETATM    4  C3  UNL     1      36.558  -1.319  34.614  1.00  0.00     0.024 C 
HETATM    5  C2  UNL     1      37.456  -0.143  34.943  1.00  0.00     0.002 C 
HETATM    6  C1  UNL     1      37.080   0.853  33.833  1.00  0.00     0.002 C 
HETATM    7  C10 UNL     1      35.559   0.756  33.944  1.00  0.00     0.024 C 
ENDBRANCH   1   3
BRANCH   1   8
HETATM    8  C5  UNL     1      33.545  -0.101  35.238  1.00  0.00     0.077 C 
HETATM    9  C6  UNL     1      33.599  -0.351  36.717  1.00  0.00     0.024 C 
HETATM   10  C7  UNL     1      32.192  -0.691  37.145  1.00  0.00     0.002 C 
HETATM   11  C8  UNL     1      31.555  -1.138  35.850  1.00  0.00     0.002 C 
HETATM   12  C9  UNL     1      32.061  -0.090  34.878  1.00  0.00     0.024 C 
ENDBRANCH   1   8
TORSDOF 2
ENDMDL
MODEL 3
REMARK VINA RESULT: -6.179196320      1.485      4.499
REMARK  2 active torsions:
REMARK  status: ('A' for Active; 'I' for Inactive)
REMARK    1  A    between atoms: C4_4  and  N1_5 
REMARK    2  A    between atoms: N1_5  and  C5_7 
ROOT
HETATM    1  N1  UNL     1      34.312  -0.170  34.481  1.00  0.00    -0.413 N 
ATOM      2  H1  UNL     1      33.890   0.664  34.074  1.00  0.00     0.154 HD
ENDROOT
BRANCH   1   3
HETATM    3  C4  UNL     1      33.762  -0.827  35.618  1.00  0.00     0.077 C 
HETATM    4  C3  UNL     1      32.427  -1.461  35.244  1.00  0.00     0.024 C 
HETATM    5  C2  UNL     1      31.413  -0.925  36.237  1.00  0.00     0.002 C 
HETATM    6  C1  UNL     1      32.314  -0.550  37.426  1.00  0.00     0.002 C 
HETATM    7  C10 UNL     1      33.395   0.214  36.662  1.00  0.00     0.024 C 
ENDBRANCH   1   3
BRANCH   1   8
HETATM    8  C5  UNL     1      35.497  -0.765  33.952  1.00  0.00     0.077 C 
HETATM    9  C6  UNL     1      36.353  -1.441  34.983  1.00  0.00     0.024 C 
HETATM   10  C7  UNL     1      37.581  -0.581  35.151  1.00  0.00     0.002 C 
HETATM   11  C8  UNL     1      37.114   0.761  34.636  1.00  0.00     0.002 C 
HETATM   12  C9  UNL     1      36.355   0.364  33.385  1.00  0.00     0.024 C 
ENDBRANCH   1   8
TORSDOF 2
ENDMDL
MODEL 4
REMARK VINA RESULT: -6.171424687      0.772      4.467
REMARK  2 active torsions:
REMARK  status: ('A' for Active; 'I' for Inactive)
REMARK    1  A    between atoms: C4_4  and  N1_5 
REMARK    2  A    between atoms: N1_5  and  C5_7 
ROOT
HETATM    1  N1  UNL     1      34.396   1.151  34.208  1.00  0.00    -0.413 N 
ATOM      2  H1  UNL     1      34.286   2.077  33.796  1.00  0.00     0.154 HD
ENDROOT
BRANCH   1   3
HETATM    3  C4  UNL     1      33.754   0.773  35.421  1.00  0.00     0.077 C 
HETATM    4  C3  UNL     1      34.585   1.249  36.607  1.00  0.00     0.024 C 
HETATM    5  C2  UNL     1      34.842   0.022  37.461  1.00  0.00     0.002 C 
HETATM    6  C1  UNL     1      33.667  -0.885  37.060  1.00  0.00     0.002 C 
HETATM    7  C10 UNL     1      33.775  -0.741  35.542  1.00  0.00     0.024 C 
ENDBRANCH   1   3
BRANCH   1   8
HETATM    8  C5  UNL     1      35.207   0.137  33.611  1.00  0.00     0.077 C 
HETATM    9  C6  UNL     1      36.681   0.393  33.717  1.00  0.00     0.024 C 
HETATM   10  C7  UNL     1      37.156   0.746  32.329  1.00  0.00     0.002 C 
HETATM   11  C8  UNL     1      35.881   1.192  31.651  1.00  0.00     0.002 C 
HETATM   12  C9  UNL     1      34.898   0.135  32.115  1.00  0.00     0.024 C 
ENDBRANCH   1   8
TORSDOF 2
ENDMDL
MODEL 5
REMARK VINA RESULT: -6.119448522      1.109      4.547
REMARK  2 active torsions:
REMARK  status: ('A' for Active; 'I' for Inactive)
REMARK    1  A    between atoms: C4_4  and  N1_5 
REMARK    2  A    between atoms: N1_5  and  C5_7 
ROOT
HETATM    1  N1  UNL     1      34.689   1.230  35.149  1.00  0.00    -0.413 N 
ATOM      2  H1  UNL     1      34.450   2.063  34.612  1.00  0.00     0.154 HD
ENDROOT
BRANCH   1   3
HETATM    3  C4  UNL     1      33.990   0.858  36.333  1.00  0.00     0.077 C 
HETATM    4  C3  UNL     1      34.840  -0.115  37.141  1.00  0.00     0.024 C 
HETATM    5  C2  UNL     1      33.975  -1.340  37.372  1.00  0.00     0.002 C 
HETATM    6  C1  UNL     1      32.562  -0.749  37.240  1.00  0.00     0.002 C 
HETATM    7  C10 UNL     1      32.765   0.044  35.949  1.00  0.00     0.024 C 
ENDBRANCH   1   3
BRANCH   1   8
HETATM    8  C5  UNL     1      35.749   0.351  34.770  1.00  0.00     0.077 C 
HETATM    9  C6  UNL     1      37.053   1.045  34.509  1.00  0.00     0.024 C 
HETATM   10  C7  UNL     1      37.279   0.987  33.018  1.00  0.00     0.002 C 
HETATM   11  C8  UNL     1      35.884   0.762  32.484  1.00  0.00     0.002 C 
HETATM   12  C9  UNL     1      35.352  -0.288  33.441  1.00  0.00     0.024 C 
ENDBRANCH   1   8
TORSDOF 2
ENDMDL
