MODEL 1
REMARK VINA RESULT: -6.351616522      0.000      0.000
REMARK  2 active torsions:
REMARK  status: ('A' for Active; 'I' for Inactive)
REMARK    1  A    between atoms: C4_4  and  C5_5 
REMARK    2  A    between atoms: C5_5  and  C6_6 
ROOT
HETATM    1  C5  UNL     1      34.713   0.869  33.892  1.00  0.00     0.037 C 
ENDROOT
BRANCH   1   2
HETATM    2  C4  UNL     1      33.648   0.482  34.890  1.00  0.00    -0.013 C 
HETATM    3  C3  UNL     1      33.975   0.955  36.276  1.00  0.00     0.005 C 
HETATM    4  C2  UNL     1      34.221  -0.238  37.204  1.00  0.00     0.000 C 
HETATM    5  C1  UNL     1      32.899  -0.982  37.280  1.00  0.00     0.000 C 
HETATM    6  C10 UNL     1      32.381  -1.355  35.928  1.00  0.00     0.000 C 
HETATM    7  C9  UNL     1      33.355  -0.986  34.833  1.00  0.00     0.005 C 
ENDBRANCH   1   2
BRANCH   1   8
HETATM    8  C6  UNL     1      35.840  -0.099  33.820  1.00  0.00     0.188 C 
HETATM    9  C7  UNL     1      37.171   0.487  34.179  1.00  0.00     0.060 C 
HETATM   10  C8  UNL     1      37.274   0.785  32.701  1.00  0.00     0.235 C 
HETATM   11  N1  UNL     1      36.339  -0.297  32.458  1.00  0.00    -0.071 N 
ATOM     12  H12 UNL     1      36.664  -1.212  32.147  1.00  0.00     0.277 HD
ATOM     13  H11 UNL     1      35.705  -0.273  31.659  1.00  0.00     0.277 HD
ENDBRANCH   1   8
TORSDOF 2
ENDMDL
MODEL 2
REMARK VINA RESULT: -6.328935716      1.841      4.532
REMARK  2 active torsions:
REMARK  status: ('A' for Active; 'I' for Inactive)
REMARK    1  A    between atoms: C4_4  and  C5_5 
REMARK    2  A    between atoms: C5_5  and  C6_6 
ROOT
HETATM    1  C5  UNL     1      33.911  -0.935  34.792  1.00  0.00     0.037 C 
ENDROOT
BRANCH   1   2
HETATM    2  C4  UNL     1      34.879  -0.551  33.699  1.00  0.00    -0.013 C 
HETATM    3  C3  UNL     1      36.275  -1.015  33.995  1.00  0.00     0.005 C 
HETATM    4  C2  UNL     1      37.203   0.185  34.208  1.00  0.00     0.000 C 
HETATM    5  C1  UNL     1      37.241   0.920  32.880  1.00  0.00     0.000 C 
HETATM    6  C10 UNL     1      35.875   1.282  32.393  1.00  0.00     0.000 C 
HETATM    7  C9  UNL     1      34.807   0.915  33.397  1.00  0.00     0.005 C 
ENDBRANCH   1   2
BRANCH   1   8
HETATM    8  C6  UNL     1      33.679   0.144  35.787  1.00  0.00     0.188 C 
HETATM    9  C7  UNL     1      34.081  -0.216  37.184  1.00  0.00     0.060 C 
HETATM   10  C8  UNL     1      32.656  -0.702  37.313  1.00  0.00     0.235 C 
HETATM   11  N1  UNL     1      32.290   0.211  36.247  1.00  0.00    -0.071 N 
ATOM     12  H12 UNL     1      31.848   1.107  36.453  1.00  0.00     0.277 HD
ATOM     13  H11 UNL     1      31.518  -0.002  35.616  1.00  0.00     0.277 HD
ENDBRANCH   1   8
TORSDOF 2
ENDMDL
MODEL 3
REMARK VINA RESULT: -6.306775498      1.434      1.921
REMARK  2 active torsions:
REMARK  status: ('A' for Active; 'I' for Inactive)
REMARK    1  A    between atoms: C4_4  and  C5_5 
REMARK    2  A    between atoms: C5_5  and  C6_6 
ROOT
HETATM    1  C5  UNL     1      34.667  -0.328  32.916  1.00  0.00     0.037 C 
ENDROOT
BRANCH   1   2
HETATM    2  C4  UNL     1      34.176  -0.434  34.340  1.00  0.00    -0.013 C 
HETATM    3  C3  UNL     1      33.526   0.835  34.808  1.00  0.00     0.005 C 
HETATM    4  C2  UNL     1      34.348   1.473  35.932  1.00  0.00     0.000 C 
HETATM    5  C1  UNL     1      34.306   0.489  37.087  1.00  0.00     0.000 C 
HETATM    6  C10 UNL     1      34.772  -0.874  36.687  1.00  0.00     0.000 C 
HETATM    7  C9  UNL     1      35.263  -0.902  35.259  1.00  0.00     0.005 C 
ENDBRANCH   1   2
BRANCH   1   8
HETATM    8  C6  UNL     1      35.926   0.452  32.779  1.00  0.00     0.188 C 
HETATM    9  C7  UNL     1      35.790   1.690  31.948  1.00  0.00     0.060 C 
HETATM   10  C8  UNL     1      36.172   0.786  30.799  1.00  0.00     0.235 C 
HETATM   11  N1  UNL     1      36.825  -0.087  31.757  1.00  0.00    -0.071 N 
ATOM     12  H12 UNL     1      37.837  -0.063  31.883  1.00  0.00     0.277 HD
ATOM     13  H11 UNL     1      36.889  -1.091  31.592  1.00  0.00     0.277 HD
ENDBRANCH   1   8
TORSDOF 2
ENDMDL
MODEL 4
REMARK VINA RESULT: -6.282540837      2.348      4.622
REMARK  2 active torsions:
REMARK  status: ('A' for Active; 'I' for Inactive)
REMARK    1  A    between atoms: C4_4  and  C5_5 
REMARK    2  A    between atoms: C5_5  and  C6_6 
ROOT
HETATM    1  C5  UNL     1      32.780   0.288  34.614  1.00  0.00     0.037 C 
ENDROOT
BRANCH   1   2
HETATM    2  C4  UNL     1      34.213   0.432  34.162  1.00  0.00    -0.013 C 
HETATM    3  C3  UNL     1      34.712  -0.801  33.467  1.00  0.00     0.005 C 
HETATM    4  C2  UNL     1      35.824  -1.463  34.287  1.00  0.00     0.000 C 
HETATM    5  C1  UNL     1      36.968  -0.464  34.315  1.00  0.00     0.000 C 
HETATM    6  C10 UNL     1      36.541   0.872  34.831  1.00  0.00     0.000 C 
HETATM    7  C9  UNL     1      35.101   0.862  35.289  1.00  0.00     0.005 C 
ENDBRANCH   1   2
BRANCH   1   8
HETATM    8  C6  UNL     1      32.630  -0.485  35.875  1.00  0.00     0.188 C 
HETATM    9  C7  UNL     1      31.827  -1.740  35.730  1.00  0.00     0.060 C 
HETATM   10  C8  UNL     1      30.653  -0.856  36.080  1.00  0.00     0.235 C 
HETATM   11  N1  UNL     1      31.578   0.041  36.747  1.00  0.00    -0.071 N 
ATOM     12  H12 UNL     1      31.682   0.027  37.761  1.00  0.00     0.277 HD
ATOM     13  H11 UNL     1      31.392   1.042  36.799  1.00  0.00     0.277 HD
ENDBRANCH   1   8
TORSDOF 2
ENDMDL
MODEL 5
REMARK VINA RESULT: -6.246150817      2.539      4.633
REMARK  2 active torsions:
REMARK  status: ('A' for Active; 'I' for Inactive)
REMARK    1  A    between atoms: C4_4  and  C5_5 
REMARK    2  A    between atoms: C5_5  and  C6_6 
ROOT
HETATM    1  C5  UNL     1      33.118   0.064  35.720  1.00  0.00     0.037 C 
ENDROOT
BRANCH   1   2
HETATM    2  C4  UNL     1      34.539  -0.440  35.800  1.00  0.00    -0.013 C 
HETATM    3  C3  UNL     1      35.500   0.644  36.191  1.00  0.00     0.005 C 
HETATM    4  C2  UNL     1      36.465   0.944  35.040  1.00  0.00     0.000 C 
HETATM    5  C1  UNL     1      37.272  -0.325  34.834  1.00  0.00     0.000 C 
HETATM    6  C10 UNL     1      36.403  -1.519  34.608  1.00  0.00     0.000 C 
HETATM    7  C9  UNL     1      34.941  -1.144  34.539  1.00  0.00     0.005 C 
ENDBRANCH   1   2
BRANCH   1   8
HETATM    8  C6  UNL     1      32.152  -0.759  36.494  1.00  0.00     0.188 C 
HETATM    9  C7  UNL     1      31.387  -1.744  35.666  1.00  0.00     0.060 C 
HETATM   10  C8  UNL     1      30.385  -0.624  35.520  1.00  0.00     0.235 C 
HETATM   11  N1  UNL     1      30.891  -0.064  36.759  1.00  0.00    -0.071 N 
ATOM     12  H12 UNL     1      30.392  -0.199  37.638  1.00  0.00     0.277 HD
ATOM     13  H11 UNL     1      30.872   0.942  36.926  1.00  0.00     0.277 HD
ENDBRANCH   1   8
TORSDOF 2
ENDMDL
