MODEL 1
REMARK VINA RESULT: -5.897008281      0.000      0.000
REMARK  0 active torsions:
REMARK  status: ('A' for Active; 'I' for Inactive)
ROOT
HETATM    1  C1  UNL     1      34.199  -0.757  33.395  1.00  0.00     0.002 C 
HETATM    2  C2  UNL     1      34.179   0.728  33.544  1.00  0.00     0.002 C 
HETATM    3  C3  UNL     1      35.119   1.454  32.636  1.00  0.00     0.033 C 
HETATM    4  C4  UNL     1      36.543   1.036  32.779  1.00  0.00     0.186 C 
HETATM    5  C5  UNL     1      37.135   1.348  34.123  1.00  0.00     0.035 C 
HETATM    6  C6  UNL     1      37.091   0.043  34.850  1.00  0.00     0.035 C 
HETATM    7  C7  UNL     1      36.663  -0.983  33.811  1.00  0.00     0.186 C 
HETATM    8  C8  UNL     1      35.290  -1.440  34.159  1.00  0.00     0.033 C 
HETATM    9  N1  UNL     1      36.762  -0.358  32.531  1.00  0.00    -0.067 N 
ATOM     10  H11 UNL     1      37.634  -0.558  32.040  1.00  0.00     0.278 HD
ATOM     11  H12 UNL     1      36.138  -0.755  31.828  1.00  0.00     0.278 HD
ENDROOT
TORSDOF 0
ENDMDL
MODEL 2
REMARK VINA RESULT: -5.894369276      3.131      4.214
REMARK  0 active torsions:
REMARK  status: ('A' for Active; 'I' for Inactive)
ROOT
HETATM    1  C1  UNL     1      33.561   0.821  34.211  1.00  0.00     0.002 C 
HETATM    2  C2  UNL     1      33.735  -0.661  34.155  1.00  0.00     0.002 C 
HETATM    3  C3  UNL     1      32.783  -1.429  35.014  1.00  0.00     0.033 C 
HETATM    4  C4  UNL     1      32.832  -1.053  36.457  1.00  0.00     0.186 C 
HETATM    5  C5  UNL     1      34.142  -1.364  37.121  1.00  0.00     0.035 C 
HETATM    6  C6  UNL     1      34.849  -0.047  37.162  1.00  0.00     0.035 C 
HETATM    7  C7  UNL     1      33.821   0.976  36.702  1.00  0.00     0.186 C 
HETATM    8  C8  UNL     1      34.245   1.480  35.367  1.00  0.00     0.033 C 
HETATM    9  N1  UNL     1      32.548   0.329  36.702  1.00  0.00    -0.067 N 
ATOM     10  H11 UNL     1      32.001   0.494  37.548  1.00  0.00     0.278 HD
ATOM     11  H12 UNL     1      31.878   0.735  36.049  1.00  0.00     0.278 HD
ENDROOT
TORSDOF 0
ENDMDL
MODEL 3
REMARK VINA RESULT: -5.702675655      2.963      3.788
REMARK  0 active torsions:
REMARK  status: ('A' for Active; 'I' for Inactive)
ROOT
HETATM    1  C1  UNL     1      32.800  -0.701  37.138  1.00  0.00     0.002 C 
HETATM    2  C2  UNL     1      34.199  -0.180  37.177  1.00  0.00     0.002 C 
HETATM    3  C3  UNL     1      34.383   1.153  36.526  1.00  0.00     0.033 C 
HETATM    4  C4  UNL     1      33.959   1.191  35.096  1.00  0.00     0.186 C 
HETATM    5  C5  UNL     1      34.777   0.311  34.197  1.00  0.00     0.035 C 
HETATM    6  C6  UNL     1      33.925  -0.903  34.005  1.00  0.00     0.035 C 
HETATM    7  C7  UNL     1      32.587  -0.559  34.641  1.00  0.00     0.186 C 
HETATM    8  C8  UNL     1      32.435  -1.395  35.864  1.00  0.00     0.033 C 
HETATM    9  N1  UNL     1      32.584   0.847  34.894  1.00  0.00    -0.067 N 
ATOM     10  H11 UNL     1      32.123   1.396  34.167  1.00  0.00     0.278 HD
ATOM     11  H12 UNL     1      31.970   1.127  35.659  1.00  0.00     0.278 HD
ENDROOT
TORSDOF 0
ENDMDL
MODEL 4
REMARK VINA RESULT: -5.697515232      1.026      3.110
REMARK  0 active torsions:
REMARK  status: ('A' for Active; 'I' for Inactive)
ROOT
HETATM    1  C1  UNL     1      37.149   0.640  32.778  1.00  0.00     0.002 C 
HETATM    2  C2  UNL     1      37.184   0.133  34.183  1.00  0.00     0.002 C 
HETATM    3  C3  UNL     1      36.494  -1.178  34.386  1.00  0.00     0.033 C 
HETATM    4  C4  UNL     1      35.060  -1.176  33.974  1.00  0.00     0.186 C 
HETATM    5  C5  UNL     1      34.195  -0.261  34.790  1.00  0.00     0.035 C 
HETATM    6  C6  UNL     1      34.034   0.950  33.926  1.00  0.00     0.035 C 
HETATM    7  C7  UNL     1      34.648   0.573  32.587  1.00  0.00     0.186 C 
HETATM    8  C8  UNL     1      35.894   1.369  32.416  1.00  0.00     0.033 C 
HETATM    9  N1  UNL     1      34.857  -0.840  32.596  1.00  0.00    -0.067 N 
ATOM     10  H11 UNL     1      34.110  -1.371  32.147  1.00  0.00     0.278 HD
ATOM     11  H12 UNL     1      35.608  -1.150  31.980  1.00  0.00     0.278 HD
ENDROOT
TORSDOF 0
ENDMDL
MODEL 5
REMARK VINA RESULT: -5.646106685      2.990      4.060
REMARK  0 active torsions:
REMARK  status: ('A' for Active; 'I' for Inactive)
ROOT
HETATM    1  C1  UNL     1      34.829  -1.205  37.054  1.00  0.00     0.002 C 
HETATM    2  C2  UNL     1      35.456  -0.896  35.735  1.00  0.00     0.002 C 
HETATM    3  C3  UNL     1      35.581   0.562  35.434  1.00  0.00     0.033 C 
HETATM    4  C4  UNL     1      34.285   1.300  35.468  1.00  0.00     0.186 C 
HETATM    5  C5  UNL     1      33.312   0.866  34.410  1.00  0.00     0.035 C 
HETATM    6  C6  UNL     1      32.365  -0.033  35.137  1.00  0.00     0.035 C 
HETATM    7  C7  UNL     1      32.732   0.099  36.608  1.00  0.00     0.186 C 
HETATM    8  C8  UNL     1      33.333  -1.190  37.046  1.00  0.00     0.033 C 
HETATM    9  N1  UNL     1      33.609   1.220  36.728  1.00  0.00    -0.067 N 
ATOM     10  H11 UNL     1      33.139   2.084  37.000  1.00  0.00     0.278 HD
ATOM     11  H12 UNL     1      34.236   1.169  37.531  1.00  0.00     0.278 HD
ENDROOT
TORSDOF 0
ENDMDL
