MODEL 1
REMARK VINA RESULT: -5.929388814      0.000      0.000
REMARK  0 active torsions:
REMARK  status: ('A' for Active; 'I' for Inactive)
ROOT
HETATM    1  C1  UNL     1      37.228  -0.338  34.845  1.00  0.00     0.000 C 
HETATM    2  C2  UNL     1      37.035   0.907  34.045  1.00  0.00     0.000 C 
HETATM    3  C3  UNL     1      36.992   0.684  32.561  1.00  0.00     0.002 C 
HETATM    4  C4  UNL     1      35.819   1.421  31.945  1.00  0.00     0.027 C 
HETATM    5  C5  UNL     1      34.847   0.373  31.401  1.00  0.00     0.232 C 
HETATM    6  N1  UNL     1      34.858  -0.755  32.291  1.00  0.00    -0.075 N 
ATOM      7  H11 UNL     1      35.804  -1.096  32.460  1.00  0.00     0.277 HD
ATOM      8  H12 UNL     1      34.472  -1.590  31.850  1.00  0.00     0.277 HD
HETATM    9  C6  UNL     1      34.173  -0.431  33.528  1.00  0.00     0.232 C 
HETATM   10  C7  UNL     1      34.814  -1.021  34.739  1.00  0.00     0.027 C 
HETATM   11  C8  UNL     1      36.242  -1.428  34.548  1.00  0.00     0.002 C 
ENDROOT
TORSDOF 0
ENDMDL
MODEL 2
REMARK VINA RESULT: -5.927288007      2.800      4.337
REMARK  0 active torsions:
REMARK  status: ('A' for Active; 'I' for Inactive)
ROOT
HETATM    1  C1  UNL     1      34.839   0.150  37.324  1.00  0.00     0.000 C 
HETATM    2  C2  UNL     1      33.954  -1.026  37.082  1.00  0.00     0.000 C 
HETATM    3  C3  UNL     1      32.497  -0.686  36.967  1.00  0.00     0.002 C 
HETATM    4  C4  UNL     1      31.884  -1.367  35.759  1.00  0.00     0.027 C 
HETATM    5  C5  UNL     1      31.475  -0.277  34.769  1.00  0.00     0.232 C 
HETATM    6  N1  UNL     1      32.451   0.777  34.833  1.00  0.00    -0.075 N 
ATOM      7  H11 UNL     1      32.598   1.100  35.788  1.00  0.00     0.277 HD
ATOM      8  H12 UNL     1      32.097   1.646  34.431  1.00  0.00     0.277 HD
HETATM    9  C6  UNL     1      33.690   0.357  34.208  1.00  0.00     0.232 C 
HETATM   10  C7  UNL     1      34.910   0.847  34.914  1.00  0.00     0.027 C 
HETATM   11  C8  UNL     1      34.680   1.263  36.333  1.00  0.00     0.002 C 
ENDROOT
TORSDOF 0
ENDMDL
MODEL 3
REMARK VINA RESULT: -5.745526026      1.095      2.785
REMARK  0 active torsions:
REMARK  status: ('A' for Active; 'I' for Inactive)
ROOT
HETATM    1  C1  UNL     1      37.391  -0.285  34.825  1.00  0.00     0.000 C 
HETATM    2  C2  UNL     1      36.365  -1.322  34.508  1.00  0.00     0.000 C 
HETATM    3  C3  UNL     1      34.999  -1.021  35.050  1.00  0.00     0.002 C 
HETATM    4  C4  UNL     1      33.944  -1.229  33.980  1.00  0.00     0.027 C 
HETATM    5  C5  UNL     1      33.328   0.135  33.665  1.00  0.00     0.232 C 
HETATM    6  N1  UNL     1      34.364   1.127  33.753  1.00  0.00    -0.075 N 
ATOM      7  H11 UNL     1      34.862   1.078  34.641  1.00  0.00     0.277 HD
ATOM      8  H12 UNL     1      33.981   2.068  33.845  1.00  0.00     0.277 HD
HETATM    9  C6  UNL     1      35.265   1.019  32.621  1.00  0.00     0.232 C 
HETATM   10  C7  UNL     1      36.695   1.259  32.972  1.00  0.00     0.027 C 
HETATM   11  C8  UNL     1      37.010   1.109  34.427  1.00  0.00     0.002 C 
ENDROOT
TORSDOF 0
ENDMDL
MODEL 4
REMARK VINA RESULT: -5.735472623      2.335      2.847
REMARK  0 active torsions:
REMARK  status: ('A' for Active; 'I' for Inactive)
ROOT
HETATM    1  C1  UNL     1      34.779   0.294  37.353  1.00  0.00     0.000 C 
HETATM    2  C2  UNL     1      34.512   1.316  36.299  1.00  0.00     0.000 C 
HETATM    3  C3  UNL     1      35.097   0.983  34.957  1.00  0.00     0.002 C 
HETATM    4  C4  UNL     1      34.068   1.186  33.862  1.00  0.00     0.027 C 
HETATM    5  C5  UNL     1      33.755  -0.184  33.260  1.00  0.00     0.232 C 
HETATM    6  N1  UNL     1      33.793  -1.158  34.315  1.00  0.00    -0.075 N 
ATOM      7  H11 UNL     1      34.664  -1.112  34.843  1.00  0.00     0.277 HD
ATOM      8  H12 UNL     1      33.885  -2.107  33.953  1.00  0.00     0.277 HD
HETATM    9  C6  UNL     1      32.633  -1.019  35.175  1.00  0.00     0.232 C 
HETATM   10  C7  UNL     1      32.930  -1.237  36.620  1.00  0.00     0.027 C 
HETATM   11  C8  UNL     1      34.376  -1.101  36.983  1.00  0.00     0.002 C 
ENDROOT
TORSDOF 0
ENDMDL
MODEL 5
REMARK VINA RESULT: -5.639876239      2.547      4.149
REMARK  0 active torsions:
REMARK  status: ('A' for Active; 'I' for Inactive)
ROOT
HETATM    1  C1  UNL     1      35.726   0.395  34.740  1.00  0.00     0.000 C 
HETATM    2  C2  UNL     1      35.458  -0.751  35.658  1.00  0.00     0.000 C 
HETATM    3  C3  UNL     1      34.726  -0.374  36.913  1.00  0.00     0.002 C 
HETATM    4  C4  UNL     1      33.577  -1.329  37.167  1.00  0.00     0.027 C 
HETATM    5  C5  UNL     1      32.276  -0.536  37.034  1.00  0.00     0.232 C 
HETATM    6  N1  UNL     1      32.449   0.437  35.990  1.00  0.00    -0.075 N 
ATOM      7  H11 UNL     1      33.283   1.004  36.134  1.00  0.00     0.277 HD
ATOM      8  H12 UNL     1      31.749   1.178  36.042  1.00  0.00     0.277 HD
HETATM    9  C6  UNL     1      32.454  -0.210  34.691  1.00  0.00     0.232 C 
HETATM   10  C7  UNL     1      33.428   0.387  33.731  1.00  0.00     0.027 C 
HETATM   11  C8  UNL     1      34.513   1.194  34.370  1.00  0.00     0.002 C 
ENDROOT
TORSDOF 0
ENDMDL
