MODEL 1
REMARK VINA RESULT: -5.409059566      0.000      0.000
REMARK  0 active torsions:
REMARK  status: ('A' for Active; 'I' for Inactive)
ROOT
HETATM    1  C1  UNL     1      37.055   1.285  33.162  1.00  0.00     0.001 C 
HETATM    2  C2  UNL     1      35.761   1.379  32.475  1.00  0.00     0.005 C 
HETATM    3  C3  UNL     1      34.542   1.006  33.227  1.00  0.00     0.044 C 
HETATM    4  C4  UNL     1      34.100  -0.438  32.980  1.00  0.00     0.060 C 
HETATM    5  N1  UNL     1      35.029  -1.407  33.350  1.00  0.00    -0.382 N 
ATOM      6  H1  UNL     1      35.265  -2.168  32.713  1.00  0.00     0.163 HD
HETATM    7  C5  UNL     1      35.639  -1.321  34.616  1.00  0.00     0.060 C 
HETATM    8  C6  UNL     1      37.047  -0.832  34.474  1.00  0.00     0.044 C 
HETATM    9  C7  UNL     1      37.075   0.678  34.515  1.00  0.00     0.005 C 
ENDROOT
TORSDOF 0
ENDMDL
MODEL 2
REMARK VINA RESULT: -5.406893320      2.944      4.037
REMARK  0 active torsions:
REMARK  status: ('A' for Active; 'I' for Inactive)
ROOT
HETATM    1  C1  UNL     1      33.191  -1.272  37.084  1.00  0.00     0.001 C 
HETATM    2  C2  UNL     1      32.482  -1.376  35.802  1.00  0.00     0.005 C 
HETATM    3  C3  UNL     1      33.212  -1.013  34.568  1.00  0.00     0.044 C 
HETATM    4  C4  UNL     1      32.959   0.427  34.118  1.00  0.00     0.060 C 
HETATM    5  N1  UNL     1      33.347   1.403  35.033  1.00  0.00    -0.382 N 
ATOM      6  H1  UNL     1      32.715   2.167  35.274  1.00  0.00     0.163 HD
HETATM    7  C5  UNL     1      34.624   1.320  35.620  1.00  0.00     0.060 C 
HETATM    8  C6  UNL     1      34.505   0.843  37.035  1.00  0.00     0.044 C 
HETATM    9  C7  UNL     1      34.545  -0.667  37.075  1.00  0.00     0.005 C 
ENDROOT
TORSDOF 0
ENDMDL
MODEL 3
REMARK VINA RESULT: -5.228462543      1.141      2.941
REMARK  0 active torsions:
REMARK  status: ('A' for Active; 'I' for Inactive)
ROOT
HETATM    1  C1  UNL     1      36.002  -1.448  35.001  1.00  0.00     0.001 C 
HETATM    2  C2  UNL     1      37.198  -0.719  34.564  1.00  0.00     0.005 C 
HETATM    3  C3  UNL     1      37.020   0.627  33.975  1.00  0.00     0.044 C 
HETATM    4  C4  UNL     1      36.976   0.614  32.446  1.00  0.00     0.060 C 
HETATM    5  N1  UNL     1      35.935  -0.130  31.895  1.00  0.00    -0.382 N 
ATOM      6  H1  UNL     1      36.116  -0.795  31.143  1.00  0.00     0.163 HD
HETATM    7  C5  UNL     1      34.630   0.047  32.394  1.00  0.00     0.060 C 
HETATM    8  C6  UNL     1      34.252  -1.115  33.260  1.00  0.00     0.044 C 
HETATM    9  C7  UNL     1      34.679  -0.856  34.686  1.00  0.00     0.005 C 
ENDROOT
TORSDOF 0
ENDMDL
MODEL 4
REMARK VINA RESULT: -5.228352854      3.060      4.010
REMARK  0 active torsions:
REMARK  status: ('A' for Active; 'I' for Inactive)
ROOT
HETATM    1  C1  UNL     1      34.984   1.433  36.001  1.00  0.00     0.001 C 
HETATM    2  C2  UNL     1      34.536   0.716  37.202  1.00  0.00     0.005 C 
HETATM    3  C3  UNL     1      33.934  -0.625  37.030  1.00  0.00     0.044 C 
HETATM    4  C4  UNL     1      32.405  -0.598  36.982  1.00  0.00     0.060 C 
HETATM    5  N1  UNL     1      31.865   0.146  35.935  1.00  0.00    -0.382 N 
ATOM      6  H1  UNL     1      31.119   0.819  36.109  1.00  0.00     0.163 HD
HETATM    7  C5  UNL     1      32.365  -0.044  34.632  1.00  0.00     0.060 C 
HETATM    8  C6  UNL     1      33.244   1.106  34.249  1.00  0.00     0.044 C 
HETATM    9  C7  UNL     1      34.666   0.835  34.682  1.00  0.00     0.005 C 
ENDROOT
TORSDOF 0
ENDMDL
MODEL 5
REMARK VINA RESULT: -5.122294679      2.862      4.044
REMARK  0 active torsions:
REMARK  status: ('A' for Active; 'I' for Inactive)
ROOT
HETATM    1  C1  UNL     1      34.438  -0.904  37.101  1.00  0.00     0.001 C 
HETATM    2  C2  UNL     1      35.052   0.294  36.516  1.00  0.00     0.005 C 
HETATM    3  C3  UNL     1      34.164   1.400  36.096  1.00  0.00     0.044 C 
HETATM    4  C4  UNL     1      33.813   1.360  34.608  1.00  0.00     0.060 C 
HETATM    5  N1  UNL     1      33.135   0.215  34.196  1.00  0.00    -0.382 N 
ATOM      6  H1  UNL     1      33.437  -0.294  33.365  1.00  0.00     0.163 HD
HETATM    7  C5  UNL     1      32.028  -0.230  34.944  1.00  0.00     0.060 C 
HETATM    8  C6  UNL     1      32.409  -1.430  35.755  1.00  0.00     0.044 C 
HETATM    9  C7  UNL     1      32.958  -0.994  37.094  1.00  0.00     0.005 C 
ENDROOT
TORSDOF 0
ENDMDL
