MODEL 1
REMARK VINA RESULT: -5.851198428      0.000      0.000
REMARK  1 active torsions:
REMARK  status: ('A' for Active; 'I' for Inactive)
REMARK    1  A    between atoms: N1_1  and  C1_5 
ROOT
HETATM    1  C1  UNL     1      35.962  -1.487  34.665  1.00  0.00     0.188 C 
HETATM    2  C2  UNL     1      37.053  -0.533  34.147  1.00  0.00     0.033 C 
HETATM    3  C3  UNL     1      36.629   0.867  34.620  1.00  0.00     0.007 C 
HETATM    4  C4  UNL     1      35.284   0.658  35.138  1.00  0.00    -0.008 C 
HETATM    5  C5  UNL     1      34.827   1.393  36.330  1.00  0.00     0.005 C 
HETATM    6  C6  UNL     1      33.730   0.448  36.852  1.00  0.00     0.001 C 
HETATM    7  C7  UNL     1      34.052  -0.929  36.246  1.00  0.00     0.007 C 
HETATM    8  C8  UNL     1      35.437  -0.733  35.798  1.00  0.00     0.020 C 
ENDROOT
BRANCH   1   9
HETATM    9  N1  UNL     1      34.991  -1.655  33.607  1.00  0.00    -0.075 N 
ATOM     10  H13 UNL     1      34.752  -0.778  33.144  1.00  0.00     0.274 HD
ATOM     11  H12 UNL     1      35.370  -2.137  32.792  1.00  0.00     0.274 HD
ATOM     12  H11 UNL     1      34.179  -2.128  34.006  1.00  0.00     0.274 HD
ENDBRANCH   1   9
TORSDOF 1
ENDMDL
MODEL 2
REMARK VINA RESULT: -5.839982669      1.386      3.426
REMARK  1 active torsions:
REMARK  status: ('A' for Active; 'I' for Inactive)
REMARK    1  A    between atoms: N1_1  and  C1_5 
ROOT
HETATM    1  C1  UNL     1      34.661   1.476  35.960  1.00  0.00     0.188 C 
HETATM    2  C2  UNL     1      34.170   0.536  37.075  1.00  0.00     0.033 C 
HETATM    3  C3  UNL     1      34.639  -0.868  36.662  1.00  0.00     0.007 C 
HETATM    4  C4  UNL     1      35.128  -0.677  35.304  1.00  0.00    -0.008 C 
HETATM    5  C5  UNL     1      36.313  -1.414  34.832  1.00  0.00     0.005 C 
HETATM    6  C6  UNL     1      36.807  -0.484  33.710  1.00  0.00     0.001 C 
HETATM    7  C7  UNL     1      36.203   0.895  34.025  1.00  0.00     0.007 C 
HETATM    8  C8  UNL     1      35.786   0.718  35.422  1.00  0.00     0.020 C 
ENDROOT
BRANCH   1   9
HETATM    9  N1  UNL     1      33.582   1.626  35.008  1.00  0.00    -0.075 N 
ATOM     10  H13 UNL     1      32.826   0.958  35.157  1.00  0.00     0.274 HD
ATOM     11  H12 UNL     1      33.039   2.477  35.153  1.00  0.00     0.274 HD
ATOM     12  H11 UNL     1      33.986   1.568  34.073  1.00  0.00     0.274 HD
ENDBRANCH   1   9
TORSDOF 1
ENDMDL
MODEL 3
REMARK VINA RESULT: -5.584832779      1.857      3.575
REMARK  1 active torsions:
REMARK  status: ('A' for Active; 'I' for Inactive)
REMARK    1  A    between atoms: N1_1  and  C1_5 
ROOT
HETATM    1  C1  UNL     1      34.420  -0.049  37.165  1.00  0.00     0.188 C 
HETATM    2  C2  UNL     1      33.029  -0.707  37.139  1.00  0.00     0.033 C 
HETATM    3  C3  UNL     1      32.856  -1.240  35.708  1.00  0.00     0.007 C 
HETATM    4  C4  UNL     1      33.992  -0.674  34.995  1.00  0.00    -0.008 C 
HETATM    5  C5  UNL     1      34.680  -1.459  33.956  1.00  0.00     0.005 C 
HETATM    6  C6  UNL     1      36.072  -0.803  33.969  1.00  0.00     0.001 C 
HETATM    7  C7  UNL     1      36.191  -0.121  35.343  1.00  0.00     0.007 C 
HETATM    8  C8  UNL     1      35.091  -0.757  36.080  1.00  0.00     0.020 C 
ENDROOT
BRANCH   1   9
HETATM    9  N1  UNL     1      34.243   1.359  36.887  1.00  0.00    -0.075 N 
ATOM     10  H13 UNL     1      33.263   1.640  36.872  1.00  0.00     0.274 HD
ATOM     11  H12 UNL     1      34.541   1.957  37.658  1.00  0.00     0.274 HD
ATOM     12  H11 UNL     1      34.730   1.565  36.015  1.00  0.00     0.274 HD
ENDBRANCH   1   9
TORSDOF 1
ENDMDL
MODEL 4
REMARK VINA RESULT: -5.549902314      1.587      2.039
REMARK  1 active torsions:
REMARK  status: ('A' for Active; 'I' for Inactive)
REMARK    1  A    between atoms: N1_1  and  C1_5 
ROOT
HETATM    1  C1  UNL     1      37.150   0.143  34.029  1.00  0.00     0.188 C 
HETATM    2  C2  UNL     1      37.061   0.532  32.543  1.00  0.00     0.033 C 
HETATM    3  C3  UNL     1      35.614   1.007  32.331  1.00  0.00     0.007 C 
HETATM    4  C4  UNL     1      34.954   0.652  33.579  1.00  0.00    -0.008 C 
HETATM    5  C5  UNL     1      33.926   1.539  34.152  1.00  0.00     0.005 C 
HETATM    6  C6  UNL     1      34.003   1.152  35.639  1.00  0.00     0.001 C 
HETATM    7  C7  UNL     1      35.393   0.519  35.827  1.00  0.00     0.007 C 
HETATM    8  C8  UNL     1      36.077   0.950  34.601  1.00  0.00     0.020 C 
ENDROOT
BRANCH   1   9
HETATM    9  N1  UNL     1      36.893  -1.277  34.125  1.00  0.00    -0.075 N 
ATOM     10  H13 UNL     1      35.920  -1.518  33.936  1.00  0.00     0.274 HD
ATOM     11  H12 UNL     1      37.313  -1.809  33.363  1.00  0.00     0.274 HD
ATOM     12  H11 UNL     1      37.207  -1.586  35.045  1.00  0.00     0.274 HD
ENDBRANCH   1   9
TORSDOF 1
ENDMDL
MODEL 5
REMARK VINA RESULT: -5.511835071      2.129      3.348
REMARK  1 active torsions:
REMARK  status: ('A' for Active; 'I' for Inactive)
REMARK    1  A    between atoms: N1_1  and  C1_5 
ROOT
HETATM    1  C1  UNL     1      34.057  -0.299  32.918  1.00  0.00     0.188 C 
HETATM    2  C2  UNL     1      34.057  -1.557  33.804  1.00  0.00     0.033 C 
HETATM    3  C3  UNL     1      35.478  -1.648  34.383  1.00  0.00     0.007 C 
HETATM    4  C4  UNL     1      36.213  -0.632  33.644  1.00  0.00    -0.008 C 
HETATM    5  C5  UNL     1      37.247   0.172  34.317  1.00  0.00     0.005 C 
HETATM    6  C6  UNL     1      37.259   1.431  33.433  1.00  0.00     0.001 C 
HETATM    7  C7  UNL     1      35.897   1.442  32.716  1.00  0.00     0.007 C 
HETATM    8  C8  UNL     1      35.139   0.474  33.519  1.00  0.00     0.020 C 
ENDROOT
BRANCH   1   9
HETATM    9  N1  UNL     1      34.354  -0.717  31.565  1.00  0.00    -0.075 N 
ATOM     10  H13 UNL     1      33.534  -1.064  31.068  1.00  0.00     0.274 HD
ATOM     11  H12 UNL     1      34.566   0.064  30.945  1.00  0.00     0.274 HD
ATOM     12  H11 UNL     1      35.109  -1.402  31.613  1.00  0.00     0.274 HD
ENDBRANCH   1   9
TORSDOF 1
ENDMDL
