MODEL 1
REMARK VINA RESULT: -5.183015457      0.000      0.000
REMARK  0 active torsions:
REMARK  status: ('A' for Active; 'I' for Inactive)
ROOT
HETATM    1  C1  UNL     1      34.288  -0.270  33.648  1.00  0.00     0.004 C 
HETATM    2  C2  UNL     1      35.216  -1.288  34.174  1.00  0.00     0.025 C 
HETATM    3  C3  UNL     1      36.680  -1.024  33.811  1.00  0.00     0.077 C 
HETATM    4  C4  UNL     1      37.201  -0.038  34.869  1.00  0.00     0.027 C 
HETATM    5  C5  UNL     1      37.124   1.333  34.183  1.00  0.00     0.027 C 
HETATM    6  C6  UNL     1      36.323   1.008  32.910  1.00  0.00     0.077 C 
HETATM    7  C7  UNL     1      34.856   1.032  33.250  1.00  0.00     0.025 C 
HETATM    8  N1  UNL     1      36.721  -0.293  32.644  1.00  0.00    -0.413 N 
ATOM      9  H1  UNL     1      36.998  -0.651  31.731  1.00  0.00     0.154 HD
ENDROOT
TORSDOF 0
ENDMDL
MODEL 2
REMARK VINA RESULT: -5.154634839      3.269      4.138
REMARK  0 active torsions:
REMARK  status: ('A' for Active; 'I' for Inactive)
ROOT
HETATM    1  C1  UNL     1      33.515   0.160  34.257  1.00  0.00     0.004 C 
HETATM    2  C2  UNL     1      34.091   1.208  35.118  1.00  0.00     0.025 C 
HETATM    3  C3  UNL     1      33.795   1.004  36.608  1.00  0.00     0.077 C 
HETATM    4  C4  UNL     1      34.869   0.031  37.117  1.00  0.00     0.027 C 
HETATM    5  C5  UNL     1      34.171  -1.337  37.125  1.00  0.00     0.027 C 
HETATM    6  C6  UNL     1      32.864  -1.032  36.372  1.00  0.00     0.077 C 
HETATM    7  C7  UNL     1      33.135  -1.116  34.893  1.00  0.00     0.025 C 
HETATM    8  N1  UNL     1      32.626   0.286  36.730  1.00  0.00    -0.413 N 
ATOM      9  H1  UNL     1      31.729   0.662  37.035  1.00  0.00     0.154 HD
ENDROOT
TORSDOF 0
ENDMDL
MODEL 3
REMARK VINA RESULT: -5.064135078      3.074      4.291
REMARK  0 active torsions:
REMARK  status: ('A' for Active; 'I' for Inactive)
ROOT
HETATM    1  C1  UNL     1      34.967  -1.063  35.492  1.00  0.00     0.004 C 
HETATM    2  C2  UNL     1      34.682  -0.473  36.812  1.00  0.00     0.025 C 
HETATM    3  C3  UNL     1      33.415   0.389  36.834  1.00  0.00     0.077 C 
HETATM    4  C4  UNL     1      32.249  -0.588  37.046  1.00  0.00     0.027 C 
HETATM    5  C5  UNL     1      31.679  -0.812  35.638  1.00  0.00     0.027 C 
HETATM    6  C6  UNL     1      32.747  -0.146  34.752  1.00  0.00     0.077 C 
HETATM    7  C7  UNL     1      33.859  -1.135  34.521  1.00  0.00     0.025 C 
HETATM    8  N1  UNL     1      33.196   0.881  35.566  1.00  0.00    -0.413 N 
ATOM      9  H1  UNL     1      33.341   1.848  35.273  1.00  0.00     0.154 HD
ENDROOT
TORSDOF 0
ENDMDL
MODEL 4
REMARK VINA RESULT: -5.064068351      3.129      3.817
REMARK  0 active torsions:
REMARK  status: ('A' for Active; 'I' for Inactive)
ROOT
HETATM    1  C1  UNL     1      31.992  -1.296  35.807  1.00  0.00     0.004 C 
HETATM    2  C2  UNL     1      33.004  -1.301  34.735  1.00  0.00     0.025 C 
HETATM    3  C3  UNL     1      34.056  -0.197  34.884  1.00  0.00     0.077 C 
HETATM    4  C4  UNL     1      35.112  -0.753  35.851  1.00  0.00     0.027 C 
HETATM    5  C5  UNL     1      34.747  -0.137  37.209  1.00  0.00     0.027 C 
HETATM    6  C6  UNL     1      33.372   0.488  36.916  1.00  0.00     0.077 C 
HETATM    7  C7  UNL     1      32.321  -0.582  37.055  1.00  0.00     0.025 C 
HETATM    8  N1  UNL     1      33.499   0.850  35.584  1.00  0.00    -0.413 N 
ATOM      9  H1  UNL     1      33.223   1.748  35.187  1.00  0.00     0.154 HD
ENDROOT
TORSDOF 0
ENDMDL
MODEL 5
REMARK VINA RESULT: -5.044656244      1.170      2.076
REMARK  0 active torsions:
REMARK  status: ('A' for Active; 'I' for Inactive)
ROOT
HETATM    1  C1  UNL     1      35.595   1.095  34.950  1.00  0.00     0.004 C 
HETATM    2  C2  UNL     1      36.902   0.498  34.619  1.00  0.00     0.025 C 
HETATM    3  C3  UNL     1      36.868  -0.394  33.374  1.00  0.00     0.077 C 
HETATM    4  C4  UNL     1      37.025   0.556  32.176  1.00  0.00     0.027 C 
HETATM    5  C5  UNL     1      35.593   0.766  31.665  1.00  0.00     0.027 C 
HETATM    6  C6  UNL     1      34.757   0.126  32.787  1.00  0.00     0.077 C 
HETATM    7  C7  UNL     1      34.575   1.140  33.885  1.00  0.00     0.025 C 
HETATM    8  N1  UNL     1      35.592  -0.891  33.223  1.00  0.00    -0.413 N 
ATOM      9  H1  UNL     1      35.306  -1.853  33.404  1.00  0.00     0.154 HD
ENDROOT
TORSDOF 0
ENDMDL
