MODEL 1
REMARK VINA RESULT: -3.342571468      0.000      0.000
REMARK  3 active torsions:
REMARK  status: ('A' for Active; 'I' for Inactive)
REMARK    1  A    between atoms: N1_2  and  C4_5 
REMARK    2  A    between atoms: C4_5  and  C5_6 
REMARK    3  A    between atoms: C9_13  and  N3_14 
ROOT
HETATM    1  C5  UNL     1      28.053  33.310  21.306  1.00  0.00     0.068 C 
HETATM    2  C6  UNL     1      28.141  32.755  22.708  1.00  0.00     0.240 C 
HETATM    3  N2  UNL     1      28.605  33.785  23.651  1.00  0.00    -0.075 N 
ATOM      4  H21 UNL     1      29.617  33.907  23.629  1.00  0.00     0.277 HD
ATOM      5  H22 UNL     1      28.520  33.490  24.624  1.00  0.00     0.277 HD
HETATM    6  C7  UNL     1      27.889  35.021  23.379  1.00  0.00     0.234 C 
HETATM    7  C8  UNL     1      28.513  35.634  22.153  1.00  0.00     0.060 C 
HETATM    8  C9  UNL     1      28.994  34.526  21.269  1.00  0.00     0.192 C 
ENDROOT
BRANCH   1   9
HETATM    9  C4  UNL     1      28.615  32.372  20.303  1.00  0.00     0.244 C 
BRANCH   9  10
HETATM   10  N1  UNL     1      27.749  31.662  19.463  1.00  0.00    -0.078 N 
HETATM   11  C1  UNL     1      26.419  32.276  19.582  1.00  0.00     0.271 C 
HETATM   12  C2  UNL     1      27.561  30.286  19.918  1.00  0.00     0.271 C 
HETATM   13  C3  UNL     1      28.054  31.612  18.071  1.00  0.00     0.271 C 
ENDBRANCH   9  10
ENDBRANCH   1   9
BRANCH   8  14
HETATM   14  N3  UNL     1      29.108  34.983  19.904  1.00  0.00    -0.074 N 
ATOM     15  H33 UNL     1      28.697  34.329  19.238  1.00  0.00     0.274 HD
ATOM     16  H32 UNL     1      28.505  35.782  19.708  1.00  0.00     0.274 HD
ATOM     17  H31 UNL     1      30.089  35.178  19.704  1.00  0.00     0.274 HD
ENDBRANCH   8  14
TORSDOF 3
ENDMDL
MODEL 2
REMARK VINA RESULT: -3.288559166      0.101      1.180
REMARK  3 active torsions:
REMARK  status: ('A' for Active; 'I' for Inactive)
REMARK    1  A    between atoms: N1_2  and  C4_5 
REMARK    2  A    between atoms: C4_5  and  C5_6 
REMARK    3  A    between atoms: C9_13  and  N3_14 
ROOT
HETATM    1  C5  UNL     1      28.025  33.350  21.325  1.00  0.00     0.068 C 
HETATM    2  C6  UNL     1      28.113  32.780  22.721  1.00  0.00     0.240 C 
HETATM    3  N2  UNL     1      28.632  33.784  23.664  1.00  0.00    -0.075 N 
ATOM      4  H21 UNL     1      29.647  33.866  23.627  1.00  0.00     0.277 HD
ATOM      5  H22 UNL     1      28.551  33.485  24.636  1.00  0.00     0.277 HD
HETATM    6  C7  UNL     1      27.961  35.049  23.412  1.00  0.00     0.234 C 
HETATM    7  C8  UNL     1      28.590  35.646  22.181  1.00  0.00     0.060 C 
HETATM    8  C9  UNL     1      29.013  34.527  21.281  1.00  0.00     0.192 C 
ENDROOT
BRANCH   1   9
HETATM    9  C4  UNL     1      28.533  32.397  20.307  1.00  0.00     0.244 C 
BRANCH   9  10
HETATM   10  N1  UNL     1      27.626  31.699  19.502  1.00  0.00    -0.078 N 
HETATM   11  C1  UNL     1      27.661  30.290  19.919  1.00  0.00     0.271 C 
HETATM   12  C2  UNL     1      28.047  31.680  18.103  1.00  0.00     0.271 C 
HETATM   13  C3  UNL     1      26.257  32.099  19.529  1.00  0.00     0.271 C 
ENDBRANCH   9  10
ENDBRANCH   1   9
BRANCH   8  14
HETATM   14  N3  UNL     1      29.124  34.990  19.918  1.00  0.00    -0.074 N 
ATOM     15  H33 UNL     1      29.984  34.676  19.468  1.00  0.00     0.274 HD
ATOM     16  H32 UNL     1      28.462  34.527  19.294  1.00  0.00     0.274 HD
ATOM     17  H31 UNL     1      29.026  36.005  19.907  1.00  0.00     0.274 HD
ENDBRANCH   8  14
TORSDOF 3
ENDMDL
MODEL 3
REMARK VINA RESULT: -3.236706514      0.321      1.134
REMARK  3 active torsions:
REMARK  status: ('A' for Active; 'I' for Inactive)
REMARK    1  A    between atoms: N1_2  and  C4_5 
REMARK    2  A    between atoms: C4_5  and  C5_6 
REMARK    3  A    between atoms: C9_13  and  N3_14 
ROOT
HETATM    1  C5  UNL     1      28.000  33.035  21.233  1.00  0.00     0.068 C 
HETATM    2  C6  UNL     1      28.119  32.483  22.634  1.00  0.00     0.240 C 
HETATM    3  N2  UNL     1      28.606  33.515  23.563  1.00  0.00    -0.075 N 
ATOM      4  H21 UNL     1      29.617  33.635  23.517  1.00  0.00     0.277 HD
ATOM      5  H22 UNL     1      28.543  33.223  24.539  1.00  0.00     0.277 HD
HETATM    6  C7  UNL     1      27.885  34.751  23.304  1.00  0.00     0.234 C 
HETATM    7  C8  UNL     1      28.483  35.359  22.062  1.00  0.00     0.060 C 
HETATM    8  C9  UNL     1      28.942  34.249  21.170  1.00  0.00     0.192 C 
ENDROOT
BRANCH   1   9
HETATM    9  C4  UNL     1      28.537  32.092  20.220  1.00  0.00     0.244 C 
BRANCH   9  10
HETATM   10  N1  UNL     1      27.654  31.410  19.376  1.00  0.00    -0.078 N 
HETATM   11  C1  UNL     1      28.033  31.727  17.992  1.00  0.00     0.271 C 
HETATM   12  C2  UNL     1      26.287  31.910  19.506  1.00  0.00     0.271 C 
HETATM   13  C3  UNL     1      27.597  29.988  19.468  1.00  0.00     0.271 C 
ENDBRANCH   9  10
ENDBRANCH   1   9
BRANCH   8  14
HETATM   14  N3  UNL     1      29.026  34.701  19.802  1.00  0.00    -0.074 N 
ATOM     15  H33 UNL     1      28.969  33.934  19.132  1.00  0.00     0.274 HD
ATOM     16  H32 UNL     1      28.190  35.208  19.507  1.00  0.00     0.274 HD
ATOM     17  H31 UNL     1      29.876  35.253  19.690  1.00  0.00     0.274 HD
ENDBRANCH   8  14
TORSDOF 3
ENDMDL
MODEL 4
REMARK VINA RESULT: -2.765135226      1.413      4.644
REMARK  3 active torsions:
REMARK  status: ('A' for Active; 'I' for Inactive)
REMARK    1  A    between atoms: N1_2  and  C4_5 
REMARK    2  A    between atoms: C4_5  and  C5_6 
REMARK    3  A    between atoms: C9_13  and  N3_14 
ROOT
HETATM    1  C5  UNL     1      27.758  33.117  21.289  1.00  0.00     0.068 C 
HETATM    2  C6  UNL     1      28.887  33.408  20.328  1.00  0.00     0.240 C 
HETATM    3  N2  UNL     1      29.145  32.250  19.458  1.00  0.00    -0.075 N 
ATOM      4  H21 UNL     1      29.711  31.536  19.916  1.00  0.00     0.277 HD
ATOM      5  H22 UNL     1      29.787  32.469  18.696  1.00  0.00     0.277 HD
HETATM    6  C7  UNL     1      27.872  31.732  18.983  1.00  0.00     0.234 C 
HETATM    7  C8  UNL     1      27.263  30.948  20.116  1.00  0.00     0.060 C 
HETATM    8  C9  UNL     1      27.680  31.586  21.404  1.00  0.00     0.192 C 
ENDROOT
BRANCH   1   9
HETATM    9  C4  UNL     1      28.070  33.580  22.664  1.00  0.00     0.244 C 
BRANCH   9  10
HETATM   10  N1  UNL     1      28.278  34.944  22.902  1.00  0.00    -0.078 N 
HETATM   11  C1  UNL     1      28.964  35.065  24.196  1.00  0.00     0.271 C 
HETATM   12  C2  UNL     1      27.017  35.659  23.086  1.00  0.00     0.271 C 
HETATM   13  C3  UNL     1      29.051  35.681  21.957  1.00  0.00     0.271 C 
ENDBRANCH   9  10
ENDBRANCH   1   9
BRANCH   8  14
HETATM   14  N3  UNL     1      26.754  31.246  22.459  1.00  0.00    -0.074 N 
ATOM     15  H33 UNL     1      27.213  30.797  23.251  1.00  0.00     0.274 HD
ATOM     16  H32 UNL     1      26.401  32.070  22.947  1.00  0.00     0.274 HD
ATOM     17  H31 UNL     1      26.005  30.675  22.067  1.00  0.00     0.274 HD
ENDBRANCH   8  14
TORSDOF 3
ENDMDL
MODEL 5
REMARK VINA RESULT: -2.599648386      1.332      2.524
REMARK  3 active torsions:
REMARK  status: ('A' for Active; 'I' for Inactive)
REMARK    1  A    between atoms: N1_2  and  C4_5 
REMARK    2  A    between atoms: C4_5  and  C5_6 
REMARK    3  A    between atoms: C9_13  and  N3_14 
ROOT
HETATM    1  C5  UNL     1      28.495  32.168  21.059  1.00  0.00     0.068 C 
HETATM    2  C6  UNL     1      28.913  33.369  20.244  1.00  0.00     0.240 C 
HETATM    3  N2  UNL     1      28.343  34.605  20.802  1.00  0.00    -0.075 N 
ATOM      4  H21 UNL     1      27.372  34.746  20.524  1.00  0.00     0.277 HD
ATOM      5  H22 UNL     1      28.736  35.444  20.374  1.00  0.00     0.277 HD
HETATM    6  C7  UNL     1      28.512  34.584  22.246  1.00  0.00     0.234 C 
HETATM    7  C8  UNL     1      27.462  33.659  22.801  1.00  0.00     0.060 C 
HETATM    8  C9  UNL     1      27.209  32.579  21.796  1.00  0.00     0.192 C 
ENDROOT
BRANCH   1   9
HETATM    9  C4  UNL     1      28.084  31.031  20.198  1.00  0.00     0.244 C 
BRANCH   9  10
HETATM   10  N1  UNL     1      27.289  31.271  19.072  1.00  0.00    -0.078 N 
HETATM   11  C1  UNL     1      26.596  30.016  18.746  1.00  0.00     0.271 C 
HETATM   12  C2  UNL     1      28.098  31.561  17.890  1.00  0.00     0.271 C 
HETATM   13  C3  UNL     1      26.286  32.281  19.159  1.00  0.00     0.271 C 
ENDBRANCH   9  10
ENDBRANCH   1   9
BRANCH   8  14
HETATM   14  N3  UNL     1      26.648  31.413  22.437  1.00  0.00    -0.074 N 
ATOM     15  H33 UNL     1      26.952  30.543  21.999  1.00  0.00     0.274 HD
ATOM     16  H32 UNL     1      27.042  31.250  23.364  1.00  0.00     0.274 HD
ATOM     17  H31 UNL     1      25.633  31.506  22.455  1.00  0.00     0.274 HD
ENDBRANCH   8  14
TORSDOF 3
ENDMDL
