MODEL 1
REMARK VINA RESULT: -5.996428741      0.000      0.000
REMARK  3 active torsions:
REMARK  status: ('A' for Active; 'I' for Inactive)
REMARK    1  A    between atoms: N2_3  and  C2_5 
REMARK    2  A    between atoms: C3_9  and  C4_10 
REMARK    3  A    between atoms: C4_10  and  C5_11 
ROOT
HETATM    1  C2  UNL     1      28.270  32.138  19.500  1.00  0.00     0.316 A 
HETATM    2  N3  UNL     1      28.247  33.569  19.998  1.00  0.00    -0.044 N 
ATOM      3  H31 UNL     1      27.535  34.278  20.168  1.00  0.00     0.280 HD
ATOM      4  H32 UNL     1      28.538  34.478  19.641  1.00  0.00     0.280 HD
HETATM    5  C3  UNL     1      28.863  32.490  20.761  1.00  0.00     0.239 A 
ENDROOT
BRANCH   1   6
HETATM    6  N2  UNL     1      26.948  31.622  19.334  1.00  0.00    -0.359 N 
HETATM    7  C1  UNL     1      26.774  30.470  18.798  1.00  0.00     0.186 C 
HETATM    8  N1  UNL     1      27.872  29.693  18.362  1.00  0.00    -0.097 NA
ATOM      9  H2  UNL     1      26.144  32.168  19.641  1.00  0.00     0.162 HD
ENDBRANCH   1   6
BRANCH   5  10
HETATM   10  C4  UNL     1      28.223  32.168  22.088  1.00  0.00     0.048 C 
BRANCH  10  11
HETATM   11  C5  UNL     1      27.162  33.188  22.462  1.00  0.00     0.087 C 
HETATM   12 BR1  UNL     1      28.102  34.781  23.052  1.00  0.00    -0.096 Br
ENDBRANCH  10  11
ENDBRANCH   5  10
TORSDOF 3
ENDMDL
MODEL 2
REMARK VINA RESULT: -5.586142745      1.619      1.702
REMARK  3 active torsions:
REMARK  status: ('A' for Active; 'I' for Inactive)
REMARK    1  A    between atoms: N2_3  and  C2_5 
REMARK    2  A    between atoms: C3_9  and  C4_10 
REMARK    3  A    between atoms: C4_10  and  C5_11 
ROOT
HETATM    1  C2  UNL     1      28.554  32.990  19.812  1.00  0.00     0.316 A 
HETATM    2  N3  UNL     1      28.434  34.397  20.361  1.00  0.00    -0.044 N 
ATOM      3  H31 UNL     1      27.801  35.186  20.234  1.00  0.00     0.280 HD
ATOM      4  H32 UNL     1      28.948  35.272  20.263  1.00  0.00     0.280 HD
HETATM    5  C3  UNL     1      28.500  33.228  21.228  1.00  0.00     0.239 A 
ENDROOT
BRANCH   1   6
HETATM    6  N2  UNL     1      27.430  32.650  18.997  1.00  0.00    -0.359 N 
HETATM    7  C1  UNL     1      27.222  31.427  18.674  1.00  0.00     0.186 C 
HETATM    8  N1  UNL     1      28.087  30.398  19.110  1.00  0.00    -0.097 NA
ATOM      9  H2  UNL     1      26.795  33.380  18.672  1.00  0.00     0.162 HD
ENDBRANCH   1   6
BRANCH   5  10
HETATM   10  C4  UNL     1      27.274  32.952  22.062  1.00  0.00     0.048 C 
BRANCH  10  11
HETATM   11  C5  UNL     1      27.175  31.486  22.447  1.00  0.00     0.087 C 
HETATM   12 BR1  UNL     1      28.939  30.950  23.057  1.00  0.00    -0.096 Br
ENDBRANCH  10  11
ENDBRANCH   5  10
TORSDOF 3
ENDMDL
MODEL 3
REMARK VINA RESULT: -5.406199356      1.402      1.443
REMARK  3 active torsions:
REMARK  status: ('A' for Active; 'I' for Inactive)
REMARK    1  A    between atoms: N2_3  and  C2_5 
REMARK    2  A    between atoms: C3_9  and  C4_10 
REMARK    3  A    between atoms: C4_10  and  C5_11 
ROOT
HETATM    1  C2  UNL     1      28.168  32.108  19.587  1.00  0.00     0.316 A 
HETATM    2  N3  UNL     1      28.195  33.622  19.518  1.00  0.00    -0.044 N 
ATOM      3  H31 UNL     1      27.541  34.359  19.258  1.00  0.00     0.280 HD
ATOM      4  H32 UNL     1      28.644  34.324  18.931  1.00  0.00     0.280 HD
HETATM    5  C3  UNL     1      28.533  32.894  20.735  1.00  0.00     0.239 A 
ENDROOT
BRANCH   1   6
HETATM    6  N2  UNL     1      26.858  31.598  19.330  1.00  0.00    -0.359 N 
HETATM    7  C1  UNL     1      26.718  30.461  18.753  1.00  0.00     0.186 C 
HETATM    8  N1  UNL     1      27.840  29.696  18.362  1.00  0.00    -0.097 NA
ATOM      9  H2  UNL     1      26.037  32.136  19.604  1.00  0.00     0.162 HD
ENDBRANCH   1   6
BRANCH   5  10
HETATM   10  C4  UNL     1      27.614  33.107  21.911  1.00  0.00     0.048 C 
BRANCH  10  11
HETATM   11  C5  UNL     1      28.322  32.851  23.230  1.00  0.00     0.087 C 
HETATM   12 BR1  UNL     1      29.007  31.035  23.152  1.00  0.00    -0.096 Br
ENDBRANCH  10  11
ENDBRANCH   5  10
TORSDOF 3
ENDMDL
MODEL 4
REMARK VINA RESULT: -5.171617205      2.932      4.628
REMARK  3 active torsions:
REMARK  status: ('A' for Active; 'I' for Inactive)
REMARK    1  A    between atoms: N2_3  and  C2_5 
REMARK    2  A    between atoms: C3_9  and  C4_10 
REMARK    3  A    between atoms: C4_10  and  C5_11 
ROOT
HETATM    1  C2  UNL     1      27.581  33.178  22.466  1.00  0.00     0.316 A 
HETATM    2  N3  UNL     1      26.494  32.425  21.727  1.00  0.00    -0.044 N 
ATOM      3  H31 UNL     1      25.835  32.631  20.976  1.00  0.00     0.280 HD
ATOM      4  H32 UNL     1      25.562  32.074  21.946  1.00  0.00     0.280 HD
HETATM    5  C3  UNL     1      27.859  31.923  21.823  1.00  0.00     0.239 A 
ENDROOT
BRANCH   1   6
HETATM    6  N2  UNL     1      27.814  34.463  21.885  1.00  0.00    -0.359 N 
HETATM    7  C1  UNL     1      28.354  35.392  22.584  1.00  0.00     0.186 C 
HETATM    8  N1  UNL     1      28.728  35.172  23.930  1.00  0.00    -0.097 NA
ATOM      9  H2  UNL     1      27.550  34.641  20.916  1.00  0.00     0.162 HD
ENDBRANCH   1   6
BRANCH   5  10
HETATM   10  C4  UNL     1      28.618  31.815  20.524  1.00  0.00     0.048 C 
BRANCH  10  11
HETATM   11  C5  UNL     1      27.720  32.071  19.326  1.00  0.00     0.087 C 
HETATM   12 BR1  UNL     1      27.252  30.332  18.598  1.00  0.00    -0.096 Br
ENDBRANCH  10  11
ENDBRANCH   5  10
TORSDOF 3
ENDMDL
MODEL 5
REMARK VINA RESULT: -5.085499159      1.221      1.372
REMARK  3 active torsions:
REMARK  status: ('A' for Active; 'I' for Inactive)
REMARK    1  A    between atoms: N2_3  and  C2_5 
REMARK    2  A    between atoms: C3_9  and  C4_10 
REMARK    3  A    between atoms: C4_10  and  C5_11 
ROOT
HETATM    1  C2  UNL     1      27.684  32.108  19.297  1.00  0.00     0.316 A 
HETATM    2  N3  UNL     1      26.667  32.046  20.419  1.00  0.00    -0.044 N 
ATOM      3  H31 UNL     1      26.158  31.313  20.912  1.00  0.00     0.280 HD
ATOM      4  H32 UNL     1      25.685  32.294  20.537  1.00  0.00     0.280 HD
HETATM    5  C3  UNL     1      27.950  32.721  20.569  1.00  0.00     0.239 A 
ENDROOT
BRANCH   1   6
HETATM    6  N2  UNL     1      28.118  30.801  18.913  1.00  0.00    -0.359 N 
HETATM    7  C1  UNL     1      27.283  29.977  18.394  1.00  0.00     0.186 C 
HETATM    8  N1  UNL     1      25.931  30.337  18.191  1.00  0.00    -0.097 NA
ATOM      9  H2  UNL     1      29.089  30.524  19.053  1.00  0.00     0.162 HD
ENDBRANCH   1   6
BRANCH   5  10
HETATM   10  C4  UNL     1      28.895  32.131  21.585  1.00  0.00     0.048 C 
BRANCH  10  11
HETATM   11  C5  UNL     1      28.584  32.618  22.989  1.00  0.00     0.087 C 
HETATM   12 BR1  UNL     1      27.909  34.431  22.815  1.00  0.00    -0.096 Br
ENDBRANCH  10  11
ENDBRANCH   5  10
TORSDOF 3
ENDMDL
