MODEL 1
REMARK VINA RESULT: -4.798820435      0.000      0.000
REMARK  3 active torsions:
REMARK  status: ('A' for Active; 'I' for Inactive)
REMARK    1  A    between atoms: C1_2  and  C2_3 
REMARK    2  A    between atoms: C2_3  and  N1_4 
REMARK    3  A    between atoms: N1_4  and  C3_6 
ROOT
HETATM    1  C3  UNL     1      27.749  31.105  20.247  1.00  0.00     0.127 C 
HETATM    2  C4  UNL     1      26.828  30.817  19.117  1.00  0.00     0.258 C 
HETATM    3  N2  UNL     1      26.577  32.269  19.030  1.00  0.00    -0.071 N 
ATOM      4  H21 UNL     1      25.815  32.723  19.534  1.00  0.00     0.277 HD
ATOM      5  H22 UNL     1      26.213  32.710  18.185  1.00  0.00     0.277 HD
HETATM    6  C5  UNL     1      27.987  32.400  19.444  1.00  0.00     0.258 C 
ENDROOT
BRANCH   1   7
HETATM    7  N1  UNL     1      27.242  31.375  21.538  1.00  0.00    -0.413 N 
ATOM      8  H1  UNL     1      26.297  31.735  21.667  1.00  0.00     0.153 HD
BRANCH   7   9
HETATM    9  C2  UNL     1      28.089  31.130  22.647  1.00  0.00     0.125 C 
BRANCH   9  10
HETATM   10  C1  UNL     1      28.827  32.404  23.013  1.00  0.00     0.104 C 
HETATM   11 BR1  UNL     1      27.793  33.999  22.740  1.00  0.00    -0.095 Br
ENDBRANCH   9  10
ENDBRANCH   7   9
ENDBRANCH   1   7
TORSDOF 3
ENDMDL
MODEL 2
REMARK VINA RESULT: -4.545373240      1.206      1.368
REMARK  3 active torsions:
REMARK  status: ('A' for Active; 'I' for Inactive)
REMARK    1  A    between atoms: C1_2  and  C2_3 
REMARK    2  A    between atoms: C2_3  and  N1_4 
REMARK    3  A    between atoms: N1_4  and  C3_6 
ROOT
HETATM    1  C3  UNL     1      27.611  31.383  20.172  1.00  0.00     0.127 C 
HETATM    2  C4  UNL     1      26.796  32.233  19.266  1.00  0.00     0.258 C 
HETATM    3  N2  UNL     1      27.699  31.829  18.170  1.00  0.00    -0.071 N 
ATOM      4  H21 UNL     1      28.531  32.365  17.923  1.00  0.00     0.277 HD
ATOM      5  H22 UNL     1      27.428  31.892  17.189  1.00  0.00     0.277 HD
HETATM    6  C5  UNL     1      27.773  30.542  18.888  1.00  0.00     0.258 C 
ENDROOT
BRANCH   1   7
HETATM    7  N1  UNL     1      28.857  31.839  20.659  1.00  0.00    -0.413 N 
ATOM      8  H1  UNL     1      29.606  32.107  20.020  1.00  0.00     0.153 HD
BRANCH   7   9
HETATM    9  C2  UNL     1      29.033  31.911  22.063  1.00  0.00     0.125 C 
BRANCH   9  10
HETATM   10  C1  UNL     1      27.825  32.577  22.693  1.00  0.00     0.104 C 
HETATM   11 BR1  UNL     1      27.940  34.494  22.744  1.00  0.00    -0.095 Br
ENDBRANCH   9  10
ENDBRANCH   7   9
ENDBRANCH   1   7
TORSDOF 3
ENDMDL
MODEL 3
REMARK VINA RESULT: -4.380597311      1.500      1.500
REMARK  3 active torsions:
REMARK  status: ('A' for Active; 'I' for Inactive)
REMARK    1  A    between atoms: C1_2  and  C2_3 
REMARK    2  A    between atoms: C2_3  and  N1_4 
REMARK    3  A    between atoms: N1_4  and  C3_6 
ROOT
HETATM    1  C3  UNL     1      27.694  31.313  19.911  1.00  0.00     0.127 C 
HETATM    2  C4  UNL     1      27.321  30.279  18.911  1.00  0.00     0.258 C 
HETATM    3  N2  UNL     1      26.028  30.976  18.760  1.00  0.00    -0.071 N 
ATOM      4  H21 UNL     1      25.209  30.732  19.316  1.00  0.00     0.277 HD
ATOM      5  H22 UNL     1      25.441  30.862  17.934  1.00  0.00     0.277 HD
HETATM    6  C5  UNL     1      26.815  32.200  19.006  1.00  0.00     0.258 C 
ENDROOT
BRANCH   1   7
HETATM    7  N1  UNL     1      27.192  31.252  21.231  1.00  0.00    -0.413 N 
ATOM      8  H1  UNL     1      27.027  30.356  21.690  1.00  0.00     0.153 HD
BRANCH   7   9
HETATM    9  C2  UNL     1      26.923  32.474  21.895  1.00  0.00     0.125 C 
BRANCH   9  10
HETATM   10  C1  UNL     1      28.151  32.909  22.672  1.00  0.00     0.104 C 
HETATM   11 BR1  UNL     1      29.309  31.457  23.162  1.00  0.00    -0.095 Br
ENDBRANCH   9  10
ENDBRANCH   7   9
ENDBRANCH   1   7
TORSDOF 3
ENDMDL
MODEL 4
REMARK VINA RESULT: -4.262794527      1.696      1.965
REMARK  3 active torsions:
REMARK  status: ('A' for Active; 'I' for Inactive)
REMARK    1  A    between atoms: C1_2  and  C2_3 
REMARK    2  A    between atoms: C2_3  and  N1_4 
REMARK    3  A    between atoms: N1_4  and  C3_6 
ROOT
HETATM    1  C3  UNL     1      28.234  31.931  19.593  1.00  0.00     0.127 C 
HETATM    2  C4  UNL     1      27.463  30.748  20.057  1.00  0.00     0.258 C 
HETATM    3  N2  UNL     1      26.472  31.056  19.007  1.00  0.00    -0.071 N 
ATOM      4  H21 UNL     1      25.661  31.652  19.179  1.00  0.00     0.277 HD
ATOM      5  H22 UNL     1      25.820  30.358  18.650  1.00  0.00     0.277 HD
HETATM    6  C5  UNL     1      27.639  31.517  18.231  1.00  0.00     0.258 C 
ENDROOT
BRANCH   1   7
HETATM    7  N1  UNL     1      27.840  33.237  19.961  1.00  0.00    -0.413 N 
ATOM      8  H1  UNL     1      27.057  33.700  19.499  1.00  0.00     0.153 HD
BRANCH   7   9
HETATM    9  C2  UNL     1      28.566  33.882  20.992  1.00  0.00     0.125 C 
BRANCH   9  10
HETATM   10  C1  UNL     1      27.965  33.523  22.338  1.00  0.00     0.104 C 
HETATM   11 BR1  UNL     1      28.865  32.075  23.223  1.00  0.00    -0.095 Br
ENDBRANCH   9  10
ENDBRANCH   7   9
ENDBRANCH   1   7
TORSDOF 3
ENDMDL
MODEL 5
REMARK VINA RESULT: -4.224590175      1.324      1.389
REMARK  3 active torsions:
REMARK  status: ('A' for Active; 'I' for Inactive)
REMARK    1  A    between atoms: C1_2  and  C2_3 
REMARK    2  A    between atoms: C2_3  and  N1_4 
REMARK    3  A    between atoms: N1_4  and  C3_6 
ROOT
HETATM    1  C3  UNL     1      28.120  31.935  19.925  1.00  0.00     0.127 C 
HETATM    2  C4  UNL     1      27.665  30.520  19.936  1.00  0.00     0.258 C 
HETATM    3  N2  UNL     1      26.617  30.911  18.973  1.00  0.00    -0.071 N 
ATOM      4  H21 UNL     1      25.688  31.211  19.269  1.00  0.00     0.277 HD
ATOM      5  H22 UNL     1      26.152  30.234  18.369  1.00  0.00     0.277 HD
HETATM    6  C5  UNL     1      27.628  31.858  18.465  1.00  0.00     0.258 C 
ENDROOT
BRANCH   1   7
HETATM    7  N1  UNL     1      27.424  32.921  20.660  1.00  0.00    -0.413 N 
ATOM      8  H1  UNL     1      27.158  33.808  20.231  1.00  0.00     0.153 HD
BRANCH   7   9
HETATM    9  C2  UNL     1      27.106  32.639  22.012  1.00  0.00     0.125 C 
BRANCH   9  10
HETATM   10  C1  UNL     1      28.109  33.322  22.922  1.00  0.00     0.104 C 
HETATM   11 BR1  UNL     1      28.012  35.240  22.874  1.00  0.00    -0.095 Br
ENDBRANCH   9  10
ENDBRANCH   7   9
ENDBRANCH   1   7
TORSDOF 3
ENDMDL
