MODEL 1
REMARK VINA RESULT: -5.533960447      0.000      0.000
REMARK  4 active torsions:
REMARK  status: ('A' for Active; 'I' for Inactive)
REMARK    1  A    between atoms: C2_2  and  C3_4 
REMARK    2  A    between atoms: C5_6  and  C6_7 
REMARK    3  A    between atoms: C6_7  and  N1_8 
REMARK    4  A    between atoms: N1_8  and  N2_11 
ROOT
HETATM    1  C6  UNL     1      28.414  31.817  20.297  1.00  0.00     0.268 C 
ENDROOT
BRANCH   1   2
HETATM    2  C5  UNL     1      27.791  31.547  21.615  1.00  0.00     0.020 A 
HETATM    3  C3  UNL     1      27.888  32.335  22.823  1.00  0.00     0.010 A 
HETATM    4  C4  UNL     1      28.702  31.045  22.725  1.00  0.00     0.013 A 
BRANCH   3   5
HETATM    5  C2  UNL     1      28.689  33.564  23.051  1.00  0.00     0.082 C 
HETATM    6  C1  UNL     1      27.733  34.754  22.873  1.00  0.00     0.027 C 
HETATM    7 CL1  UNL     1      29.376  33.717  24.674  1.00  0.00    -0.125 Cl
ENDBRANCH   3   5
ENDBRANCH   1   2
BRANCH   1   8
HETATM    8  N1  UNL     1      27.501  31.473  19.193  1.00  0.00    -0.001 N 
HETATM    9  C7  UNL     1      27.513  30.062  18.910  1.00  0.00     0.301 C 
HETATM   10  C8  UNL     1      26.146  31.857  19.570  1.00  0.00     0.301 C 
BRANCH   8  11
HETATM   11  N2  UNL     1      27.919  32.137  18.036  1.00  0.00    -0.262 N 
ATOM     12  H22 UNL     1      27.294  32.500  17.316  1.00  0.00     0.183 HD
ATOM     13  H21 UNL     1      28.937  32.195  18.038  1.00  0.00     0.183 HD
ENDBRANCH   8  11
ENDBRANCH   1   8
TORSDOF 4
ENDMDL
MODEL 2
REMARK VINA RESULT: -5.090078970      1.050      1.050
REMARK  4 active torsions:
REMARK  status: ('A' for Active; 'I' for Inactive)
REMARK    1  A    between atoms: C2_2  and  C3_4 
REMARK    2  A    between atoms: C5_6  and  C6_7 
REMARK    3  A    between atoms: C6_7  and  N1_8 
REMARK    4  A    between atoms: N1_8  and  N2_11 
ROOT
HETATM    1  C6  UNL     1      28.182  31.195  20.249  1.00  0.00     0.268 C 
ENDROOT
BRANCH   1   2
HETATM    2  C5  UNL     1      27.443  31.458  21.508  1.00  0.00     0.020 A 
HETATM    3  C3  UNL     1      27.608  32.564  22.423  1.00  0.00     0.010 A 
HETATM    4  C4  UNL     1      28.181  31.202  22.813  1.00  0.00     0.013 A 
BRANCH   3   5
HETATM    5  C2  UNL     1      28.604  33.664  22.357  1.00  0.00     0.082 C 
HETATM    6  C1  UNL     1      28.592  34.184  20.910  1.00  0.00     0.027 C 
HETATM    7 CL1  UNL     1      28.248  35.057  23.388  1.00  0.00    -0.125 Cl
ENDBRANCH   3   5
ENDBRANCH   1   2
BRANCH   1   8
HETATM    8  N1  UNL     1      27.301  31.324  19.075  1.00  0.00    -0.001 N 
HETATM    9  C7  UNL     1      26.822  30.044  18.626  1.00  0.00     0.301 C 
HETATM   10  C8  UNL     1      26.153  32.146  19.439  1.00  0.00     0.301 C 
BRANCH   8  11
HETATM   11  N2  UNL     1      28.028  31.894  18.025  1.00  0.00    -0.262 N 
ATOM     12  H22 UNL     1      28.411  31.376  17.234  1.00  0.00     0.183 HD
ATOM     13  H21 UNL     1      28.106  32.898  18.185  1.00  0.00     0.183 HD
ENDBRANCH   8  11
ENDBRANCH   1   8
TORSDOF 4
ENDMDL
MODEL 3
REMARK VINA RESULT: -5.056532676      0.798      1.103
REMARK  4 active torsions:
REMARK  status: ('A' for Active; 'I' for Inactive)
REMARK    1  A    between atoms: C2_2  and  C3_4 
REMARK    2  A    between atoms: C5_6  and  C6_7 
REMARK    3  A    between atoms: C6_7  and  N1_8 
REMARK    4  A    between atoms: N1_8  and  N2_11 
ROOT
HETATM    1  C6  UNL     1      28.266  31.881  20.287  1.00  0.00     0.268 C 
ENDROOT
BRANCH   1   2
HETATM    2  C5  UNL     1      27.659  31.624  21.615  1.00  0.00     0.020 A 
HETATM    3  C3  UNL     1      27.809  32.397  22.827  1.00  0.00     0.010 A 
HETATM    4  C4  UNL     1      28.572  31.078  22.702  1.00  0.00     0.013 A 
BRANCH   3   5
HETATM    5  C2  UNL     1      28.662  33.592  23.049  1.00  0.00     0.082 C 
HETATM    6  C1  UNL     1      27.755  34.820  22.869  1.00  0.00     0.027 C 
HETATM    7 CL1  UNL     1      29.359  33.723  24.670  1.00  0.00    -0.125 Cl
ENDBRANCH   3   5
ENDBRANCH   1   2
BRANCH   1   8
HETATM    8  N1  UNL     1      27.350  31.500  19.197  1.00  0.00    -0.001 N 
HETATM    9  C7  UNL     1      27.898  31.815  17.905  1.00  0.00     0.301 C 
HETATM   10  C8  UNL     1      27.116  30.063  19.263  1.00  0.00     0.301 C 
BRANCH   8  11
HETATM   11  N2  UNL     1      26.159  32.220  19.336  1.00  0.00    -0.262 N 
ATOM     12  H22 UNL     1      25.899  32.760  20.161  1.00  0.00     0.183 HD
ATOM     13  H21 UNL     1      25.607  32.113  18.485  1.00  0.00     0.183 HD
ENDBRANCH   8  11
ENDBRANCH   1   8
TORSDOF 4
ENDMDL
MODEL 4
REMARK VINA RESULT: -4.601091667      3.241      4.561
REMARK  4 active torsions:
REMARK  status: ('A' for Active; 'I' for Inactive)
REMARK    1  A    between atoms: C2_2  and  C3_4 
REMARK    2  A    between atoms: C5_6  and  C6_7 
REMARK    3  A    between atoms: C6_7  and  N1_8 
REMARK    4  A    between atoms: N1_8  and  N2_11 
ROOT
HETATM    1  C6  UNL     1      27.451  33.538  22.577  1.00  0.00     0.268 C 
ENDROOT
BRANCH   1   2
HETATM    2  C5  UNL     1      28.500  32.526  22.305  1.00  0.00     0.020 A 
HETATM    3  C3  UNL     1      28.543  31.554  21.236  1.00  0.00     0.010 A 
HETATM    4  C4  UNL     1      28.173  31.079  22.640  1.00  0.00     0.013 A 
BRANCH   3   5
HETATM    5  C2  UNL     1      27.515  31.291  20.197  1.00  0.00     0.082 C 
HETATM    6  C1  UNL     1      27.554  32.483  19.227  1.00  0.00     0.027 C 
HETATM    7 CL1  UNL     1      27.795  29.844  19.218  1.00  0.00    -0.125 Cl
ENDBRANCH   3   5
ENDBRANCH   1   2
BRANCH   1   8
HETATM    8  N1  UNL     1      28.026  34.891  22.673  1.00  0.00    -0.001 N 
HETATM    9  C7  UNL     1      28.843  35.041  23.847  1.00  0.00     0.301 C 
HETATM   10  C8  UNL     1      28.855  35.132  21.498  1.00  0.00     0.301 C 
BRANCH   8  11
HETATM   11  N2  UNL     1      26.984  35.820  22.764  1.00  0.00    -0.262 N 
ATOM     12  H22 UNL     1      26.533  36.268  21.966  1.00  0.00     0.183 HD
ATOM     13  H21 UNL     1      26.758  35.968  23.748  1.00  0.00     0.183 HD
ENDBRANCH   8  11
ENDBRANCH   1   8
TORSDOF 4
ENDMDL
MODEL 5
REMARK VINA RESULT: -4.511357989      3.060      4.541
REMARK  4 active torsions:
REMARK  status: ('A' for Active; 'I' for Inactive)
REMARK    1  A    between atoms: C2_2  and  C3_4 
REMARK    2  A    between atoms: C5_6  and  C6_7 
REMARK    3  A    between atoms: C6_7  and  N1_8 
REMARK    4  A    between atoms: N1_8  and  N2_11 
ROOT
HETATM    1  C6  UNL     1      27.439  33.540  22.588  1.00  0.00     0.268 C 
ENDROOT
BRANCH   1   2
HETATM    2  C5  UNL     1      28.479  32.521  22.307  1.00  0.00     0.020 A 
HETATM    3  C3  UNL     1      28.517  31.562  21.226  1.00  0.00     0.010 A 
HETATM    4  C4  UNL     1      28.136  31.073  22.623  1.00  0.00     0.013 A 
BRANCH   3   5
HETATM    5  C2  UNL     1      27.490  31.323  20.180  1.00  0.00     0.082 C 
HETATM    6  C1  UNL     1      27.552  32.522  19.219  1.00  0.00     0.027 C 
HETATM    7 CL1  UNL     1      27.752  29.880  19.191  1.00  0.00    -0.125 Cl
ENDBRANCH   3   5
ENDBRANCH   1   2
BRANCH   1   8
HETATM    8  N1  UNL     1      28.025  34.888  22.687  1.00  0.00    -0.001 N 
HETATM    9  C7  UNL     1      27.023  35.888  22.938  1.00  0.00     0.301 C 
HETATM   10  C8  UNL     1      28.981  34.904  23.788  1.00  0.00     0.301 C 
BRANCH   8  11
HETATM   11  N2  UNL     1      28.640  35.204  21.470  1.00  0.00    -0.262 N 
ATOM     12  H22 UNL     1      28.720  36.146  21.087  1.00  0.00     0.183 HD
ATOM     13  H21 UNL     1      28.985  34.345  21.042  1.00  0.00     0.183 HD
ENDBRANCH   8  11
ENDBRANCH   1   8
TORSDOF 4
ENDMDL
