MODEL 1
REMARK VINA RESULT: -8.293994098      0.000      0.000
REMARK  8 active torsions:
REMARK  status: ('A' for Active; 'I' for Inactive)
REMARK    1  A    between atoms: C4_8  and  O2_9 
REMARK    2  A    between atoms: O2_9  and  C5_10 
REMARK    3  A    between atoms: C7_12  and  N3_13 
REMARK    4  A    between atoms: C8_17  and  O3_18 
REMARK    5  A    between atoms: C8_17  and  C9_20 
REMARK    6  A    between atoms: C9_20  and  O4_21 
REMARK    7  A    between atoms: C10_25  and  N5_26 
REMARK    8  A    between atoms: C10_25  and  O5_30 
ROOT
HETATM    1  C5  UNL     1       3.555   0.866  38.679  1.00  0.00     0.217 C 
HETATM    2  C6  UNL     1       4.618   1.883  38.350  1.00  0.00     0.077 C 
HETATM    3  C7  UNL     1       4.659   2.210  36.879  1.00  0.00     0.243 C 
HETATM    4  C8  UNL     1       4.776   1.023  35.993  1.00  0.00     0.181 C 
HETATM    5  N4  UNL     1       4.501  -0.187  36.682  1.00  0.00    -0.332 N 
ATOM      6  H4  UNL     1       5.061  -1.026  36.530  1.00  0.00     0.161 HD
HETATM    7  C10 UNL     1       3.406  -0.177  37.594  1.00  0.00     0.327 C 
ENDROOT
BRANCH   1   8
HETATM    8  O2  UNL     1       3.776   0.288  39.920  1.00  0.00    -0.322 OA
BRANCH   8   9
HETATM    9  C4  UNL     1       3.270   0.681  41.123  1.00  0.00     0.163 A 
HETATM   10  C3  UNL     1       2.044   0.179  41.515  1.00  0.00     0.130 A 
HETATM   11  C2  UNL     1       1.123  -0.687  40.959  1.00  0.00     0.278 A 
HETATM   12  C12 UNL     1       1.500   0.558  42.734  1.00  0.00     0.143 A 
HETATM   13  N2  UNL     1       0.074  -0.827  41.796  1.00  0.00    -0.262 N 
HETATM   14  O1  UNL     1       1.211  -1.270  39.857  1.00  0.00    -0.266 OA
HETATM   15  N1  UNL     1       0.303  -0.079  42.861  1.00  0.00    -0.277 N 
ATOM     16  H2  UNL     1      -0.749  -1.408  41.635  1.00  0.00     0.190 HD
HETATM   17  C1  UNL     1      -0.543   0.102  44.047  1.00  0.00     0.179 C 
HETATM   18  N7  UNL     1       2.164   1.410  43.531  1.00  0.00    -0.336 N 
HETATM   19  C11 UNL     1       3.357   1.904  43.160  1.00  0.00     0.184 A 
ATOM     20  H7  UNL     1       1.760   1.685  44.425  1.00  0.00     0.168 HD
HETATM   21  N6  UNL     1       3.862   1.528  41.985  1.00  0.00    -0.332 N 
ATOM     22  H6  UNL     1       4.769   1.912  41.719  1.00  0.00     0.168 HD
ENDBRANCH   8   9
ENDBRANCH   1   8
BRANCH   7  23
HETATM   23  N5  UNL     1       2.111  -0.086  36.932  1.00  0.00    -0.025 N 
ATOM     24  H53 UNL     1       1.467   0.509  37.453  1.00  0.00     0.280 HD
ATOM     25  H52 UNL     1       2.170   0.459  36.072  1.00  0.00     0.280 HD
ATOM     26  H51 UNL     1       1.709  -1.008  36.761  1.00  0.00     0.280 HD
ENDBRANCH   7  23
BRANCH   7  27
HETATM   27  O5  UNL     1       3.397  -1.436  38.232  1.00  0.00    -0.347 OA
ATOM     28  H5  UNL     1       3.932  -1.355  39.013  1.00  0.00     0.214 HD
ENDBRANCH   7  27
BRANCH   3  29
HETATM   29  N3  UNL     1       3.469   2.964  36.472  1.00  0.00    -0.070 N 
ATOM     30  H33 UNL     1       3.099   3.524  37.240  1.00  0.00     0.274 HD
ATOM     31  H32 UNL     1       3.705   3.720  35.828  1.00  0.00     0.274 HD
ATOM     32  H31 UNL     1       2.758   2.346  36.082  1.00  0.00     0.274 HD
ENDBRANCH   3  29
BRANCH   4  33
HETATM   33  O3  UNL     1       6.123   0.943  35.558  1.00  0.00    -0.367 OA
ATOM     34  H3  UNL     1       6.241   0.098  35.141  1.00  0.00     0.212 HD
ENDBRANCH   4  33
BRANCH   4  35
HETATM   35  C9  UNL     1       3.973   1.241  34.731  1.00  0.00     0.227 C 
BRANCH  35  36
HETATM   36  O4  UNL     1       4.572   0.407  33.758  1.00  0.00    -0.396 OA
ATOM     37  H4  UNL     1       4.114   0.597  32.948  1.00  0.00     0.209 HD
ENDBRANCH  35  36
ENDBRANCH   4  35
TORSDOF 8
ENDMDL
MODEL 2
REMARK VINA RESULT: -8.292243213      1.457      2.283
REMARK  8 active torsions:
REMARK  status: ('A' for Active; 'I' for Inactive)
REMARK    1  A    between atoms: C4_8  and  O2_9 
REMARK    2  A    between atoms: O2_9  and  C5_10 
REMARK    3  A    between atoms: C7_12  and  N3_13 
REMARK    4  A    between atoms: C8_17  and  O3_18 
REMARK    5  A    between atoms: C8_17  and  C9_20 
REMARK    6  A    between atoms: C9_20  and  O4_21 
REMARK    7  A    between atoms: C10_25  and  N5_26 
REMARK    8  A    between atoms: C10_25  and  O5_30 
ROOT
HETATM    1  C5  UNL     1       3.858   0.810  37.997  1.00  0.00     0.217 C 
HETATM    2  C6  UNL     1       3.321  -0.219  37.034  1.00  0.00     0.077 C 
HETATM    3  C7  UNL     1       4.104  -0.260  35.747  1.00  0.00     0.243 C 
HETATM    4  C8  UNL     1       4.249   1.059  35.078  1.00  0.00     0.181 C 
HETATM    5  N4  UNL     1       3.906   2.135  35.939  1.00  0.00    -0.332 N 
ATOM      6  H4  UNL     1       3.364   2.933  35.605  1.00  0.00     0.161 HD
HETATM    7  C10 UNL     1       4.354   2.051  37.289  1.00  0.00     0.327 C 
ENDROOT
BRANCH   1   8
HETATM    8  O2  UNL     1       2.928   1.117  38.979  1.00  0.00    -0.322 OA
BRANCH   8   9
HETATM    9  C4  UNL     1       3.164   1.364  40.299  1.00  0.00     0.163 A 
HETATM   10  C3  UNL     1       2.225   0.945  41.222  1.00  0.00     0.130 A 
HETATM   11  C2  UNL     1       1.012   0.290  41.150  1.00  0.00     0.278 A 
HETATM   12  C12 UNL     1       2.434   1.180  42.574  1.00  0.00     0.143 A 
HETATM   13  N2  UNL     1       0.509   0.134  42.392  1.00  0.00    -0.262 N 
HETATM   14  O1  UNL     1       0.437  -0.112  40.116  1.00  0.00    -0.266 OA
HETATM   15  N1  UNL     1       1.365   0.669  43.245  1.00  0.00    -0.277 N 
ATOM     16  H2  UNL     1      -0.374  -0.317  42.630  1.00  0.00     0.190 HD
HETATM   17  C1  UNL     1       1.265   0.748  44.708  1.00  0.00     0.179 C 
HETATM   18  N7  UNL     1       3.546   1.812  42.983  1.00  0.00    -0.336 N 
HETATM   19  C11 UNL     1       4.465   2.222  42.094  1.00  0.00     0.184 A 
ATOM     20  H7  UNL     1       3.694   1.981  43.977  1.00  0.00     0.168 HD
HETATM   21  N6  UNL     1       4.246   1.988  40.800  1.00  0.00    -0.332 N 
ATOM     22  H6  UNL     1       4.954   2.306  40.138  1.00  0.00     0.168 HD
ENDBRANCH   8   9
ENDBRANCH   1   8
BRANCH   7  23
HETATM   23  N5  UNL     1       5.797   2.209  37.423  1.00  0.00    -0.025 N 
ATOM     24  H53 UNL     1       6.140   2.986  36.859  1.00  0.00     0.280 HD
ATOM     25  H52 UNL     1       6.048   2.561  38.347  1.00  0.00     0.280 HD
ATOM     26  H51 UNL     1       6.293   1.345  37.207  1.00  0.00     0.280 HD
ENDBRANCH   7  23
BRANCH   7  27
HETATM   27  O5  UNL     1       3.805   3.160  37.969  1.00  0.00    -0.347 OA
ATOM     28  H5  UNL     1       4.236   3.935  37.627  1.00  0.00     0.214 HD
ENDBRANCH   7  27
BRANCH   3  29
HETATM   29  N3  UNL     1       5.447  -0.809  35.963  1.00  0.00    -0.070 N 
ATOM     30  H33 UNL     1       5.890  -0.402  36.786  1.00  0.00     0.274 HD
ATOM     31  H32 UNL     1       5.411  -1.781  36.270  1.00  0.00     0.274 HD
ATOM     32  H31 UNL     1       6.027  -0.698  35.131  1.00  0.00     0.274 HD
ENDBRANCH   3  29
BRANCH   4  33
HETATM   33  O3  UNL     1       3.331   1.096  33.999  1.00  0.00    -0.367 OA
ATOM     34  H3  UNL     1       3.298   1.991  33.680  1.00  0.00     0.212 HD
ENDBRANCH   4  33
BRANCH   4  35
HETATM   35  C9  UNL     1       5.612   1.162  34.433  1.00  0.00     0.227 C 
BRANCH  35  36
HETATM   36  O4  UNL     1       5.590   0.237  33.363  1.00  0.00    -0.396 OA
ATOM     37  H4  UNL     1       6.157  -0.475  33.636  1.00  0.00     0.209 HD
ENDBRANCH  35  36
ENDBRANCH   4  35
TORSDOF 8
ENDMDL
MODEL 3
REMARK VINA RESULT: -8.273449695      1.717      3.193
REMARK  8 active torsions:
REMARK  status: ('A' for Active; 'I' for Inactive)
REMARK    1  A    between atoms: C4_8  and  O2_9 
REMARK    2  A    between atoms: O2_9  and  C5_10 
REMARK    3  A    between atoms: C7_12  and  N3_13 
REMARK    4  A    between atoms: C8_17  and  O3_18 
REMARK    5  A    between atoms: C8_17  and  C9_20 
REMARK    6  A    between atoms: C9_20  and  O4_21 
REMARK    7  A    between atoms: C10_25  and  N5_26 
REMARK    8  A    between atoms: C10_25  and  O5_30 
ROOT
HETATM    1  C5  UNL     1       3.604   0.992  37.925  1.00  0.00     0.217 C 
HETATM    2  C6  UNL     1       3.069  -0.030  36.954  1.00  0.00     0.077 C 
HETATM    3  C7  UNL     1       3.940  -0.166  35.731  1.00  0.00     0.243 C 
HETATM    4  C8  UNL     1       4.226   1.117  35.039  1.00  0.00     0.181 C 
HETATM    5  N4  UNL     1       3.896   2.241  35.840  1.00  0.00    -0.332 N 
ATOM      6  H4  UNL     1       3.437   3.062  35.443  1.00  0.00     0.161 HD
HETATM    7  C10 UNL     1       4.236   2.173  37.222  1.00  0.00     0.327 C 
ENDROOT
BRANCH   1   8
HETATM    8  O2  UNL     1       2.628   1.393  38.824  1.00  0.00    -0.322 OA
BRANCH   8   9
HETATM    9  C4  UNL     1       2.276   0.788  39.995  1.00  0.00     0.163 A 
HETATM   10  C3  UNL     1       2.990   1.101  41.135  1.00  0.00     0.130 A 
HETATM   11  C2  UNL     1       4.054   1.933  41.422  1.00  0.00     0.278 A 
HETATM   12  C12 UNL     1       2.658   0.504  42.343  1.00  0.00     0.143 A 
HETATM   13  N2  UNL     1       4.353   1.847  42.734  1.00  0.00    -0.262 N 
HETATM   14  O1  UNL     1       4.669   2.667  40.619  1.00  0.00    -0.266 OA
HETATM   15  N1  UNL     1       3.513   0.988  43.285  1.00  0.00    -0.277 N 
ATOM     16  H2  UNL     1       5.096   2.355  43.216  1.00  0.00     0.190 HD
HETATM   17  C1  UNL     1       3.437   0.560  44.688  1.00  0.00     0.179 C 
HETATM   18  N7  UNL     1       1.645  -0.375  42.402  1.00  0.00    -0.336 N 
HETATM   19  C11 UNL     1       0.944  -0.686  41.299  1.00  0.00     0.184 A 
ATOM     20  H7  UNL     1       1.405  -0.811  43.293  1.00  0.00     0.168 HD
HETATM   21  N6  UNL     1       1.279  -0.102  40.150  1.00  0.00    -0.332 N 
ATOM     22  H6  UNL     1       0.736  -0.349  39.322  1.00  0.00     0.168 HD
ENDBRANCH   8   9
ENDBRANCH   1   8
BRANCH   7  23
HETATM   23  N5  UNL     1       5.673   2.238  37.461  1.00  0.00    -0.025 N 
ATOM     24  H53 UNL     1       5.883   2.715  38.337  1.00  0.00     0.280 HD
ATOM     25  H52 UNL     1       6.054   1.319  37.684  1.00  0.00     0.280 HD
ATOM     26  H51 UNL     1       6.167   2.665  36.678  1.00  0.00     0.280 HD
ENDBRANCH   7  23
BRANCH   7  27
HETATM   27  O5  UNL     1       3.717   3.338  37.827  1.00  0.00    -0.347 OA
ATOM     28  H5  UNL     1       4.075   3.376  38.706  1.00  0.00     0.214 HD
ENDBRANCH   7  27
BRANCH   3  29
HETATM   29  N3  UNL     1       5.222  -0.797  36.064  1.00  0.00    -0.070 N 
ATOM     30  H33 UNL     1       5.974  -0.110  36.124  1.00  0.00     0.274 HD
ATOM     31  H32 UNL     1       5.238  -1.130  37.028  1.00  0.00     0.274 HD
ATOM     32  H31 UNL     1       5.447  -1.542  35.405  1.00  0.00     0.274 HD
ENDBRANCH   3  29
BRANCH   4  33
HETATM   33  O3  UNL     1       3.394   1.180  33.892  1.00  0.00    -0.367 OA
ATOM     34  H3  UNL     1       3.771   1.818  33.298  1.00  0.00     0.212 HD
ENDBRANCH   4  33
BRANCH   4  35
HETATM   35  C9  UNL     1       5.636   1.107  34.495  1.00  0.00     0.227 C 
BRANCH  35  36
HETATM   36  O4  UNL     1       5.605   0.223  33.392  1.00  0.00    -0.396 OA
ATOM     37  H4  UNL     1       4.997   0.612  32.775  1.00  0.00     0.209 HD
ENDBRANCH  35  36
ENDBRANCH   4  35
TORSDOF 8
ENDMDL
MODEL 4
REMARK VINA RESULT: -8.213797545      1.112      2.234
REMARK  8 active torsions:
REMARK  status: ('A' for Active; 'I' for Inactive)
REMARK    1  A    between atoms: C4_8  and  O2_9 
REMARK    2  A    between atoms: O2_9  and  C5_10 
REMARK    3  A    between atoms: C7_12  and  N3_13 
REMARK    4  A    between atoms: C8_17  and  O3_18 
REMARK    5  A    between atoms: C8_17  and  C9_20 
REMARK    6  A    between atoms: C9_20  and  O4_21 
REMARK    7  A    between atoms: C10_25  and  N5_26 
REMARK    8  A    between atoms: C10_25  and  O5_30 
ROOT
HETATM    1  C5  UNL     1       3.695   0.825  38.642  1.00  0.00     0.217 C 
HETATM    2  C6  UNL     1       4.746   1.845  38.286  1.00  0.00     0.077 C 
HETATM    3  C7  UNL     1       4.720   2.205  36.822  1.00  0.00     0.243 C 
HETATM    4  C8  UNL     1       4.791   1.037  35.906  1.00  0.00     0.181 C 
HETATM    5  N4  UNL     1       4.542  -0.187  36.580  1.00  0.00    -0.332 N 
ATOM      6  H4  UNL     1       5.091  -1.025  36.384  1.00  0.00     0.161 HD
HETATM    7  C10 UNL     1       3.491  -0.194  37.543  1.00  0.00     0.327 C 
ENDROOT
BRANCH   1   8
HETATM    8  O2  UNL     1       3.971   0.218  39.858  1.00  0.00    -0.322 OA
BRANCH   8   9
HETATM    9  C4  UNL     1       3.097  -0.052  40.870  1.00  0.00     0.163 A 
HETATM   10  C3  UNL     1       3.086   0.785  41.968  1.00  0.00     0.130 A 
HETATM   11  C2  UNL     1       3.786   1.916  42.339  1.00  0.00     0.278 A 
HETATM   12  C12 UNL     1       2.210   0.539  43.015  1.00  0.00     0.143 A 
HETATM   13  N2  UNL     1       3.359   2.336  43.547  1.00  0.00    -0.262 N 
HETATM   14  O1  UNL     1       4.683   2.491  41.685  1.00  0.00    -0.266 OA
HETATM   15  N1  UNL     1       2.411   1.507  43.951  1.00  0.00    -0.277 N 
ATOM     16  H2  UNL     1       3.705   3.148  44.058  1.00  0.00     0.190 HD
HETATM   17  C1  UNL     1       1.640   1.544  45.200  1.00  0.00     0.179 C 
HETATM   18  N7  UNL     1       1.374  -0.510  42.960  1.00  0.00    -0.336 N 
HETATM   19  C11 UNL     1       1.376  -1.331  41.896  1.00  0.00     0.184 A 
ATOM     20  H7  UNL     1       0.732  -0.687  43.732  1.00  0.00     0.168 HD
HETATM   21  N6  UNL     1       2.226  -1.077  40.902  1.00  0.00    -0.332 N 
ATOM     22  H6  UNL     1       2.214  -1.710  40.101  1.00  0.00     0.168 HD
ENDBRANCH   8   9
ENDBRANCH   1   8
BRANCH   7  23
HETATM   23  N5  UNL     1       2.167  -0.084  36.943  1.00  0.00    -0.025 N 
ATOM     24  H53 UNL     1       1.432  -0.158  37.647  1.00  0.00     0.280 HD
ATOM     25  H52 UNL     1       1.983   0.865  36.620  1.00  0.00     0.280 HD
ATOM     26  H51 UNL     1       2.034  -0.763  36.195  1.00  0.00     0.280 HD
ENDBRANCH   7  23
BRANCH   7  27
HETATM   27  O5  UNL     1       3.506  -1.466  38.153  1.00  0.00    -0.347 OA
ATOM     28  H5  UNL     1       2.678  -1.884  37.942  1.00  0.00     0.214 HD
ENDBRANCH   7  27
BRANCH   3  29
HETATM   29  N3  UNL     1       3.516   2.971  36.488  1.00  0.00    -0.070 N 
ATOM     30  H33 UNL     1       2.963   3.184  37.318  1.00  0.00     0.274 HD
ATOM     31  H32 UNL     1       3.744   3.925  36.204  1.00  0.00     0.274 HD
ATOM     32  H31 UNL     1       2.960   2.492  35.780  1.00  0.00     0.274 HD
ENDBRANCH   3  29
BRANCH   4  33
HETATM   33  O3  UNL     1       6.116   0.962  35.407  1.00  0.00    -0.367 OA
ATOM     34  H3  UNL     1       6.191   0.157  34.909  1.00  0.00     0.212 HD
ENDBRANCH   4  33
BRANCH   4  35
HETATM   35  C9  UNL     1       3.931   1.286  34.688  1.00  0.00     0.227 C 
BRANCH  35  36
HETATM   36  O4  UNL     1       4.459   0.445  33.680  1.00  0.00    -0.396 OA
ATOM     37  H4  UNL     1       3.754   0.331  33.054  1.00  0.00     0.209 HD
ENDBRANCH  35  36
ENDBRANCH   4  35
TORSDOF 8
ENDMDL
MODEL 5
REMARK VINA RESULT: -8.208292059      0.944      1.030
REMARK  8 active torsions:
REMARK  status: ('A' for Active; 'I' for Inactive)
REMARK    1  A    between atoms: C4_8  and  O2_9 
REMARK    2  A    between atoms: O2_9  and  C5_10 
REMARK    3  A    between atoms: C7_12  and  N3_13 
REMARK    4  A    between atoms: C8_17  and  O3_18 
REMARK    5  A    between atoms: C8_17  and  C9_20 
REMARK    6  A    between atoms: C9_20  and  O4_21 
REMARK    7  A    between atoms: C10_25  and  N5_26 
REMARK    8  A    between atoms: C10_25  and  O5_30 
ROOT
HETATM    1  C5  UNL     1       3.944   0.838  38.614  1.00  0.00     0.217 C 
HETATM    2  C6  UNL     1       5.045   1.798  38.242  1.00  0.00     0.077 C 
HETATM    3  C7  UNL     1       4.896   2.322  36.837  1.00  0.00     0.243 C 
HETATM    4  C8  UNL     1       4.751   1.264  35.803  1.00  0.00     0.181 C 
HETATM    5  N4  UNL     1       4.457  -0.003  36.372  1.00  0.00    -0.332 N 
ATOM      6  H4  UNL     1       4.896  -0.857  36.027  1.00  0.00     0.161 HD
HETATM    7  C10 UNL     1       3.522  -0.027  37.447  1.00  0.00     0.327 C 
ENDROOT
BRANCH   1   8
HETATM    8  O2  UNL     1       4.289   0.076  39.719  1.00  0.00    -0.322 OA
BRANCH   8   9
HETATM    9  C4  UNL     1       4.205   0.430  41.033  1.00  0.00     0.163 A 
HETATM   10  C3  UNL     1       2.967   0.395  41.644  1.00  0.00     0.130 A 
HETATM   11  C2  UNL     1       1.688   0.069  41.238  1.00  0.00     0.278 A 
HETATM   12  C12 UNL     1       2.846   0.750  42.981  1.00  0.00     0.143 A 
HETATM   13  N2  UNL     1       0.835   0.217  42.272  1.00  0.00    -0.262 N 
HETATM   14  O1  UNL     1       1.336  -0.308  40.100  1.00  0.00    -0.266 OA
HETATM   15  N1  UNL     1       1.533   0.625  43.318  1.00  0.00    -0.277 N 
ATOM     16  H2  UNL     1      -0.170   0.045  42.251  1.00  0.00     0.190 HD
HETATM   17  C1  UNL     1       1.054   0.925  44.673  1.00  0.00     0.179 C 
HETATM   18  N7  UNL     1       3.931   1.124  43.678  1.00  0.00    -0.336 N 
HETATM   19  C11 UNL     1       5.140   1.161  43.093  1.00  0.00     0.184 A 
ATOM     20  H7  UNL     1       3.837   1.383  44.659  1.00  0.00     0.168 HD
HETATM   21  N6  UNL     1       5.235   0.818  41.809  1.00  0.00    -0.332 N 
ATOM     22  H6  UNL     1       6.160   0.851  41.381  1.00  0.00     0.168 HD
ENDBRANCH   8   9
ENDBRANCH   1   8
BRANCH   7  23
HETATM   23  N5  UNL     1       2.158   0.264  37.025  1.00  0.00    -0.025 N 
ATOM     24  H53 UNL     1       2.119   0.511  36.036  1.00  0.00     0.280 HD
ATOM     25  H52 UNL     1       1.588  -0.581  37.000  1.00  0.00     0.280 HD
ATOM     26  H51 UNL     1       1.728   0.984  37.604  1.00  0.00     0.280 HD
ENDBRANCH   7  23
BRANCH   7  27
HETATM   27  O5  UNL     1       3.477  -1.358  37.917  1.00  0.00    -0.347 OA
ATOM     28  H5  UNL     1       3.839  -1.906  37.230  1.00  0.00     0.214 HD
ENDBRANCH   7  27
BRANCH   3  29
HETATM   29  N3  UNL     1       3.744   3.223  36.729  1.00  0.00    -0.070 N 
ATOM     30  H33 UNL     1       2.864   2.708  36.723  1.00  0.00     0.274 HD
ATOM     31  H32 UNL     1       3.605   3.759  37.586  1.00  0.00     0.274 HD
ATOM     32  H31 UNL     1       3.829   3.831  35.915  1.00  0.00     0.274 HD
ENDBRANCH   3  29
BRANCH   4  33
HETATM   33  O3  UNL     1       6.000   1.132  35.145  1.00  0.00    -0.367 OA
ATOM     34  H3  UNL     1       6.663   1.518  35.705  1.00  0.00     0.212 HD
ENDBRANCH   4  33
BRANCH   4  35
HETATM   35  C9  UNL     1       3.792   1.723  34.728  1.00  0.00     0.227 C 
BRANCH  35  36
HETATM   36  O4  UNL     1       3.888   0.753  33.703  1.00  0.00    -0.396 OA
ATOM     37  H4  UNL     1       4.677   0.974  33.222  1.00  0.00     0.209 HD
ENDBRANCH  35  36
ENDBRANCH   4  35
TORSDOF 8
ENDMDL
