MODEL 1
REMARK VINA RESULT: -7.493903568      0.000      0.000
REMARK  7 active torsions:
REMARK  status: ('A' for Active; 'I' for Inactive)
REMARK       I    between atoms: C1_4  and  N3_6 
REMARK    1  A    between atoms: N3_6  and  C2_8 
REMARK    2  A    between atoms: C4_11  and  N4_12 
REMARK    3  A    between atoms: C4_11  and  C5_16 
REMARK       I    between atoms: C5_16  and  N5_18 
REMARK       I    between atoms: N6_20  and  C6_22 
REMARK       I    between atoms: C6_22  and  N8_27 
REMARK    4  A    between atoms: N7_23  and  O3_25 
REMARK    5  A    between atoms: N8_27  and  N9_29 
REMARK    6  A    between atoms: C7_32  and  O6_33 
REMARK    7  A    between atoms: C8_35  and  O7_36 
ROOT
HETATM    1  C2  UNL     1       3.852  -0.078  36.971  1.00  0.00     0.254 C 
HETATM    2  O1  UNL     1       3.802  -1.088  37.886  1.00  0.00    -0.361 OA
HETATM    3  C3  UNL     1       4.143  -0.750  39.162  1.00  0.00     0.222 C 
HETATM    4  C4  UNL     1       3.316   0.371  39.755  1.00  0.00     0.253 C 
HETATM    5  C7  UNL     1       3.035   1.475  38.744  1.00  0.00     0.199 C 
HETATM    6  C8  UNL     1       3.938   1.295  37.574  1.00  0.00     0.198 C 
ENDROOT
BRANCH   4   7
HETATM    7  N4  UNL     1       4.002   0.927  40.838  1.00  0.00    -0.057 N 
ATOM      8  H43 UNL     1       3.869   0.392  41.696  1.00  0.00     0.276 HD
ATOM      9  H42 UNL     1       5.012   0.816  40.753  1.00  0.00     0.276 HD
ATOM     10  H41 UNL     1       3.727   1.903  40.945  1.00  0.00     0.276 HD
ENDBRANCH   4   7
BRANCH   4  11
HETATM   11  C5  UNL     1       1.985  -0.120  40.198  1.00  0.00     0.277 C 
HETATM   12  O2  UNL     1       1.653  -1.270  39.809  1.00  0.00    -0.269 OA
HETATM   13  N5  UNL     1       1.175   0.698  41.009  1.00  0.00    -0.253 N 
HETATM   14  N6  UNL     1       1.036   0.637  42.243  1.00  0.00    -0.126 N 
ATOM     15  H5  UNL     1       0.641   1.423  40.530  1.00  0.00     0.190 HD
HETATM   16  C6  UNL     1       1.655  -0.263  43.128  1.00  0.00     0.735 C 
ATOM     17  H6  UNL     1       0.401   1.316  42.661  1.00  0.00     0.206 HD
HETATM   18  N7  UNL     1       1.160  -1.433  43.329  1.00  0.00    -0.096 N 
HETATM   19  N8  UNL     1       2.850   0.053  43.852  1.00  0.00    -0.069 N 
ATOM     20  H7  UNL     1       1.644  -2.050  43.981  1.00  0.00     0.213 HD
ATOM     21  H8  UNL     1       3.691  -0.492  43.663  1.00  0.00     0.212 HD
BRANCH  18  22
HETATM   22  O3  UNL     1       0.026  -1.904  42.725  1.00  0.00    -0.276 OA
ATOM     23  H3  UNL     1      -0.742  -2.208  43.194  1.00  0.00     0.245 HD
ENDBRANCH  18  22
BRANCH  19  24
HETATM   24  N9  UNL     1       2.919   1.065  44.797  1.00  0.00    -0.024 N 
HETATM   25  O4  UNL     1       2.077   2.000  44.709  1.00  0.00    -0.516 OA
HETATM   26  O5  UNL     1       3.872   1.046  45.792  1.00  0.00    -0.516 OA
ENDBRANCH  19  24
ENDBRANCH   4  11
BRANCH   5  27
HETATM   27  O6  UNL     1       1.719   1.454  38.300  1.00  0.00    -0.390 OA
ATOM     28  H6  UNL     1       1.224   2.199  38.619  1.00  0.00     0.210 HD
ENDBRANCH   5  27
BRANCH   6  29
HETATM   29  O7  UNL     1       5.283   1.553  37.879  1.00  0.00    -0.389 OA
ATOM     30  H7  UNL     1       5.313   2.021  38.705  1.00  0.00     0.210 HD
ENDBRANCH   6  29
BRANCH   1  31
HETATM   31  N3  UNL     1       4.921  -0.268  36.018  1.00  0.00    -0.336 N 
HETATM   32  C1  UNL     1       4.966   0.501  34.829  1.00  0.00     0.183 C 
HETATM   33  N1  UNL     1       6.097   0.764  34.229  1.00  0.00    -0.374 N 
HETATM   34  N2  UNL     1       3.803   1.027  34.220  1.00  0.00    -0.064 NA
ATOM     35  H12 UNL     1       6.129   1.317  33.373  1.00  0.00     0.158 HD
ATOM     36  H11 UNL     1       6.936   0.385  34.669  1.00  0.00     0.158 HD
ATOM     37  H3  UNL     1       5.648  -0.959  36.203  1.00  0.00     0.164 HD
ENDBRANCH   1  31
TORSDOF 7
ENDMDL
MODEL 2
REMARK VINA RESULT: -7.385573278      3.425      7.319
REMARK  7 active torsions:
REMARK  status: ('A' for Active; 'I' for Inactive)
REMARK       I    between atoms: C1_4  and  N3_6 
REMARK    1  A    between atoms: N3_6  and  C2_8 
REMARK    2  A    between atoms: C4_11  and  N4_12 
REMARK    3  A    between atoms: C4_11  and  C5_16 
REMARK       I    between atoms: C5_16  and  N5_18 
REMARK       I    between atoms: N6_20  and  C6_22 
REMARK       I    between atoms: C6_22  and  N8_27 
REMARK    4  A    between atoms: N7_23  and  O3_25 
REMARK    5  A    between atoms: N8_27  and  N9_29 
REMARK    6  A    between atoms: C7_32  and  O6_33 
REMARK    7  A    between atoms: C8_35  and  O7_36 
ROOT
HETATM    1  C2  UNL     1      -1.956  -0.863  40.073  1.00  0.00     0.254 C 
HETATM    2  O1  UNL     1      -0.728  -0.981  40.656  1.00  0.00    -0.361 OA
HETATM    3  C3  UNL     1       0.283  -1.383  39.835  1.00  0.00     0.222 C 
HETATM    4  C4  UNL     1       0.497  -0.498  38.625  1.00  0.00     0.253 C 
HETATM    5  C7  UNL     1      -0.819  -0.036  38.012  1.00  0.00     0.199 C 
HETATM    6  C8  UNL     1      -1.925  -0.860  38.571  1.00  0.00     0.198 C 
ENDROOT
BRANCH   4   7
HETATM    7  N4  UNL     1       1.211  -1.206  37.656  1.00  0.00    -0.057 N 
ATOM      8  H43 UNL     1       0.659  -1.955  37.238  1.00  0.00     0.276 HD
ATOM      9  H42 UNL     1       1.369  -0.655  36.813  1.00  0.00     0.276 HD
ATOM     10  H41 UNL     1       2.081  -1.548  38.062  1.00  0.00     0.276 HD
ENDBRANCH   4   7
BRANCH   4  11
HETATM   11  C5  UNL     1       1.230   0.742  38.989  1.00  0.00     0.277 C 
HETATM   12  O2  UNL     1       1.394   0.957  40.219  1.00  0.00    -0.269 OA
HETATM   13  N5  UNL     1       1.698   1.599  37.974  1.00  0.00    -0.253 N 
HETATM   14  N6  UNL     1       2.851   1.666  37.513  1.00  0.00    -0.126 N 
ATOM     15  H5  UNL     1       1.013   2.239  37.572  1.00  0.00     0.190 HD
HETATM   16  C6  UNL     1       3.967   0.901  37.893  1.00  0.00     0.735 C 
ATOM     17  H6  UNL     1       3.004   2.354  36.776  1.00  0.00     0.206 HD
HETATM   18  N7  UNL     1       4.687   1.245  38.901  1.00  0.00    -0.096 N 
HETATM   19  N8  UNL     1       4.372  -0.284  37.198  1.00  0.00    -0.069 N 
ATOM     20  H7  UNL     1       5.488   0.659  39.137  1.00  0.00     0.213 HD
ATOM     21  H8  UNL     1       4.350  -1.172  37.699  1.00  0.00     0.212 HD
BRANCH  18  22
HETATM   22  O3  UNL     1       4.449   2.346  39.678  1.00  0.00    -0.276 OA
ATOM     23  H3  UNL     1       4.177   2.309  40.588  1.00  0.00     0.245 HD
ENDBRANCH  18  22
BRANCH  19  24
HETATM   24  N9  UNL     1       4.794  -0.283  35.878  1.00  0.00    -0.024 N 
HETATM   25  O4  UNL     1       4.154   0.438  35.064  1.00  0.00    -0.516 OA
HETATM   26  O5  UNL     1       5.871  -1.042  35.473  1.00  0.00    -0.516 OA
ENDBRANCH  19  24
ENDBRANCH   4  11
BRANCH   5  27
HETATM   27  O6  UNL     1      -1.080   1.302  38.282  1.00  0.00    -0.390 OA
ATOM     28  H6  UNL     1      -0.770   1.558  39.143  1.00  0.00     0.210 HD
ENDBRANCH   5  27
BRANCH   6  29
HETATM   29  O7  UNL     1      -1.884  -2.193  38.134  1.00  0.00    -0.389 OA
ATOM     30  H7  UNL     1      -1.653  -2.195  37.213  1.00  0.00     0.210 HD
ENDBRANCH   6  29
BRANCH   1  31
HETATM   31  N3  UNL     1      -2.875  -1.871  40.547  1.00  0.00    -0.336 N 
HETATM   32  C1  UNL     1      -3.829  -1.557  41.547  1.00  0.00     0.183 C 
HETATM   33  N1  UNL     1      -4.965  -2.198  41.631  1.00  0.00    -0.374 N 
HETATM   34  N2  UNL     1      -3.616  -0.541  42.507  1.00  0.00    -0.064 NA
ATOM     35  H12 UNL     1      -5.651  -1.972  42.351  1.00  0.00     0.158 HD
ATOM     36  H11 UNL     1      -5.118  -2.930  40.938  1.00  0.00     0.158 HD
ATOM     37  H3  UNL     1      -2.838  -2.814  40.160  1.00  0.00     0.164 HD
ENDBRANCH   1  31
TORSDOF 7
ENDMDL
MODEL 3
REMARK VINA RESULT: -7.252675858      2.751      5.453
REMARK  7 active torsions:
REMARK  status: ('A' for Active; 'I' for Inactive)
REMARK       I    between atoms: C1_4  and  N3_6 
REMARK    1  A    between atoms: N3_6  and  C2_8 
REMARK    2  A    between atoms: C4_11  and  N4_12 
REMARK    3  A    between atoms: C4_11  and  C5_16 
REMARK       I    between atoms: C5_16  and  N5_18 
REMARK       I    between atoms: N6_20  and  C6_22 
REMARK       I    between atoms: C6_22  and  N8_27 
REMARK    4  A    between atoms: N7_23  and  O3_25 
REMARK    5  A    between atoms: N8_27  and  N9_29 
REMARK    6  A    between atoms: C7_32  and  O6_33 
REMARK    7  A    between atoms: C8_35  and  O7_36 
ROOT
HETATM    1  C2  UNL     1       2.942   0.109  40.526  1.00  0.00     0.254 C 
HETATM    2  O1  UNL     1       2.687  -1.228  40.436  1.00  0.00    -0.361 OA
HETATM    3  C3  UNL     1       1.791  -1.723  41.337  1.00  0.00     0.222 C 
HETATM    4  C4  UNL     1       0.434  -1.052  41.304  1.00  0.00     0.253 C 
HETATM    5  C7  UNL     1       0.544   0.456  41.117  1.00  0.00     0.199 C 
HETATM    6  C8  UNL     1       1.952   0.869  41.361  1.00  0.00     0.198 C 
ENDROOT
BRANCH   4   7
HETATM    7  N4  UNL     1      -0.232  -1.301  42.506  1.00  0.00    -0.057 N 
ATOM      8  H43 UNL     1       0.377  -1.725  43.206  1.00  0.00     0.276 HD
ATOM      9  H42 UNL     1      -0.455  -0.442  43.009  1.00  0.00     0.276 HD
ATOM     10  H41 UNL     1      -1.060  -1.866  42.321  1.00  0.00     0.276 HD
ENDBRANCH   4   7
BRANCH   4  11
HETATM   11  C5  UNL     1      -0.381  -1.543  40.163  1.00  0.00     0.277 C 
HETATM   12  O2  UNL     1      -1.587  -1.183  40.139  1.00  0.00    -0.269 OA
HETATM   13  N5  UNL     1       0.212  -2.366  39.186  1.00  0.00    -0.253 N 
HETATM   14  N6  UNL     1       0.637  -2.024  38.068  1.00  0.00    -0.126 N 
ATOM     15  H5  UNL     1       0.302  -3.354  39.421  1.00  0.00     0.190 HD
HETATM   16  C6  UNL     1       0.630  -0.735  37.510  1.00  0.00     0.735 C 
ATOM     17  H6  UNL     1       1.036  -2.765  37.491  1.00  0.00     0.206 HD
HETATM   18  N7  UNL     1      -0.411  -0.287  36.903  1.00  0.00    -0.096 N 
HETATM   19  N8  UNL     1       1.757   0.148  37.574  1.00  0.00    -0.069 N 
ATOM     20  H7  UNL     1      -0.367   0.655  36.513  1.00  0.00     0.213 HD
ATOM     21  H8  UNL     1       1.658   1.024  38.087  1.00  0.00     0.212 HD
BRANCH  18  22
HETATM   22  O3  UNL     1      -1.574  -0.991  36.746  1.00  0.00    -0.276 OA
ATOM     23  H3  UNL     1      -1.987  -1.501  37.433  1.00  0.00     0.245 HD
ENDBRANCH  18  22
BRANCH  19  24
HETATM   24  N9  UNL     1       2.974  -0.130  36.973  1.00  0.00    -0.024 N 
HETATM   25  O4  UNL     1       3.569  -1.185  37.327  1.00  0.00    -0.516 OA
HETATM   26  O5  UNL     1       3.511   0.715  36.026  1.00  0.00    -0.516 OA
ENDBRANCH  19  24
ENDBRANCH   4  11
BRANCH   5  27
HETATM   27  O6  UNL     1       0.179   0.851  39.836  1.00  0.00    -0.390 OA
ATOM     28  H6  UNL     1       0.843   1.392  39.427  1.00  0.00     0.210 HD
ENDBRANCH   5  27
BRANCH   6  29
HETATM   29  O7  UNL     1       2.331   0.743  42.707  1.00  0.00    -0.389 OA
ATOM     30  H7  UNL     1       1.914  -0.035  43.058  1.00  0.00     0.210 HD
ENDBRANCH   6  29
BRANCH   1  31
HETATM   31  N3  UNL     1       4.285   0.370  40.988  1.00  0.00    -0.336 N 
HETATM   32  C1  UNL     1       5.026   1.457  40.462  1.00  0.00     0.183 C 
HETATM   33  N1  UNL     1       5.958   2.049  41.160  1.00  0.00    -0.374 N 
HETATM   34  N2  UNL     1       4.807   1.965  39.160  1.00  0.00    -0.064 NA
ATOM     35  H12 UNL     1       6.492   2.831  40.780  1.00  0.00     0.158 HD
ATOM     36  H11 UNL     1       6.116   1.682  42.099  1.00  0.00     0.158 HD
ATOM     37  H3  UNL     1       4.702  -0.231  41.699  1.00  0.00     0.164 HD
ENDBRANCH   1  31
TORSDOF 7
ENDMDL
MODEL 4
REMARK VINA RESULT: -7.196663410      3.824      5.223
REMARK  7 active torsions:
REMARK  status: ('A' for Active; 'I' for Inactive)
REMARK       I    between atoms: C1_4  and  N3_6 
REMARK    1  A    between atoms: N3_6  and  C2_8 
REMARK    2  A    between atoms: C4_11  and  N4_12 
REMARK    3  A    between atoms: C4_11  and  C5_16 
REMARK       I    between atoms: C5_16  and  N5_18 
REMARK       I    between atoms: N6_20  and  C6_22 
REMARK       I    between atoms: C6_22  and  N8_27 
REMARK    4  A    between atoms: N7_23  and  O3_25 
REMARK    5  A    between atoms: N8_27  and  N9_29 
REMARK    6  A    between atoms: C7_32  and  O6_33 
REMARK    7  A    between atoms: C8_35  and  O7_36 
ROOT
HETATM    1  C2  UNL     1      -0.249  -0.055  38.614  1.00  0.00     0.254 C 
HETATM    2  O1  UNL     1      -1.073   0.840  39.231  1.00  0.00    -0.361 OA
HETATM    3  C3  UNL     1      -2.324   0.958  38.702  1.00  0.00     0.222 C 
HETATM    4  C4  UNL     1      -3.106  -0.338  38.650  1.00  0.00     0.253 C 
HETATM    5  C7  UNL     1      -2.234  -1.519  38.241  1.00  0.00     0.199 C 
HETATM    6  C8  UNL     1      -0.955  -1.000  37.685  1.00  0.00     0.198 C 
ENDROOT
BRANCH   4   7
HETATM    7  N4  UNL     1      -4.144  -0.213  37.724  1.00  0.00    -0.057 N 
ATOM      8  H43 UNL     1      -4.641   0.673  37.816  1.00  0.00     0.276 HD
ATOM      9  H42 UNL     1      -3.800  -0.087  36.772  1.00  0.00     0.276 HD
ATOM     10  H41 UNL     1      -4.767  -1.016  37.806  1.00  0.00     0.276 HD
ENDBRANCH   4   7
BRANCH   4  11
HETATM   11  C5  UNL     1      -3.658  -0.687  39.984  1.00  0.00     0.277 C 
HETATM   12  O2  UNL     1      -4.469  -1.650  40.022  1.00  0.00    -0.269 OA
HETATM   13  N5  UNL     1      -3.265   0.052  41.117  1.00  0.00    -0.253 N 
HETATM   14  N6  UNL     1      -2.407  -0.260  41.961  1.00  0.00    -0.126 N 
ATOM     15  H5  UNL     1      -3.738   0.944  41.262  1.00  0.00     0.190 HD
HETATM   16  C6  UNL     1      -1.621  -1.424  41.989  1.00  0.00     0.735 C 
ATOM     17  H6  UNL     1      -2.256   0.405  42.719  1.00  0.00     0.206 HD
HETATM   18  N7  UNL     1      -2.073  -2.511  42.508  1.00  0.00    -0.096 N 
HETATM   19  N8  UNL     1      -0.292  -1.481  41.457  1.00  0.00    -0.069 N 
ATOM     20  H7  UNL     1      -1.465  -3.330  42.506  1.00  0.00     0.213 HD
ATOM     21  H8  UNL     1      -0.111  -2.102  40.668  1.00  0.00     0.212 HD
BRANCH  18  22
HETATM   22  O3  UNL     1      -3.318  -2.639  43.063  1.00  0.00    -0.276 OA
ATOM     23  H3  UNL     1      -3.482  -2.711  43.996  1.00  0.00     0.245 HD
ENDBRANCH  18  22
BRANCH  19  24
HETATM   24  N9  UNL     1       0.759  -0.732  41.961  1.00  0.00    -0.024 N 
HETATM   25  O4  UNL     1       1.751  -1.360  42.423  1.00  0.00    -0.516 OA
HETATM   26  O5  UNL     1       0.720   0.646  41.956  1.00  0.00    -0.516 OA
ENDBRANCH  19  24
ENDBRANCH   4  11
BRANCH   5  27
HETATM   27  O6  UNL     1      -1.949  -2.353  39.314  1.00  0.00    -0.390 OA
ATOM     28  H6  UNL     1      -2.721  -2.810  39.625  1.00  0.00     0.210 HD
ENDBRANCH   5  27
BRANCH   6  29
HETATM   29  O7  UNL     1      -1.120  -0.354  36.450  1.00  0.00    -0.389 OA
ATOM     30  H7  UNL     1      -1.829  -0.785  35.985  1.00  0.00     0.210 HD
ENDBRANCH   6  29
BRANCH   1  31
HETATM   31  N3  UNL     1       0.835   0.602  37.922  1.00  0.00    -0.336 N 
HETATM   32  C1  UNL     1       2.127   0.021  37.900  1.00  0.00     0.183 C 
HETATM   33  N1  UNL     1       2.960   0.246  36.918  1.00  0.00    -0.374 N 
HETATM   34  N2  UNL     1       2.594  -0.832  38.927  1.00  0.00    -0.064 NA
ATOM     35  H12 UNL     1       3.890  -0.173  36.902  1.00  0.00     0.158 HD
ATOM     36  H11 UNL     1       2.623   0.861  36.177  1.00  0.00     0.158 HD
ATOM     37  H3  UNL     1       0.670   1.489  37.447  1.00  0.00     0.164 HD
ENDBRANCH   1  31
TORSDOF 7
ENDMDL
MODEL 5
REMARK VINA RESULT: -7.181145938      1.802      3.467
REMARK  7 active torsions:
REMARK  status: ('A' for Active; 'I' for Inactive)
REMARK       I    between atoms: C1_4  and  N3_6 
REMARK    1  A    between atoms: N3_6  and  C2_8 
REMARK    2  A    between atoms: C4_11  and  N4_12 
REMARK    3  A    between atoms: C4_11  and  C5_16 
REMARK       I    between atoms: C5_16  and  N5_18 
REMARK       I    between atoms: N6_20  and  C6_22 
REMARK       I    between atoms: C6_22  and  N8_27 
REMARK    4  A    between atoms: N7_23  and  O3_25 
REMARK    5  A    between atoms: N8_27  and  N9_29 
REMARK    6  A    between atoms: C7_32  and  O6_33 
REMARK    7  A    between atoms: C8_35  and  O7_36 
ROOT
HETATM    1  C2  UNL     1       4.683   0.911  37.286  1.00  0.00     0.254 C 
HETATM    2  O1  UNL     1       4.305   1.901  38.144  1.00  0.00    -0.361 OA
HETATM    3  C3  UNL     1       2.973   1.967  38.426  1.00  0.00     0.222 C 
HETATM    4  C4  UNL     1       2.391   0.692  39.001  1.00  0.00     0.253 C 
HETATM    5  C7  UNL     1       2.947  -0.552  38.319  1.00  0.00     0.199 C 
HETATM    6  C8  UNL     1       3.637  -0.144  37.066  1.00  0.00     0.198 C 
ENDROOT
BRANCH   4   7
HETATM    7  N4  UNL     1       1.004   0.704  38.838  1.00  0.00    -0.057 N 
ATOM      8  H43 UNL     1       0.528   0.123  39.529  1.00  0.00     0.276 HD
ATOM      9  H42 UNL     1       0.592   1.600  39.095  1.00  0.00     0.276 HD
ATOM     10  H41 UNL     1       0.776   0.433  37.882  1.00  0.00     0.276 HD
ENDBRANCH   4   7
BRANCH   4  11
HETATM   11  C5  UNL     1       2.730   0.549  40.441  1.00  0.00     0.277 C 
HETATM   12  O2  UNL     1       3.141   1.585  41.027  1.00  0.00    -0.269 OA
HETATM   13  N5  UNL     1       2.581  -0.702  41.072  1.00  0.00    -0.253 N 
HETATM   14  N6  UNL     1       1.635  -1.080  41.785  1.00  0.00    -0.126 N 
ATOM     15  H5  UNL     1       3.335  -1.373  40.928  1.00  0.00     0.190 HD
HETATM   16  C6  UNL     1       0.485  -0.352  42.134  1.00  0.00     0.735 C 
ATOM     17  H6  UNL     1       1.701  -2.026  42.159  1.00  0.00     0.206 HD
HETATM   18  N7  UNL     1       0.499   0.462  43.129  1.00  0.00    -0.096 N 
HETATM   19  N8  UNL     1      -0.754  -0.465  41.424  1.00  0.00    -0.069 N 
ATOM     20  H7  UNL     1      -0.361   0.968  43.345  1.00  0.00     0.213 HD
ATOM     21  H8  UNL     1      -1.114   0.359  40.941  1.00  0.00     0.212 HD
BRANCH  18  22
HETATM   22  O3  UNL     1       1.593   0.695  43.918  1.00  0.00    -0.276 OA
ATOM     23  H3  UNL     1       1.860   1.555  44.221  1.00  0.00     0.245 HD
ENDBRANCH  18  22
BRANCH  19  24
HETATM   24  N9  UNL     1      -1.489  -1.638  41.362  1.00  0.00    -0.024 N 
HETATM   25  O4  UNL     1      -1.778  -2.201  42.453  1.00  0.00    -0.516 OA
HETATM   26  O5  UNL     1      -1.886  -2.167  40.153  1.00  0.00    -0.516 OA
ENDBRANCH  19  24
ENDBRANCH   4  11
BRANCH   5  27
HETATM   27  O6  UNL     1       3.852  -1.229  39.127  1.00  0.00    -0.390 OA
ATOM     28  H6  UNL     1       3.449  -1.965  39.574  1.00  0.00     0.210 HD
ENDBRANCH   5  27
BRANCH   6  29
HETATM   29  O7  UNL     1       2.750   0.322  36.083  1.00  0.00    -0.389 OA
ATOM     30  H7  UNL     1       1.934  -0.156  36.172  1.00  0.00     0.210 HD
ENDBRANCH   6  29
BRANCH   1  31
HETATM   31  N3  UNL     1       5.128   1.440  36.018  1.00  0.00    -0.336 N 
HETATM   32  C1  UNL     1       5.766   0.598  35.074  1.00  0.00     0.183 C 
HETATM   33  N1  UNL     1       5.707   0.844  33.792  1.00  0.00    -0.374 N 
HETATM   34  N2  UNL     1       6.500  -0.550  35.454  1.00  0.00    -0.064 NA
ATOM     35  H12 UNL     1       6.167   0.237  33.112  1.00  0.00     0.158 HD
ATOM     36  H11 UNL     1       5.178   1.671  33.518  1.00  0.00     0.158 HD
ATOM     37  H3  UNL     1       4.981   2.426  35.800  1.00  0.00     0.164 HD
ENDBRANCH   1  31
TORSDOF 7
ENDMDL
