MODEL 1
REMARK VINA RESULT: -8.411161516      0.000      0.000
REMARK  9 active torsions:
REMARK  status: ('A' for Active; 'I' for Inactive)
REMARK    1  A    between atoms: N1_1  and  C1_4 
REMARK    2  A    between atoms: N4_13  and  C5_14 
REMARK    3  A    between atoms: C6_18  and  C7_19 
REMARK    4  A    between atoms: C6_18  and  O3_22 
REMARK    5  A    between atoms: C7_19  and  O2_20 
REMARK    6  A    between atoms: O3_22  and  C8_23 
REMARK    7  A    between atoms: C9_26  and  O5_27 
REMARK    8  A    between atoms: C9_26  and  C10_29 
REMARK    9  A    between atoms: C10_29  and  O6_30 
ROOT
HETATM    1  C5  UNL     1       4.799   1.175  38.813  1.00  0.00     0.458 C 
HETATM    2  N5  UNL     1       4.687   2.381  38.011  1.00  0.00     0.012 N 
ATOM      3  H51 UNL     1       5.483   3.019  38.018  1.00  0.00     0.286 HD
ATOM      4  H52 UNL     1       4.037   3.096  38.337  1.00  0.00     0.286 HD
HETATM    5  C6  UNL     1       4.363   1.706  36.706  1.00  0.00     0.318 C 
HETATM    6  C9  UNL     1       3.243   0.858  37.230  1.00  0.00     0.249 C 
HETATM    7  O7  UNL     1       3.781   0.341  38.435  1.00  0.00    -0.298 OA
ENDROOT
BRANCH   1   8
HETATM    8  N4  UNL     1       4.815   1.470  40.229  1.00  0.00    -0.221 N 
HETATM    9  N3  UNL     1       5.792   1.967  40.954  1.00  0.00    -0.303 N 
HETATM   10  C4  UNL     1       5.423   2.094  42.225  1.00  0.00     0.128 A 
ATOM     11  H3  UNL     1       6.711   2.220  40.591  1.00  0.00     0.186 HD
HETATM   12  C3  UNL     1       4.115   1.648  42.322  1.00  0.00     0.095 A 
HETATM   13  C2  UNL     1       3.226   1.544  43.372  1.00  0.00     0.275 A 
HETATM   14  C11 UNL     1       3.764   1.259  41.033  1.00  0.00     0.159 A 
HETATM   15  N2  UNL     1       2.008   1.054  43.102  1.00  0.00    -0.155 N 
HETATM   16  O1  UNL     1       3.581   1.905  44.519  1.00  0.00    -0.267 OA
HETATM   17  C1  UNL     1       1.688   0.684  41.846  1.00  0.00     0.680 A 
ATOM     18  H2  UNL     1       1.321   0.962  43.850  1.00  0.00     0.187 HD
HETATM   19  N7  UNL     1       2.539   0.776  40.811  1.00  0.00    -0.174 N 
ATOM     20  H7  UNL     1       2.256   0.483  39.876  1.00  0.00     0.186 HD
BRANCH  17  21
HETATM   21  N1  UNL     1       0.506   0.206  41.568  1.00  0.00    -0.234 N 
ATOM     22  H12 UNL     1      -0.025   0.717  40.864  1.00  0.00     0.174 HD
ATOM     23  H11 UNL     1       0.154  -0.629  42.036  1.00  0.00     0.174 HD
ENDBRANCH  17  21
ENDBRANCH   1   8
BRANCH   5  24
HETATM   24  C7  UNL     1       4.000   2.801  35.795  1.00  0.00     0.239 C 
BRANCH  24  25
HETATM   25  O2  UNL     1       3.516   2.468  34.553  1.00  0.00    -0.396 OA
ATOM     26  H2  UNL     1       2.579   2.345  34.461  1.00  0.00     0.209 HD
ENDBRANCH  24  25
ENDBRANCH   5  24
BRANCH   5  27
HETATM   27  O3  UNL     1       5.469   0.948  36.472  1.00  0.00    -0.259 OA
BRANCH  27  28
HETATM   28  C8  UNL     1       5.856   0.159  35.441  1.00  0.00     0.375 C 
HETATM   29  N6  UNL     1       6.008   0.686  34.118  1.00  0.00    -0.032 NA
HETATM   30  O4  UNL     1       6.070  -1.031  35.709  1.00  0.00    -0.242 OA
ENDBRANCH  27  28
ENDBRANCH   5  27
BRANCH   6  31
HETATM   31  O5  UNL     1       2.957  -0.239  36.432  1.00  0.00    -0.360 OA
ATOM     32  H5  UNL     1       3.731  -0.695  36.122  1.00  0.00     0.213 HD
ENDBRANCH   6  31
BRANCH   6  33
HETATM   33  C10 UNL     1       2.007   1.608  37.635  1.00  0.00     0.238 C 
BRANCH  33  34
HETATM   34  O6  UNL     1       1.103   0.824  38.316  1.00  0.00    -0.395 OA
ATOM     35  H6  UNL     1       0.655   1.295  39.010  1.00  0.00     0.209 HD
ENDBRANCH  33  34
ENDBRANCH   6  33
TORSDOF 9
ENDMDL
MODEL 2
REMARK VINA RESULT: -7.785414831      2.977      5.519
REMARK  9 active torsions:
REMARK  status: ('A' for Active; 'I' for Inactive)
REMARK    1  A    between atoms: N1_1  and  C1_4 
REMARK    2  A    between atoms: N4_13  and  C5_14 
REMARK    3  A    between atoms: C6_18  and  C7_19 
REMARK    4  A    between atoms: C6_18  and  O3_22 
REMARK    5  A    between atoms: C7_19  and  O2_20 
REMARK    6  A    between atoms: O3_22  and  C8_23 
REMARK    7  A    between atoms: C9_26  and  O5_27 
REMARK    8  A    between atoms: C9_26  and  C10_29 
REMARK    9  A    between atoms: C10_29  and  O6_30 
ROOT
HETATM    1  C5  UNL     1       0.516   0.228  39.953  1.00  0.00     0.458 C 
HETATM    2  N5  UNL     1       0.032  -1.109  40.249  1.00  0.00     0.012 N 
ATOM      3  H51 UNL     1      -0.509  -1.228  41.106  1.00  0.00     0.286 HD
ATOM      4  H52 UNL     1       0.726  -1.805  40.521  1.00  0.00     0.286 HD
HETATM    5  C6  UNL     1      -0.691  -1.336  38.948  1.00  0.00     0.318 C 
HETATM    6  C9  UNL     1       0.455  -0.963  38.055  1.00  0.00     0.249 C 
HETATM    7  O7  UNL     1       0.942   0.226  38.652  1.00  0.00    -0.298 OA
ENDROOT
BRANCH   1   8
HETATM    8  N4  UNL     1       1.528   0.654  40.896  1.00  0.00    -0.221 N 
HETATM    9  N3  UNL     1       1.459   0.709  42.207  1.00  0.00    -0.303 N 
HETATM   10  C4  UNL     1       2.599   1.156  42.725  1.00  0.00     0.128 A 
ATOM     11  H3  UNL     1       0.640   0.444  42.754  1.00  0.00     0.186 HD
HETATM   12  C3  UNL     1       3.461   1.406  41.670  1.00  0.00     0.095 A 
HETATM   13  C2  UNL     1       4.756   1.875  41.598  1.00  0.00     0.275 A 
HETATM   14  C11 UNL     1       2.744   1.075  40.524  1.00  0.00     0.159 A 
HETATM   15  N2  UNL     1       5.300   1.999  40.379  1.00  0.00    -0.155 N 
HETATM   16  O1  UNL     1       5.369   2.162  42.654  1.00  0.00    -0.267 OA
HETATM   17  C1  UNL     1       4.589   1.673  39.281  1.00  0.00     0.680 A 
ATOM     18  H2  UNL     1       6.256   2.342  40.282  1.00  0.00     0.187 HD
HETATM   19  N7  UNL     1       3.326   1.215  39.331  1.00  0.00    -0.174 N 
ATOM     20  H7  UNL     1       2.824   0.981  38.475  1.00  0.00     0.186 HD
BRANCH  17  21
HETATM   21  N1  UNL     1       5.104   1.788  38.089  1.00  0.00    -0.234 N 
ATOM     22  H12 UNL     1       5.190   2.740  37.732  1.00  0.00     0.174 HD
ATOM     23  H11 UNL     1       5.397   0.966  37.562  1.00  0.00     0.174 HD
ENDBRANCH  17  21
ENDBRANCH   1   8
BRANCH   5  24
HETATM   24  C7  UNL     1      -1.081  -2.752  38.976  1.00  0.00     0.239 C 
BRANCH  24  25
HETATM   25  O2  UNL     1      -1.235  -3.398  37.773  1.00  0.00    -0.396 OA
ATOM     26  H2  UNL     1      -0.554  -4.005  37.505  1.00  0.00     0.209 HD
ENDBRANCH  24  25
ENDBRANCH   5  24
BRANCH   5  27
HETATM   27  O3  UNL     1      -1.635  -0.357  38.950  1.00  0.00    -0.259 OA
BRANCH  27  28
HETATM   28  C8  UNL     1      -2.885  -0.268  38.435  1.00  0.00     0.375 C 
HETATM   29  N6  UNL     1      -3.121  -0.400  37.028  1.00  0.00    -0.032 NA
HETATM   30  O4  UNL     1      -3.801  -0.068  39.245  1.00  0.00    -0.242 OA
ENDBRANCH  27  28
ENDBRANCH   5  27
BRANCH   6  31
HETATM   31  O5  UNL     1       0.065  -0.620  36.769  1.00  0.00    -0.360 OA
ATOM     32  H5  UNL     1      -0.202   0.288  36.683  1.00  0.00     0.213 HD
ENDBRANCH   6  31
BRANCH   6  33
HETATM   33  C10 UNL     1       1.612  -1.918  38.065  1.00  0.00     0.238 C 
BRANCH  33  34
HETATM   34  O6  UNL     1       2.807  -1.316  37.738  1.00  0.00    -0.395 OA
ATOM     35  H6  UNL     1       3.381  -1.883  37.235  1.00  0.00     0.209 HD
ENDBRANCH  33  34
ENDBRANCH   6  33
TORSDOF 9
ENDMDL
MODEL 3
REMARK VINA RESULT: -7.627936850      3.057      5.162
REMARK  9 active torsions:
REMARK  status: ('A' for Active; 'I' for Inactive)
REMARK    1  A    between atoms: N1_1  and  C1_4 
REMARK    2  A    between atoms: N4_13  and  C5_14 
REMARK    3  A    between atoms: C6_18  and  C7_19 
REMARK    4  A    between atoms: C6_18  and  O3_22 
REMARK    5  A    between atoms: C7_19  and  O2_20 
REMARK    6  A    between atoms: O3_22  and  C8_23 
REMARK    7  A    between atoms: C9_26  and  O5_27 
REMARK    8  A    between atoms: C9_26  and  C10_29 
REMARK    9  A    between atoms: C10_29  and  O6_30 
ROOT
HETATM    1  C5  UNL     1       3.369  -0.308  37.967  1.00  0.00     0.458 C 
HETATM    2  N5  UNL     1       2.866   1.047  37.818  1.00  0.00     0.012 N 
ATOM      3  H51 UNL     1       2.273   1.407  38.566  1.00  0.00     0.286 HD
ATOM      4  H52 UNL     1       2.158   1.203  37.101  1.00  0.00     0.286 HD
HETATM    5  C6  UNL     1       4.198   1.718  37.620  1.00  0.00     0.318 C 
HETATM    6  C9  UNL     1       4.684   0.806  36.533  1.00  0.00     0.249 C 
HETATM    7  O7  UNL     1       4.357  -0.478  37.033  1.00  0.00    -0.298 OA
ENDROOT
BRANCH   1   8
HETATM    8  N4  UNL     1       2.309  -1.287  37.878  1.00  0.00    -0.221 N 
HETATM    9  N3  UNL     1       2.401  -2.598  37.835  1.00  0.00    -0.303 N 
HETATM   10  C4  UNL     1       1.198  -3.157  37.753  1.00  0.00     0.128 A 
ATOM     11  H3  UNL     1       3.279  -3.116  37.860  1.00  0.00     0.186 HD
HETATM   12  C3  UNL     1       0.267  -2.132  37.743  1.00  0.00     0.095 A 
HETATM   13  C2  UNL     1      -1.111  -2.107  37.673  1.00  0.00     0.275 A 
HETATM   14  C11 UNL     1       1.011  -0.959  37.824  1.00  0.00     0.159 A 
HETATM   15  N2  UNL     1      -1.707  -0.906  37.687  1.00  0.00    -0.155 N 
HETATM   16  O1  UNL     1      -1.746  -3.185  37.602  1.00  0.00    -0.267 OA
HETATM   17  C1  UNL     1      -0.967   0.219  37.765  1.00  0.00     0.680 A 
ATOM     18  H2  UNL     1      -2.724  -0.842  37.637  1.00  0.00     0.187 HD
HETATM   19  N7  UNL     1       0.374   0.215  37.833  1.00  0.00    -0.174 N 
ATOM     20  H7  UNL     1       0.895   1.089  37.891  1.00  0.00     0.186 HD
BRANCH  17  21
HETATM   21  N1  UNL     1      -1.533   1.394  37.779  1.00  0.00    -0.234 N 
ATOM     22  H12 UNL     1      -2.540   1.400  37.936  1.00  0.00     0.174 HD
ATOM     23  H11 UNL     1      -0.984   2.243  37.641  1.00  0.00     0.174 HD
ENDBRANCH  17  21
ENDBRANCH   1   8
BRANCH   5  24
HETATM   24  C7  UNL     1       3.872   3.099  37.236  1.00  0.00     0.239 C 
BRANCH  24  25
HETATM   25  O2  UNL     1       2.562   3.388  36.937  1.00  0.00    -0.396 OA
ATOM     26  H2  UNL     1       2.248   3.174  36.066  1.00  0.00     0.209 HD
ENDBRANCH  24  25
ENDBRANCH   5  24
BRANCH   5  27
HETATM   27  O3  UNL     1       4.847   1.459  38.788  1.00  0.00    -0.259 OA
BRANCH  27  28
HETATM   28  C8  UNL     1       4.653   1.856  40.069  1.00  0.00     0.375 C 
HETATM   29  N6  UNL     1       5.755   2.225  40.907  1.00  0.00    -0.032 NA
HETATM   30  O4  UNL     1       3.480   1.882  40.466  1.00  0.00    -0.242 OA
ENDBRANCH  27  28
ENDBRANCH   5  27
BRANCH   6  31
HETATM   31  O5  UNL     1       6.062   0.820  36.373  1.00  0.00    -0.360 OA
ATOM     32  H5  UNL     1       6.363   1.459  35.738  1.00  0.00     0.213 HD
ENDBRANCH   6  31
BRANCH   6  33
HETATM   33  C10 UNL     1       3.956   0.924  35.226  1.00  0.00     0.238 C 
BRANCH  33  34
HETATM   34  O6  UNL     1       4.655   0.378  34.172  1.00  0.00    -0.395 OA
ATOM     35  H6  UNL     1       4.452  -0.540  34.030  1.00  0.00     0.209 HD
ENDBRANCH  33  34
ENDBRANCH   6  33
TORSDOF 9
ENDMDL
MODEL 4
REMARK VINA RESULT: -7.602955406      3.365      5.840
REMARK  9 active torsions:
REMARK  status: ('A' for Active; 'I' for Inactive)
REMARK    1  A    between atoms: N1_1  and  C1_4 
REMARK    2  A    between atoms: N4_13  and  C5_14 
REMARK    3  A    between atoms: C6_18  and  C7_19 
REMARK    4  A    between atoms: C6_18  and  O3_22 
REMARK    5  A    between atoms: C7_19  and  O2_20 
REMARK    6  A    between atoms: O3_22  and  C8_23 
REMARK    7  A    between atoms: C9_26  and  O5_27 
REMARK    8  A    between atoms: C9_26  and  C10_29 
REMARK    9  A    between atoms: C10_29  and  O6_30 
ROOT
HETATM    1  C5  UNL     1       0.945   0.231  38.931  1.00  0.00     0.458 C 
HETATM    2  N5  UNL     1       1.656   1.358  38.351  1.00  0.00     0.012 N 
ATOM      3  H51 UNL     1       1.290   2.289  38.551  1.00  0.00     0.286 HD
ATOM      4  H52 UNL     1       1.584   1.481  37.341  1.00  0.00     0.286 HD
HETATM    5  C6  UNL     1       3.015   1.024  38.904  1.00  0.00     0.318 C 
HETATM    6  C9  UNL     1       3.039  -0.401  38.438  1.00  0.00     0.249 C 
HETATM    7  O7  UNL     1       1.750  -0.869  38.795  1.00  0.00    -0.298 OA
ENDROOT
BRANCH   1   8
HETATM    8  N4  UNL     1      -0.368   0.066  38.348  1.00  0.00    -0.221 N 
HETATM    9  N3  UNL     1      -0.708   0.041  37.079  1.00  0.00    -0.303 N 
HETATM   10  C4  UNL     1      -2.019  -0.130  36.940  1.00  0.00     0.128 A 
ATOM     11  H3  UNL     1      -0.052   0.139  36.304  1.00  0.00     0.186 HD
HETATM   12  C3  UNL     1      -2.560  -0.221  38.212  1.00  0.00     0.095 A 
HETATM   13  C2  UNL     1      -3.845  -0.397  38.683  1.00  0.00     0.275 A 
HETATM   14  C11 UNL     1      -1.480  -0.092  39.080  1.00  0.00     0.159 A 
HETATM   15  N2  UNL     1      -4.013  -0.439  40.013  1.00  0.00    -0.155 N 
HETATM   16  O1  UNL     1      -4.791  -0.510  37.869  1.00  0.00    -0.267 OA
HETATM   17  C1  UNL     1      -2.953  -0.312  40.837  1.00  0.00     0.680 A 
ATOM     18  H2  UNL     1      -4.947  -0.568  40.402  1.00  0.00     0.187 HD
HETATM   19  N7  UNL     1      -1.695  -0.140  40.397  1.00  0.00    -0.174 N 
ATOM     20  H7  UNL     1      -0.922  -0.047  41.055  1.00  0.00     0.186 HD
BRANCH  17  21
HETATM   21  N1  UNL     1      -3.102  -0.352  42.132  1.00  0.00    -0.234 N 
ATOM     22  H12 UNL     1      -3.547  -1.191  42.502  1.00  0.00     0.174 HD
ATOM     23  H11 UNL     1      -2.784   0.418  42.720  1.00  0.00     0.174 HD
ENDBRANCH  17  21
ENDBRANCH   1   8
BRANCH   5  24
HETATM   24  C7  UNL     1       3.932   1.959  38.239  1.00  0.00     0.239 C 
BRANCH  24  25
HETATM   25  O2  UNL     1       5.271   1.647  38.231  1.00  0.00    -0.396 OA
ATOM     26  H2  UNL     1       5.659   1.381  37.406  1.00  0.00     0.209 HD
ENDBRANCH  24  25
ENDBRANCH   5  24
BRANCH   5  27
HETATM   27  O3  UNL     1       2.819   1.084  40.249  1.00  0.00    -0.259 OA
BRANCH  27  28
HETATM   28  C8  UNL     1       3.648   1.277  41.303  1.00  0.00     0.375 C 
HETATM   29  N6  UNL     1       4.989   0.772  41.297  1.00  0.00    -0.032 NA
HETATM   30  O4  UNL     1       3.183   1.910  42.261  1.00  0.00    -0.242 OA
ENDBRANCH  27  28
ENDBRANCH   5  27
BRANCH   6  31
HETATM   31  O5  UNL     1       3.944  -1.194  39.126  1.00  0.00    -0.360 OA
ATOM     32  H5  UNL     1       4.559  -1.646  38.561  1.00  0.00     0.213 HD
ENDBRANCH   6  31
BRANCH   6  33
HETATM   33  C10 UNL     1       3.132  -0.586  36.951  1.00  0.00     0.238 C 
BRANCH  33  34
HETATM   34  O6  UNL     1       4.412  -0.864  36.525  1.00  0.00    -0.395 OA
ATOM     35  H6  UNL     1       4.681  -0.327  35.788  1.00  0.00     0.209 HD
ENDBRANCH  33  34
ENDBRANCH   6  33
TORSDOF 9
ENDMDL
MODEL 5
REMARK VINA RESULT: -7.529190970      3.215      5.572
REMARK  9 active torsions:
REMARK  status: ('A' for Active; 'I' for Inactive)
REMARK    1  A    between atoms: N1_1  and  C1_4 
REMARK    2  A    between atoms: N4_13  and  C5_14 
REMARK    3  A    between atoms: C6_18  and  C7_19 
REMARK    4  A    between atoms: C6_18  and  O3_22 
REMARK    5  A    between atoms: C7_19  and  O2_20 
REMARK    6  A    between atoms: O3_22  and  C8_23 
REMARK    7  A    between atoms: C9_26  and  O5_27 
REMARK    8  A    between atoms: C9_26  and  C10_29 
REMARK    9  A    between atoms: C10_29  and  O6_30 
ROOT
HETATM    1  C5  UNL     1       1.530   1.021  38.774  1.00  0.00     0.458 C 
HETATM    2  N5  UNL     1       2.348   1.952  38.015  1.00  0.00     0.012 N 
ATOM      3  H51 UNL     1       2.159   2.946  38.142  1.00  0.00     0.286 HD
ATOM      4  H52 UNL     1       2.194   1.991  37.008  1.00  0.00     0.286 HD
HETATM    5  C6  UNL     1       3.686   1.445  38.482  1.00  0.00     0.318 C 
HETATM    6  C9  UNL     1       3.433  -0.000  38.174  1.00  0.00     0.249 C 
HETATM    7  O7  UNL     1       2.130  -0.207  38.691  1.00  0.00    -0.298 OA
ENDROOT
BRANCH   1   8
HETATM    8  N4  UNL     1       0.154   1.028  38.328  1.00  0.00    -0.221 N 
HETATM    9  N3  UNL     1      -0.570   2.042  37.910  1.00  0.00    -0.303 N 
HETATM   10  C4  UNL     1      -1.798   1.649  37.585  1.00  0.00     0.128 A 
ATOM     11  H3  UNL     1      -0.235   3.003  37.844  1.00  0.00     0.186 HD
HETATM   12  C3  UNL     1      -1.866   0.284  37.811  1.00  0.00     0.095 A 
HETATM   13  C2  UNL     1      -2.869  -0.651  37.658  1.00  0.00     0.275 A 
HETATM   14  C11 UNL     1      -0.607  -0.074  38.283  1.00  0.00     0.159 A 
HETATM   15  N2  UNL     1      -2.583  -1.920  37.981  1.00  0.00    -0.155 N 
HETATM   16  O1  UNL     1      -3.991  -0.289  37.229  1.00  0.00    -0.267 OA
HETATM   17  C1  UNL     1      -1.357  -2.246  38.436  1.00  0.00     0.680 A 
ATOM     18  H2  UNL     1      -3.296  -2.643  37.882  1.00  0.00     0.187 HD
HETATM   19  N7  UNL     1      -0.367  -1.350  38.593  1.00  0.00    -0.174 N 
ATOM     20  H7  UNL     1       0.546  -1.640  38.941  1.00  0.00     0.186 HD
BRANCH  17  21
HETATM   21  N1  UNL     1      -1.064  -3.477  38.754  1.00  0.00    -0.234 N 
ATOM     22  H12 UNL     1      -0.423  -3.591  39.539  1.00  0.00     0.174 HD
ATOM     23  H11 UNL     1      -1.462  -4.261  38.239  1.00  0.00     0.174 HD
ENDBRANCH  17  21
ENDBRANCH   1   8
BRANCH   5  24
HETATM   24  C7  UNL     1       4.668   2.144  37.642  1.00  0.00     0.239 C 
BRANCH  24  25
HETATM   25  O2  UNL     1       5.878   1.531  37.425  1.00  0.00    -0.396 OA
ATOM     26  H2  UNL     1       6.046   1.174  36.560  1.00  0.00     0.209 HD
ENDBRANCH  24  25
ENDBRANCH   5  24
BRANCH   5  27
HETATM   27  O3  UNL     1       3.642   1.664  39.825  1.00  0.00    -0.259 OA
BRANCH  27  28
HETATM   28  C8  UNL     1       4.594   1.757  40.784  1.00  0.00     0.375 C 
HETATM   29  N6  UNL     1       5.385   0.624  41.160  1.00  0.00    -0.032 NA
HETATM   30  O4  UNL     1       4.737   2.869  41.311  1.00  0.00    -0.242 OA
ENDBRANCH  27  28
ENDBRANCH   5  27
BRANCH   6  31
HETATM   31  O5  UNL     1       4.266  -0.868  38.865  1.00  0.00    -0.360 OA
ATOM     32  H5  UNL     1       3.962  -1.768  38.864  1.00  0.00     0.213 HD
ENDBRANCH   6  31
BRANCH   6  33
HETATM   33  C10 UNL     1       3.342  -0.337  36.714  1.00  0.00     0.238 C 
BRANCH  33  34
HETATM   34  O6  UNL     1       4.511  -0.867  36.213  1.00  0.00    -0.395 OA
ATOM     35  H6  UNL     1       4.681  -0.603  35.316  1.00  0.00     0.209 HD
ENDBRANCH  33  34
ENDBRANCH   6  33
TORSDOF 9
ENDMDL
