MODEL 1
REMARK VINA RESULT: -8.123301460      0.000      0.000
REMARK  10 active torsions:
REMARK  status: ('A' for Active; 'I' for Inactive)
REMARK    1  A    between atoms: C2_2  and  N2_6 
REMARK    2  A    between atoms: N2_6  and  N3_8 
REMARK    3  A    between atoms: N3_8  and  C3_10 
REMARK    4  A    between atoms: C4_13  and  O1_14 
REMARK    5  A    between atoms: O1_14  and  C5_15 
REMARK    6  A    between atoms: C6_17  and  C7_18 
REMARK    7  A    between atoms: C7_18  and  O3_19 
REMARK    8  A    between atoms: C7_18  and  O4_21 
REMARK    9  A    between atoms: C8_26  and  O5_27 
REMARK   10  A    between atoms: C9_29  and  N6_30 
ROOT
HETATM    1  C5  UNL     1       2.120   0.507  38.918  1.00  0.00     0.345 C 
HETATM    2  O2  UNL     1       2.523   1.723  38.381  1.00  0.00    -0.317 OA
HETATM    3  C6  UNL     1       3.684   1.661  37.662  1.00  0.00     0.382 C 
HETATM    4  N5  UNL     1       4.870   1.457  38.434  1.00  0.00    -0.015 N 
ATOM      5  H51 UNL     1       5.635   2.024  38.068  1.00  0.00     0.283 HD
ATOM      6  H52 UNL     1       5.248   0.525  38.266  1.00  0.00     0.283 HD
HETATM    7  C8  UNL     1       4.706   1.685  39.841  1.00  0.00     0.360 C 
HETATM    8  C9  UNL     1       4.276   0.335  40.433  1.00  0.00     0.313 C 
HETATM    9  C10 UNL     1       3.306  -0.246  39.465  1.00  0.00     0.216 C 
HETATM   10  O6  UNL     1       3.428  -1.368  39.065  1.00  0.00    -0.290 OA
ENDROOT
BRANCH   1  11
HETATM   11  O1  UNL     1       1.402  -0.288  38.036  1.00  0.00    -0.281 OA
BRANCH  11  12
HETATM   12  C4  UNL     1       0.112   0.072  37.679  1.00  0.00     0.256 A 
HETATM   13  N4  UNL     1      -0.605   1.117  38.169  1.00  0.00    -0.151 N 
HETATM   14  C3  UNL     1      -1.814   1.161  37.593  1.00  0.00     0.714 A 
ATOM     15  H4  UNL     1      -0.270   1.775  38.873  1.00  0.00     0.188 HD
HETATM   16  N8  UNL     1      -1.842   0.126  36.736  1.00  0.00    -0.128 N 
HETATM   17  N7  UNL     1      -0.697  -0.533  36.777  1.00  0.00    -0.250 N 
ATOM     18  H8  UNL     1      -2.633  -0.116  36.139  1.00  0.00     0.205 HD
ATOM     19  H7  UNL     1      -0.463  -1.358  36.223  1.00  0.00     0.191 HD
BRANCH  14  20
HETATM   20  N3  UNL     1      -2.773   2.022  37.813  1.00  0.00    -0.129 N 
ATOM     21  H3  UNL     1      -2.834   2.880  37.265  1.00  0.00     0.205 HD
BRANCH  20  22
HETATM   22  N2  UNL     1      -3.711   1.748  38.811  1.00  0.00    -0.276 N 
ATOM     23  H2  UNL     1      -3.724   0.813  39.219  1.00  0.00     0.189 HD
BRANCH  22  24
HETATM   24  C2  UNL     1      -4.646   2.702  39.287  1.00  0.00     0.086 C 
HETATM   25  C1  UNL     1      -5.070   2.669  40.690  1.00  0.00     0.090 C 
HETATM   26  N1  UNL     1      -5.122   3.597  38.489  1.00  0.00    -0.388 N 
ATOM     27  H12 UNL     1      -5.795   4.283  38.831  1.00  0.00     0.157 HD
ATOM     28  H11 UNL     1      -4.827   3.620  37.512  1.00  0.00     0.157 HD
ENDBRANCH  22  24
ENDBRANCH  20  22
ENDBRANCH  14  20
ENDBRANCH  11  12
ENDBRANCH   1  11
BRANCH   3  29
HETATM   29  C7  UNL     1       3.844   3.001  36.939  1.00  0.00     0.310 C 
BRANCH  29  30
HETATM   30  O3  UNL     1       4.669   2.898  35.840  1.00  0.00    -0.367 OA
ATOM     31  H3  UNL     1       4.343   3.402  35.103  1.00  0.00     0.212 HD
ENDBRANCH  29  30
BRANCH  29  32
HETATM   32  O4  UNL     1       2.564   3.480  36.598  1.00  0.00    -0.367 OA
ATOM     33  H4  UNL     1       2.283   4.093  37.267  1.00  0.00     0.212 HD
ENDBRANCH  29  32
ENDBRANCH   3  29
BRANCH   8  34
HETATM   34  N6  UNL     1       3.688   0.511  41.744  1.00  0.00    -0.064 N 
ATOM     35  H63 UNL     1       3.871  -0.288  42.350  1.00  0.00     0.275 HD
ATOM     36  H62 UNL     1       4.176   1.227  42.283  1.00  0.00     0.275 HD
ATOM     37  H61 UNL     1       2.690   0.708  41.670  1.00  0.00     0.275 HD
ENDBRANCH   8  34
BRANCH   7  38
HETATM   38  O5  UNL     1       5.853   2.098  40.476  1.00  0.00    -0.368 OA
ATOM     39  H5  UNL     1       5.698   2.672  41.216  1.00  0.00     0.212 HD
ENDBRANCH   7  38
TORSDOF 10
ENDMDL
MODEL 2
REMARK VINA RESULT: -8.053879726      1.087      1.269
REMARK  10 active torsions:
REMARK  status: ('A' for Active; 'I' for Inactive)
REMARK    1  A    between atoms: C2_2  and  N2_6 
REMARK    2  A    between atoms: N2_6  and  N3_8 
REMARK    3  A    between atoms: N3_8  and  C3_10 
REMARK    4  A    between atoms: C4_13  and  O1_14 
REMARK    5  A    between atoms: O1_14  and  C5_15 
REMARK    6  A    between atoms: C6_17  and  C7_18 
REMARK    7  A    between atoms: C7_18  and  O3_19 
REMARK    8  A    between atoms: C7_18  and  O4_21 
REMARK    9  A    between atoms: C8_26  and  O5_27 
REMARK   10  A    between atoms: C9_29  and  N6_30 
ROOT
HETATM    1  C5  UNL     1       2.187   0.280  38.600  1.00  0.00     0.345 C 
HETATM    2  O2  UNL     1       2.540   1.531  38.113  1.00  0.00    -0.317 OA
HETATM    3  C6  UNL     1       3.786   1.583  37.551  1.00  0.00     0.382 C 
HETATM    4  N5  UNL     1       4.875   1.486  38.472  1.00  0.00    -0.015 N 
ATOM      5  H51 UNL     1       5.625   2.125  38.206  1.00  0.00     0.283 HD
ATOM      6  H52 UNL     1       5.357   0.595  38.361  1.00  0.00     0.283 HD
HETATM    7  C8  UNL     1       4.509   1.689  39.845  1.00  0.00     0.360 C 
HETATM    8  C9  UNL     1       4.134   0.301  40.384  1.00  0.00     0.313 C 
HETATM    9  C10 UNL     1       3.357  -0.362  39.301  1.00  0.00     0.216 C 
HETATM   10  O6  UNL     1       3.635  -1.466  38.928  1.00  0.00    -0.290 OA
ENDROOT
BRANCH   1  11
HETATM   11  O1  UNL     1       1.668  -0.574  37.637  1.00  0.00    -0.281 OA
BRANCH  11  12
HETATM   12  C4  UNL     1       0.307  -0.835  37.612  1.00  0.00     0.256 A 
HETATM   13  N4  UNL     1      -0.671  -0.011  37.150  1.00  0.00    -0.151 N 
HETATM   14  C3  UNL     1      -1.870  -0.595  37.282  1.00  0.00     0.714 A 
ATOM     15  H4  UNL     1      -0.514   0.918  36.760  1.00  0.00     0.188 HD
HETATM   16  N8  UNL     1      -1.627  -1.797  37.833  1.00  0.00    -0.128 N 
HETATM   17  N7  UNL     1      -0.330  -1.953  38.035  1.00  0.00    -0.250 N 
ATOM     18  H8  UNL     1      -2.341  -2.489  38.061  1.00  0.00     0.205 HD
ATOM     19  H7  UNL     1       0.115  -2.777  38.441  1.00  0.00     0.191 HD
BRANCH  14  20
HETATM   20  N3  UNL     1      -3.036  -0.107  36.949  1.00  0.00    -0.129 N 
ATOM     21  H3  UNL     1      -3.245   0.120  35.977  1.00  0.00     0.205 HD
BRANCH  20  22
HETATM   22  N2  UNL     1      -3.991   0.097  37.948  1.00  0.00    -0.276 N 
ATOM     23  H2  UNL     1      -4.851  -0.449  37.915  1.00  0.00     0.189 HD
BRANCH  22  24
HETATM   24  C2  UNL     1      -3.826   1.027  39.007  1.00  0.00     0.086 C 
HETATM   25  C1  UNL     1      -3.681   0.544  40.383  1.00  0.00     0.090 C 
HETATM   26  N1  UNL     1      -3.804   2.293  38.760  1.00  0.00    -0.388 N 
ATOM     27  H12 UNL     1      -3.685   2.961  39.521  1.00  0.00     0.157 HD
ATOM     28  H11 UNL     1      -3.905   2.629  37.802  1.00  0.00     0.157 HD
ENDBRANCH  22  24
ENDBRANCH  20  22
ENDBRANCH  14  20
ENDBRANCH  11  12
ENDBRANCH   1  11
BRANCH   3  29
HETATM   29  C7  UNL     1       3.912   2.937  36.848  1.00  0.00     0.310 C 
BRANCH  29  30
HETATM   30  O3  UNL     1       4.712   2.863  35.728  1.00  0.00    -0.367 OA
ATOM     31  H3  UNL     1       5.529   3.334  35.844  1.00  0.00     0.212 HD
ENDBRANCH  29  30
BRANCH  29  32
HETATM   32  O4  UNL     1       2.619   3.404  36.544  1.00  0.00    -0.367 OA
ATOM     33  H4  UNL     1       2.697   4.167  35.982  1.00  0.00     0.212 HD
ENDBRANCH  29  32
ENDBRANCH   3  29
BRANCH   8  34
HETATM   34  N6  UNL     1       3.367   0.413  41.606  1.00  0.00    -0.064 N 
ATOM     35  H63 UNL     1       3.750   1.125  42.228  1.00  0.00     0.275 HD
ATOM     36  H62 UNL     1       2.451   0.832  41.440  1.00  0.00     0.275 HD
ATOM     37  H61 UNL     1       3.290  -0.492  42.070  1.00  0.00     0.275 HD
ENDBRANCH   8  34
BRANCH   7  38
HETATM   38  O5  UNL     1       5.520   2.203  40.621  1.00  0.00    -0.368 OA
ATOM     39  H5  UNL     1       5.397   2.069  41.552  1.00  0.00     0.212 HD
ENDBRANCH   7  38
TORSDOF 10
ENDMDL
MODEL 3
REMARK VINA RESULT: -7.996158818      3.978      6.141
REMARK  10 active torsions:
REMARK  status: ('A' for Active; 'I' for Inactive)
REMARK    1  A    between atoms: C2_2  and  N2_6 
REMARK    2  A    between atoms: N2_6  and  N3_8 
REMARK    3  A    between atoms: N3_8  and  C3_10 
REMARK    4  A    between atoms: C4_13  and  O1_14 
REMARK    5  A    between atoms: O1_14  and  C5_15 
REMARK    6  A    between atoms: C6_17  and  C7_18 
REMARK    7  A    between atoms: C7_18  and  O3_19 
REMARK    8  A    between atoms: C7_18  and  O4_21 
REMARK    9  A    between atoms: C8_26  and  O5_27 
REMARK   10  A    between atoms: C9_29  and  N6_30 
ROOT
HETATM    1  C5  UNL     1       2.308   0.987  41.555  1.00  0.00     0.345 C 
HETATM    2  O2  UNL     1       3.432   1.786  41.719  1.00  0.00    -0.317 OA
HETATM    3  C6  UNL     1       4.543   1.110  42.141  1.00  0.00     0.382 C 
HETATM    4  N5  UNL     1       4.503   0.656  43.496  1.00  0.00    -0.015 N 
ATOM      5  H51 UNL     1       5.414   0.778  43.939  1.00  0.00     0.283 HD
ATOM      6  H52 UNL     1       4.428  -0.360  43.529  1.00  0.00     0.283 HD
HETATM    7  C8  UNL     1       3.473   1.260  44.292  1.00  0.00     0.360 C 
HETATM    8  C9  UNL     1       2.237   0.366  44.120  1.00  0.00     0.313 C 
HETATM    9  C10 UNL     1       2.201  -0.010  42.680  1.00  0.00     0.216 C 
HETATM   10  O6  UNL     1       2.083  -1.153  42.342  1.00  0.00    -0.290 OA
ENDROOT
BRANCH   1  11
HETATM   11  O1  UNL     1       2.248   0.343  40.326  1.00  0.00    -0.281 OA
BRANCH  11  12
HETATM   12  C4  UNL     1       2.668   1.005  39.183  1.00  0.00     0.256 A 
HETATM   13  N4  UNL     1       3.951   1.262  38.816  1.00  0.00    -0.151 N 
HETATM   14  C3  UNL     1       3.978   1.919  37.649  1.00  0.00     0.714 A 
ATOM     15  H4  UNL     1       4.776   0.993  39.353  1.00  0.00     0.188 HD
HETATM   16  N8  UNL     1       2.691   2.069  37.291  1.00  0.00    -0.128 N 
HETATM   17  N7  UNL     1       1.897   1.527  38.198  1.00  0.00    -0.250 N 
ATOM     18  H8  UNL     1       2.373   2.534  36.441  1.00  0.00     0.205 HD
ATOM     19  H7  UNL     1       0.878   1.506  38.163  1.00  0.00     0.191 HD
BRANCH  14  20
HETATM   20  N3  UNL     1       5.028   2.333  36.990  1.00  0.00    -0.129 N 
ATOM     21  H3  UNL     1       5.929   2.433  37.458  1.00  0.00     0.205 HD
BRANCH  20  22
HETATM   22  N2  UNL     1       4.895   2.637  35.633  1.00  0.00    -0.276 N 
ATOM     23  H2  UNL     1       4.933   3.616  35.350  1.00  0.00     0.189 HD
BRANCH  22  24
HETATM   24  C2  UNL     1       4.711   1.654  34.627  1.00  0.00     0.086 C 
HETATM   25  C1  UNL     1       5.854   0.859  34.168  1.00  0.00     0.090 C 
HETATM   26  N1  UNL     1       3.542   1.458  34.119  1.00  0.00    -0.388 N 
ATOM     27  H12 UNL     1       3.409   0.751  33.395  1.00  0.00     0.157 HD
ATOM     28  H11 UNL     1       2.746   2.011  34.438  1.00  0.00     0.157 HD
ENDBRANCH  22  24
ENDBRANCH  20  22
ENDBRANCH  14  20
ENDBRANCH  11  12
ENDBRANCH   1  11
BRANCH   3  29
HETATM   29  C7  UNL     1       5.730   2.069  42.023  1.00  0.00     0.310 C 
BRANCH  29  30
HETATM   30  O3  UNL     1       6.309   2.021  40.773  1.00  0.00    -0.367 OA
ATOM     31  H3  UNL     1       7.178   2.406  40.769  1.00  0.00     0.212 HD
ENDBRANCH  29  30
BRANCH  29  32
HETATM   32  O4  UNL     1       5.292   3.366  42.354  1.00  0.00    -0.367 OA
ATOM     33  H4  UNL     1       6.018   3.968  42.241  1.00  0.00     0.212 HD
ENDBRANCH  29  32
ENDBRANCH   3  29
BRANCH   8  34
HETATM   34  N6  UNL     1       1.036   1.064  44.525  1.00  0.00    -0.064 N 
ATOM     35  H63 UNL     1       1.201   1.662  45.334  1.00  0.00     0.275 HD
ATOM     36  H62 UNL     1       0.774   1.786  43.852  1.00  0.00     0.275 HD
ATOM     37  H61 UNL     1       0.273   0.408  44.690  1.00  0.00     0.275 HD
ENDBRANCH   8  34
BRANCH   7  38
HETATM   38  O5  UNL     1       3.777   1.338  45.630  1.00  0.00    -0.368 OA
ATOM     39  H5  UNL     1       3.482   0.590  46.135  1.00  0.00     0.212 HD
ENDBRANCH   7  38
TORSDOF 10
ENDMDL
MODEL 4
REMARK VINA RESULT: -7.909105877      2.441      3.679
REMARK  10 active torsions:
REMARK  status: ('A' for Active; 'I' for Inactive)
REMARK    1  A    between atoms: C2_2  and  N2_6 
REMARK    2  A    between atoms: N2_6  and  N3_8 
REMARK    3  A    between atoms: N3_8  and  C3_10 
REMARK    4  A    between atoms: C4_13  and  O1_14 
REMARK    5  A    between atoms: O1_14  and  C5_15 
REMARK    6  A    between atoms: C6_17  and  C7_18 
REMARK    7  A    between atoms: C7_18  and  O3_19 
REMARK    8  A    between atoms: C7_18  and  O4_21 
REMARK    9  A    between atoms: C8_26  and  O5_27 
REMARK   10  A    between atoms: C9_29  and  N6_30 
ROOT
HETATM    1  C5  UNL     1       2.835   0.292  37.298  1.00  0.00     0.345 C 
HETATM    2  O2  UNL     1       3.599  -0.073  36.197  1.00  0.00    -0.317 OA
HETATM    3  C6  UNL     1       4.946   0.084  36.372  1.00  0.00     0.382 C 
HETATM    4  N5  UNL     1       5.402   1.439  36.409  1.00  0.00    -0.015 N 
ATOM      5  H51 UNL     1       6.286   1.531  35.907  1.00  0.00     0.283 HD
ATOM      6  H52 UNL     1       5.709   1.686  37.349  1.00  0.00     0.283 HD
HETATM    7  C8  UNL     1       4.450   2.397  35.925  1.00  0.00     0.360 C 
HETATM    8  C9  UNL     1       3.618   2.809  37.148  1.00  0.00     0.313 C 
HETATM    9  C10 UNL     1       3.372   1.557  37.916  1.00  0.00     0.216 C 
HETATM   10  O6  UNL     1       3.596   1.499  39.091  1.00  0.00    -0.290 OA
ENDROOT
BRANCH   1  11
HETATM   11  O1  UNL     1       2.716  -0.706  38.256  1.00  0.00    -0.281 OA
BRANCH  11  12
HETATM   12  C4  UNL     1       1.524  -1.403  38.377  1.00  0.00     0.256 A 
HETATM   13  N4  UNL     1       0.389  -0.975  38.990  1.00  0.00    -0.151 N 
HETATM   14  C3  UNL     1      -0.563  -1.914  38.912  1.00  0.00     0.714 A 
ATOM     15  H4  UNL     1       0.279  -0.069  39.445  1.00  0.00     0.188 HD
HETATM   16  N8  UNL     1      -0.006  -2.936  38.240  1.00  0.00    -0.128 N 
HETATM   17  N7  UNL     1       1.241  -2.645  37.914  1.00  0.00    -0.250 N 
ATOM     18  H8  UNL     1      -0.479  -3.812  38.014  1.00  0.00     0.205 HD
ATOM     19  H7  UNL     1       1.881  -3.252  37.402  1.00  0.00     0.191 HD
BRANCH  14  20
HETATM   20  N3  UNL     1      -1.780  -1.858  39.386  1.00  0.00    -0.129 N 
ATOM     21  H3  UNL     1      -1.969  -2.098  40.360  1.00  0.00     0.205 HD
BRANCH  20  22
HETATM   22  N2  UNL     1      -2.817  -1.465  38.537  1.00  0.00    -0.276 N 
ATOM     23  H2  UNL     1      -3.525  -2.154  38.286  1.00  0.00     0.189 HD
BRANCH  22  24
HETATM   24  C2  UNL     1      -2.936  -0.155  38.006  1.00  0.00     0.086 C 
HETATM   25  C1  UNL     1      -3.244   0.967  38.898  1.00  0.00     0.090 C 
HETATM   26  N1  UNL     1      -2.773   0.049  36.743  1.00  0.00    -0.388 N 
ATOM     27  H12 UNL     1      -2.859   0.992  36.361  1.00  0.00     0.157 HD
ATOM     28  H11 UNL     1      -2.559  -0.731  36.122  1.00  0.00     0.157 HD
ENDBRANCH  22  24
ENDBRANCH  20  22
ENDBRANCH  14  20
ENDBRANCH  11  12
ENDBRANCH   1  11
BRANCH   3  29
HETATM   29  C7  UNL     1       5.640  -0.592  35.187  1.00  0.00     0.310 C 
BRANCH  29  30
HETATM   30  O3  UNL     1       5.027  -0.289  33.990  1.00  0.00    -0.367 OA
ATOM     31  H3  UNL     1       5.561  -0.541  33.245  1.00  0.00     0.212 HD
ENDBRANCH  29  30
BRANCH  29  32
HETATM   32  O4  UNL     1       6.999  -0.221  35.195  1.00  0.00    -0.367 OA
ATOM     33  H4  UNL     1       7.523  -0.990  35.004  1.00  0.00     0.212 HD
ENDBRANCH  29  32
ENDBRANCH   3  29
BRANCH   8  34
HETATM   34  N6  UNL     1       2.382   3.443  36.741  1.00  0.00    -0.064 N 
ATOM     35  H63 UNL     1       2.411   3.732  35.763  1.00  0.00     0.275 HD
ATOM     36  H62 UNL     1       1.616   2.771  36.680  1.00  0.00     0.275 HD
ATOM     37  H61 UNL     1       2.153   4.222  37.358  1.00  0.00     0.275 HD
ENDBRANCH   8  34
BRANCH   7  38
HETATM   38  O5  UNL     1       5.020   3.523  35.382  1.00  0.00    -0.368 OA
ATOM     39  H5  UNL     1       4.678   3.754  34.527  1.00  0.00     0.212 HD
ENDBRANCH   7  38
TORSDOF 10
ENDMDL
MODEL 5
REMARK VINA RESULT: -7.848968380      2.719      6.869
REMARK  10 active torsions:
REMARK  status: ('A' for Active; 'I' for Inactive)
REMARK    1  A    between atoms: C2_2  and  N2_6 
REMARK    2  A    between atoms: N2_6  and  N3_8 
REMARK    3  A    between atoms: N3_8  and  C3_10 
REMARK    4  A    between atoms: C4_13  and  O1_14 
REMARK    5  A    between atoms: O1_14  and  C5_15 
REMARK    6  A    between atoms: C6_17  and  C7_18 
REMARK    7  A    between atoms: C7_18  and  O3_19 
REMARK    8  A    between atoms: C7_18  and  O4_21 
REMARK    9  A    between atoms: C8_26  and  O5_27 
REMARK   10  A    between atoms: C9_29  and  N6_30 
ROOT
HETATM    1  C5  UNL     1       1.044   0.016  38.715  1.00  0.00     0.345 C 
HETATM    2  O2  UNL     1       0.128   0.765  37.989  1.00  0.00    -0.317 OA
HETATM    3  C6  UNL     1      -1.067   0.959  38.625  1.00  0.00     0.382 C 
HETATM    4  N5  UNL     1      -1.897  -0.200  38.731  1.00  0.00    -0.015 N 
ATOM      5  H51 UNL     1      -2.874   0.046  38.575  1.00  0.00     0.283 HD
ATOM      6  H52 UNL     1      -1.948  -0.514  39.699  1.00  0.00     0.283 HD
HETATM    7  C8  UNL     1      -1.511  -1.284  37.873  1.00  0.00     0.360 C 
HETATM    8  C9  UNL     1      -0.510  -2.119  38.685  1.00  0.00     0.313 C 
HETATM    9  C10 UNL     1       0.357  -1.140  39.396  1.00  0.00     0.216 C 
HETATM   10  O6  UNL     1       0.553  -1.229  40.574  1.00  0.00    -0.290 OA
ENDROOT
BRANCH   1  11
HETATM   11  O1  UNL     1       1.778   0.756  39.631  1.00  0.00    -0.281 OA
BRANCH  11  12
HETATM   12  C4  UNL     1       3.056   1.181  39.305  1.00  0.00     0.256 A 
HETATM   13  N4  UNL     1       3.541   1.419  38.058  1.00  0.00    -0.151 N 
HETATM   14  C3  UNL     1       4.818   1.818  38.125  1.00  0.00     0.714 A 
ATOM     15  H4  UNL     1       3.009   1.308  37.195  1.00  0.00     0.188 HD
HETATM   16  N8  UNL     1       5.124   1.828  39.433  1.00  0.00    -0.128 N 
HETATM   17  N7  UNL     1       4.080   1.449  40.150  1.00  0.00    -0.250 N 
ATOM     18  H8  UNL     1       6.032   2.090  39.818  1.00  0.00     0.205 HD
ATOM     19  H7  UNL     1       4.052   1.372  41.167  1.00  0.00     0.191 HD
BRANCH  14  20
HETATM   20  N3  UNL     1       5.609   2.134  37.133  1.00  0.00    -0.129 N 
ATOM     21  H3  UNL     1       6.622   2.083  37.240  1.00  0.00     0.205 HD
BRANCH  20  22
HETATM   22  N2  UNL     1       5.042   2.544  35.923  1.00  0.00    -0.276 N 
ATOM     23  H2  UNL     1       4.841   3.535  35.794  1.00  0.00     0.189 HD
BRANCH  22  24
HETATM   24  C2  UNL     1       4.733   1.652  34.865  1.00  0.00     0.086 C 
HETATM   25  C1  UNL     1       5.782   0.792  34.308  1.00  0.00     0.090 C 
HETATM   26  N1  UNL     1       3.533   1.596  34.394  1.00  0.00    -0.388 N 
ATOM     27  H12 UNL     1       3.311   0.955  33.632  1.00  0.00     0.157 HD
ATOM     28  H11 UNL     1       2.803   2.195  34.781  1.00  0.00     0.157 HD
ENDBRANCH  22  24
ENDBRANCH  20  22
ENDBRANCH  14  20
ENDBRANCH  11  12
ENDBRANCH   1  11
BRANCH   3  29
HETATM   29  C7  UNL     1      -1.848   1.999  37.818  1.00  0.00     0.310 C 
BRANCH  29  30
HETATM   30  O3  UNL     1      -2.990   2.408  38.474  1.00  0.00    -0.367 OA
ATOM     31  H3  UNL     1      -3.588   2.865  37.894  1.00  0.00     0.212 HD
ENDBRANCH  29  30
BRANCH  29  32
HETATM   32  O4  UNL     1      -0.990   3.077  37.528  1.00  0.00    -0.367 OA
ATOM     33  H4  UNL     1      -0.100   2.747  37.470  1.00  0.00     0.212 HD
ENDBRANCH  29  32
ENDBRANCH   3  29
BRANCH   8  34
HETATM   34  N6  UNL     1       0.258  -2.988  37.818  1.00  0.00    -0.064 N 
ATOM     35  H63 UNL     1      -0.325  -3.409  37.094  1.00  0.00     0.275 HD
ATOM     36  H62 UNL     1       0.890  -2.459  37.218  1.00  0.00     0.275 HD
ATOM     37  H61 UNL     1       0.754  -3.695  38.361  1.00  0.00     0.275 HD
ENDBRANCH   8  34
BRANCH   7  38
HETATM   38  O5  UNL     1      -2.555  -2.094  37.496  1.00  0.00    -0.368 OA
ATOM     39  H5  UNL     1      -3.408  -1.684  37.574  1.00  0.00     0.212 HD
ENDBRANCH   7  38
TORSDOF 10
ENDMDL
