MODEL 1
REMARK VINA RESULT: -8.159100782      0.000      0.000
REMARK  10 active torsions:
REMARK  status: ('A' for Active; 'I' for Inactive)
REMARK    1  A    between atoms: C5_8  and  N3_9 
REMARK    2  A    between atoms: N3_9  and  O2_10 
REMARK    3  A    between atoms: N3_9  and  O3_12 
REMARK    4  A    between atoms: C6_14  and  O4_15 
REMARK    5  A    between atoms: C9_20  and  N4_21 
REMARK    6  A    between atoms: N4_21  and  N5_22 
REMARK    7  A    between atoms: C10_25  and  C11_26 
REMARK    8  A    between atoms: C11_26  and  C12_27 
REMARK    9  A    between atoms: C12_27  and  N6_28 
REMARK   10  A    between atoms: N6_28  and  N7_29 
ROOT
HETATM    1  C1  UNL     1       1.948   1.548  44.405  1.00  0.00     0.163 C 
HETATM    2  N1  UNL     1       2.017   1.218  42.992  1.00  0.00    -0.281 N 
HETATM    3  C2  UNL     1       3.084   1.652  42.303  1.00  0.00     0.294 A 
HETATM    4  O1  UNL     1       4.006   2.321  42.832  1.00  0.00    -0.264 OA
HETATM    5  C3  UNL     1       3.125   1.320  40.943  1.00  0.00     0.179 A 
HETATM    6  N2  UNL     1       2.127   0.605  40.406  1.00  0.00    -0.286 N 
HETATM    7  C4  UNL     1       2.052   0.224  39.144  1.00  0.00     0.071 A 
HETATM    8  C5  UNL     1       0.868  -0.508  38.946  1.00  0.00     0.126 A 
HETATM    9  C6  UNL     1       0.262  -0.530  40.178  1.00  0.00     0.127 A 
HETATM   10  C7  UNL     1       1.067   0.172  41.081  1.00  0.00     0.145 A 
HETATM   11  C8  UNL     1       1.010   0.490  42.421  1.00  0.00     0.280 A 
HETATM   12  O5  UNL     1       0.018   0.093  43.083  1.00  0.00    -0.265 OA
HETATM   13  C9  UNL     1       3.126   0.557  38.214  1.00  0.00     0.173 A 
HETATM   14  C10 UNL     1       4.232   1.430  38.816  1.00  0.00     0.111 A 
HETATM   15  N8  UNL     1       4.074   1.693  40.190  1.00  0.00    -0.365 N 
ATOM     16  H8  UNL     1       4.808   2.247  40.631  1.00  0.00     0.161 HD
ENDROOT
BRANCH  14  17
HETATM   17  C11 UNL     1       4.407   2.669  37.973  1.00  0.00     0.045 C 
BRANCH  17  18
HETATM   18  C12 UNL     1       3.392   2.924  36.951  1.00  0.00     0.136 C 
BRANCH  18  19
HETATM   19  N6  UNL     1       3.779   3.439  35.685  1.00  0.00    -0.148 NA
BRANCH  19  20
HETATM   20  N7  UNL     1       4.934   2.747  35.197  1.00  0.00    -0.348 N 
ATOM     21  H72 UNL     1       4.894   1.916  34.607  1.00  0.00     0.172 HD
ATOM     22  H71 UNL     1       5.786   3.203  35.523  1.00  0.00     0.172 HD
ENDBRANCH  19  20
ENDBRANCH  18  19
ENDBRANCH  17  18
ENDBRANCH  14  17
BRANCH  13  23
HETATM   23  N4  UNL     1       3.819  -0.648  37.736  1.00  0.00    -0.135 NA
BRANCH  23  24
HETATM   24  N5  UNL     1       4.216  -0.552  36.423  1.00  0.00    -0.348 N 
ATOM     25  H52 UNL     1       5.189  -0.650  36.132  1.00  0.00     0.172 HD
ATOM     26  H51 UNL     1       3.439  -0.375  35.786  1.00  0.00     0.172 HD
ENDBRANCH  23  24
ENDBRANCH  13  23
BRANCH   8  27
HETATM   27  N3  UNL     1       0.447  -1.066  37.699  1.00  0.00    -0.031 NA
BRANCH  27  28
HETATM   28  O2  UNL     1      -0.479  -0.257  37.102  1.00  0.00    -0.284 OA
ATOM     29  H2  UNL     1      -0.171   0.028  36.250  1.00  0.00     0.240 HD
ENDBRANCH  27  28
BRANCH  27  30
HETATM   30  O3  UNL     1      -0.175  -2.255  37.853  1.00  0.00    -0.284 OA
ATOM     31  H3  UNL     1      -0.687  -2.497  37.090  1.00  0.00     0.240 HD
ENDBRANCH  27  30
ENDBRANCH   8  27
BRANCH   9  32
HETATM   32  O4  UNL     1      -0.918  -1.119  40.520  1.00  0.00    -0.356 OA
ATOM     33  H4  UNL     1      -1.269  -1.261  41.391  1.00  0.00     0.218 HD
ENDBRANCH   9  32
TORSDOF 10
ENDMDL
MODEL 2
REMARK VINA RESULT: -7.972013234      1.587      4.266
REMARK  10 active torsions:
REMARK  status: ('A' for Active; 'I' for Inactive)
REMARK    1  A    between atoms: C5_8  and  N3_9 
REMARK    2  A    between atoms: N3_9  and  O2_10 
REMARK    3  A    between atoms: N3_9  and  O3_12 
REMARK    4  A    between atoms: C6_14  and  O4_15 
REMARK    5  A    between atoms: C9_20  and  N4_21 
REMARK    6  A    between atoms: N4_21  and  N5_22 
REMARK    7  A    between atoms: C10_25  and  C11_26 
REMARK    8  A    between atoms: C11_26  and  C12_27 
REMARK    9  A    between atoms: C12_27  and  N6_28 
REMARK   10  A    between atoms: N6_28  and  N7_29 
ROOT
HETATM    1  C1  UNL     1      -1.399  -1.482  40.343  1.00  0.00     0.163 C 
HETATM    2  N1  UNL     1      -0.155  -0.777  40.084  1.00  0.00    -0.281 N 
HETATM    3  C2  UNL     1       0.303  -0.765  38.822  1.00  0.00     0.294 A 
HETATM    4  O1  UNL     1      -0.300  -1.333  37.877  1.00  0.00    -0.264 OA
HETATM    5  C3  UNL     1       1.503  -0.079  38.601  1.00  0.00     0.179 A 
HETATM    6  N2  UNL     1       2.123   0.517  39.628  1.00  0.00    -0.286 N 
HETATM    7  C4  UNL     1       3.253   1.197  39.549  1.00  0.00     0.071 A 
HETATM    8  C5  UNL     1       3.600   1.677  40.824  1.00  0.00     0.126 A 
HETATM    9  C6  UNL     1       2.594   1.235  41.649  1.00  0.00     0.127 A 
HETATM   10  C7  UNL     1       1.677   0.509  40.880  1.00  0.00     0.145 A 
HETATM   11  C8  UNL     1       0.497  -0.161  41.116  1.00  0.00     0.280 A 
HETATM   12  O5  UNL     1       0.052  -0.185  42.292  1.00  0.00    -0.265 OA
HETATM   13  C9  UNL     1       3.914   1.370  38.260  1.00  0.00     0.173 A 
HETATM   14  C10 UNL     1       3.237   0.632  37.101  1.00  0.00     0.111 A 
HETATM   15  N8  UNL     1       2.039  -0.019  37.454  1.00  0.00    -0.365 N 
ATOM     16  H8  UNL     1       1.546  -0.497  36.699  1.00  0.00     0.161 HD
ENDROOT
BRANCH  14  17
HETATM   17  C11 UNL     1       4.242  -0.266  36.423  1.00  0.00     0.045 C 
BRANCH  17  18
HETATM   18  C12 UNL     1       5.022   0.320  35.332  1.00  0.00     0.136 C 
BRANCH  18  19
HETATM   19  N6  UNL     1       4.486   1.401  34.583  1.00  0.00    -0.148 NA
BRANCH  19  20
HETATM   20  N7  UNL     1       5.185   2.613  34.887  1.00  0.00    -0.348 N 
ATOM     21  H72 UNL     1       6.004   2.663  35.493  1.00  0.00     0.172 HD
ATOM     22  H71 UNL     1       4.748   3.404  34.413  1.00  0.00     0.172 HD
ENDBRANCH  19  20
ENDBRANCH  18  19
ENDBRANCH  17  18
ENDBRANCH  14  17
BRANCH  13  23
HETATM   23  N4  UNL     1       3.930   2.781  37.847  1.00  0.00    -0.135 NA
BRANCH  23  24
HETATM   24  N5  UNL     1       2.870   3.112  37.034  1.00  0.00    -0.348 N 
ATOM     25  H52 UNL     1       2.316   2.413  36.538  1.00  0.00     0.172 HD
ATOM     26  H51 UNL     1       2.706   4.117  36.987  1.00  0.00     0.172 HD
ENDBRANCH  23  24
ENDBRANCH  13  23
BRANCH   8  27
HETATM   27  N3  UNL     1       4.768   2.444  41.123  1.00  0.00    -0.031 NA
BRANCH  27  28
HETATM   28  O2  UNL     1       5.883   1.654  41.072  1.00  0.00    -0.284 OA
ATOM     29  H2  UNL     1       5.805   1.015  40.373  1.00  0.00     0.240 HD
ENDBRANCH  27  28
BRANCH  27  30
HETATM   30  O3  UNL     1       4.750   2.942  42.378  1.00  0.00    -0.284 OA
ATOM     31  H3  UNL     1       5.147   3.803  42.432  1.00  0.00     0.240 HD
ENDBRANCH  27  30
ENDBRANCH   8  27
BRANCH   9  32
HETATM   32  O4  UNL     1       2.461   1.436  42.989  1.00  0.00    -0.356 OA
ATOM     33  H4  UNL     1       2.796   0.898  43.696  1.00  0.00     0.218 HD
ENDBRANCH   9  32
TORSDOF 10
ENDMDL
MODEL 3
REMARK VINA RESULT: -7.741262063      1.238      1.256
REMARK  10 active torsions:
REMARK  status: ('A' for Active; 'I' for Inactive)
REMARK    1  A    between atoms: C5_8  and  N3_9 
REMARK    2  A    between atoms: N3_9  and  O2_10 
REMARK    3  A    between atoms: N3_9  and  O3_12 
REMARK    4  A    between atoms: C6_14  and  O4_15 
REMARK    5  A    between atoms: C9_20  and  N4_21 
REMARK    6  A    between atoms: N4_21  and  N5_22 
REMARK    7  A    between atoms: C10_25  and  C11_26 
REMARK    8  A    between atoms: C11_26  and  C12_27 
REMARK    9  A    between atoms: C12_27  and  N6_28 
REMARK   10  A    between atoms: N6_28  and  N7_29 
ROOT
HETATM    1  C1  UNL     1       2.376   2.045  44.896  1.00  0.00     0.163 C 
HETATM    2  N1  UNL     1       2.294   1.538  43.537  1.00  0.00    -0.281 N 
HETATM    3  C2  UNL     1       3.274   1.879  42.685  1.00  0.00     0.294 A 
HETATM    4  O1  UNL     1       4.241   2.608  43.021  1.00  0.00    -0.264 OA
HETATM    5  C3  UNL     1       3.170   1.377  41.382  1.00  0.00     0.179 A 
HETATM    6  N2  UNL     1       2.128   0.602  41.053  1.00  0.00    -0.286 N 
HETATM    7  C4  UNL     1       1.919   0.064  39.865  1.00  0.00     0.071 A 
HETATM    8  C5  UNL     1       0.730  -0.685  39.893  1.00  0.00     0.126 A 
HETATM    9  C6  UNL     1       0.263  -0.550  41.177  1.00  0.00     0.127 A 
HETATM   10  C7  UNL     1       1.153   0.260  41.890  1.00  0.00     0.145 A 
HETATM   11  C8  UNL     1       1.240   0.745  43.177  1.00  0.00     0.280 A 
HETATM   12  O5  UNL     1       0.332   0.438  43.989  1.00  0.00    -0.265 OA
HETATM   13  C9  UNL     1       2.881   0.274  38.787  1.00  0.00     0.173 A 
HETATM   14  C10 UNL     1       4.035   1.214  39.148  1.00  0.00     0.111 A 
HETATM   15  N8  UNL     1       4.026   1.650  40.488  1.00  0.00    -0.365 N 
ATOM     16  H8  UNL     1       4.797   2.255  40.771  1.00  0.00     0.161 HD
ENDROOT
BRANCH  14  17
HETATM   17  C11 UNL     1       4.102   2.336  38.142  1.00  0.00     0.045 C 
BRANCH  17  18
HETATM   18  C12 UNL     1       4.634   2.009  36.820  1.00  0.00     0.136 C 
BRANCH  18  19
HETATM   19  N6  UNL     1       5.519   0.908  36.669  1.00  0.00    -0.148 NA
BRANCH  19  20
HETATM   20  N7  UNL     1       6.043   0.867  35.337  1.00  0.00    -0.348 N 
ATOM     21  H72 UNL     1       6.816   0.269  35.046  1.00  0.00     0.172 HD
ATOM     22  H71 UNL     1       5.534   1.514  34.735  1.00  0.00     0.172 HD
ENDBRANCH  19  20
ENDBRANCH  18  19
ENDBRANCH  17  18
ENDBRANCH  14  17
BRANCH  13  23
HETATM   23  N4  UNL     1       3.532  -0.983  38.392  1.00  0.00    -0.135 NA
BRANCH  23  24
HETATM   24  N5  UNL     1       3.156  -1.409  37.139  1.00  0.00    -0.348 N 
ATOM     25  H52 UNL     1       3.014  -2.393  36.911  1.00  0.00     0.172 HD
ATOM     26  H51 UNL     1       3.039  -0.641  36.479  1.00  0.00     0.172 HD
ENDBRANCH  23  24
ENDBRANCH  13  23
BRANCH   8  27
HETATM   27  N3  UNL     1       0.181  -1.396  38.780  1.00  0.00    -0.031 NA
BRANCH  27  28
HETATM   28  O2  UNL     1      -1.109  -1.765  39.040  1.00  0.00    -0.284 OA
ATOM     29  H2  UNL     1      -1.653  -1.633  38.273  1.00  0.00     0.240 HD
ENDBRANCH  27  28
BRANCH  27  30
HETATM   30  O3  UNL     1       0.834  -2.554  38.539  1.00  0.00    -0.284 OA
ATOM     31  H3  UNL     1       1.714  -2.554  38.896  1.00  0.00     0.240 HD
ENDBRANCH  27  30
ENDBRANCH   8  27
BRANCH   9  32
HETATM   32  O4  UNL     1      -0.866  -1.088  41.719  1.00  0.00    -0.356 OA
ATOM     33  H4  UNL     1      -1.134  -1.085  42.629  1.00  0.00     0.218 HD
ENDBRANCH   9  32
TORSDOF 10
ENDMDL
MODEL 4
REMARK VINA RESULT: -7.683960577      2.308      4.779
REMARK  10 active torsions:
REMARK  status: ('A' for Active; 'I' for Inactive)
REMARK    1  A    between atoms: C5_8  and  N3_9 
REMARK    2  A    between atoms: N3_9  and  O2_10 
REMARK    3  A    between atoms: N3_9  and  O3_12 
REMARK    4  A    between atoms: C6_14  and  O4_15 
REMARK    5  A    between atoms: C9_20  and  N4_21 
REMARK    6  A    between atoms: N4_21  and  N5_22 
REMARK    7  A    between atoms: C10_25  and  C11_26 
REMARK    8  A    between atoms: C11_26  and  C12_27 
REMARK    9  A    between atoms: C12_27  and  N6_28 
REMARK   10  A    between atoms: N6_28  and  N7_29 
ROOT
HETATM    1  C1  UNL     1      -1.569  -0.120  44.521  1.00  0.00     0.163 C 
HETATM    2  N1  UNL     1      -0.318   0.059  43.803  1.00  0.00    -0.281 N 
HETATM    3  C2  UNL     1      -0.314  -0.204  42.486  1.00  0.00     0.294 A 
HETATM    4  O1  UNL     1      -1.337  -0.591  41.869  1.00  0.00    -0.264 OA
HETATM    5  C3  UNL     1       0.905  -0.024  41.820  1.00  0.00     0.179 A 
HETATM    6  N2  UNL     1       1.979   0.390  42.505  1.00  0.00    -0.286 N 
HETATM    7  C4  UNL     1       3.177   0.603  41.992  1.00  0.00     0.071 A 
HETATM    8  C5  UNL     1       4.051   1.030  43.007  1.00  0.00     0.126 A 
HETATM    9  C6  UNL     1       3.279   1.056  44.143  1.00  0.00     0.127 A 
HETATM   10  C7  UNL     1       1.982   0.652  43.808  1.00  0.00     0.145 A 
HETATM   11  C8  UNL     1       0.792   0.480  44.480  1.00  0.00     0.280 A 
HETATM   12  O5  UNL     1       0.767   0.721  45.714  1.00  0.00    -0.265 OA
HETATM   13  C9  UNL     1       3.407   0.413  40.563  1.00  0.00     0.173 A 
HETATM   14  C10 UNL     1       2.194  -0.124  39.798  1.00  0.00     0.111 A 
HETATM   15  N8  UNL     1       1.032  -0.261  40.581  1.00  0.00    -0.365 N 
ATOM     16  H8  UNL     1       0.196  -0.588  40.096  1.00  0.00     0.161 HD
ENDROOT
BRANCH  14  17
HETATM   17  C11 UNL     1       2.583  -1.380  39.058  1.00  0.00     0.045 C 
BRANCH  17  18
HETATM   18  C12 UNL     1       2.830  -1.253  37.622  1.00  0.00     0.136 C 
BRANCH  18  19
HETATM   19  N6  UNL     1       3.924  -0.474  37.160  1.00  0.00    -0.148 NA
BRANCH  19  20
HETATM   20  N7  UNL     1       3.455   0.738  36.559  1.00  0.00    -0.348 N 
ATOM     21  H72 UNL     1       2.596   1.215  36.832  1.00  0.00     0.172 HD
ATOM     22  H71 UNL     1       4.098   1.045  35.829  1.00  0.00     0.172 HD
ENDBRANCH  19  20
ENDBRANCH  18  19
ENDBRANCH  17  18
ENDBRANCH  14  17
BRANCH  13  23
HETATM   23  N4  UNL     1       3.739   1.680  39.897  1.00  0.00    -0.135 NA
BRANCH  23  24
HETATM   24  N5  UNL     1       5.066   1.766  39.544  1.00  0.00    -0.348 N 
ATOM     25  H52 UNL     1       5.706   2.442  39.962  1.00  0.00     0.172 HD
ATOM     26  H51 UNL     1       5.330   1.088  38.829  1.00  0.00     0.172 HD
ENDBRANCH  23  24
ENDBRANCH  13  23
BRANCH   8  27
HETATM   27  N3  UNL     1       5.434   1.341  42.823  1.00  0.00    -0.031 NA
BRANCH  27  28
HETATM   28  O2  UNL     1       6.110   1.229  44.007  1.00  0.00    -0.284 OA
ATOM     29  H2  UNL     1       6.007   2.020  44.523  1.00  0.00     0.240 HD
ENDBRANCH  27  28
BRANCH  27  30
HETATM   30  O3  UNL     1       5.626   2.620  42.431  1.00  0.00    -0.284 OA
ATOM     31  H3  UNL     1       6.545   2.857  42.408  1.00  0.00     0.240 HD
ENDBRANCH  27  30
ENDBRANCH   8  27
BRANCH   9  32
HETATM   32  O4  UNL     1       3.658   1.406  45.404  1.00  0.00    -0.356 OA
ATOM     33  H4  UNL     1       3.253   2.044  45.979  1.00  0.00     0.218 HD
ENDBRANCH   9  32
TORSDOF 10
ENDMDL
MODEL 5
REMARK VINA RESULT: -7.493480693      1.078      1.142
REMARK  10 active torsions:
REMARK  status: ('A' for Active; 'I' for Inactive)
REMARK    1  A    between atoms: C5_8  and  N3_9 
REMARK    2  A    between atoms: N3_9  and  O2_10 
REMARK    3  A    between atoms: N3_9  and  O3_12 
REMARK    4  A    between atoms: C6_14  and  O4_15 
REMARK    5  A    between atoms: C9_20  and  N4_21 
REMARK    6  A    between atoms: N4_21  and  N5_22 
REMARK    7  A    between atoms: C10_25  and  C11_26 
REMARK    8  A    between atoms: C11_26  and  C12_27 
REMARK    9  A    between atoms: C12_27  and  N6_28 
REMARK   10  A    between atoms: N6_28  and  N7_29 
ROOT
HETATM    1  C1  UNL     1       3.817   0.913  44.353  1.00  0.00     0.163 C 
HETATM    2  N1  UNL     1       3.342   0.860  42.980  1.00  0.00    -0.281 N 
HETATM    3  C2  UNL     1       4.119   1.406  42.032  1.00  0.00     0.294 A 
HETATM    4  O1  UNL     1       5.222   1.951  42.290  1.00  0.00    -0.264 OA
HETATM    5  C3  UNL     1       3.638   1.342  40.718  1.00  0.00     0.179 A 
HETATM    6  N2  UNL     1       2.459   0.754  40.474  1.00  0.00    -0.286 N 
HETATM    7  C4  UNL     1       1.901   0.624  39.284  1.00  0.00     0.071 A 
HETATM    8  C5  UNL     1       0.671  -0.043  39.415  1.00  0.00     0.126 A 
HETATM    9  C6  UNL     1       0.552  -0.296  40.759  1.00  0.00     0.127 A 
HETATM   10  C7  UNL     1       1.684   0.211  41.408  1.00  0.00     0.145 A 
HETATM   11  C8  UNL     1       2.142   0.266  42.706  1.00  0.00     0.280 A 
HETATM   12  O5  UNL     1       1.428  -0.240  43.609  1.00  0.00    -0.265 OA
HETATM   13  C9  UNL     1       2.589   1.118  38.096  1.00  0.00     0.173 A 
HETATM   14  C10 UNL     1       3.904   1.846  38.387  1.00  0.00     0.111 A 
HETATM   15  N8  UNL     1       4.277   1.842  39.745  1.00  0.00    -0.365 N 
ATOM     16  H8  UNL     1       5.163   2.294  39.972  1.00  0.00     0.161 HD
ENDROOT
BRANCH  14  17
HETATM   17  C11 UNL     1       3.863   3.223  37.770  1.00  0.00     0.045 C 
BRANCH  17  18
HETATM   18  C12 UNL     1       3.321   3.324  36.415  1.00  0.00     0.136 C 
BRANCH  18  19
HETATM   19  N6  UNL     1       4.151   3.031  35.300  1.00  0.00    -0.148 NA
BRANCH  19  20
HETATM   20  N7  UNL     1       3.736   1.810  34.677  1.00  0.00    -0.348 N 
ATOM     21  H72 UNL     1       3.391   1.747  33.719  1.00  0.00     0.172 HD
ATOM     22  H71 UNL     1       3.836   1.029  35.324  1.00  0.00     0.172 HD
ENDBRANCH  19  20
ENDBRANCH  18  19
ENDBRANCH  17  18
ENDBRANCH  14  17
BRANCH  13  23
HETATM   23  N4  UNL     1       2.962   0.019  37.193  1.00  0.00    -0.135 NA
BRANCH  23  24
HETATM   24  N5  UNL     1       3.200  -1.162  37.857  1.00  0.00    -0.348 N 
ATOM     25  H52 UNL     1       3.514  -1.195  38.827  1.00  0.00     0.172 HD
ATOM     26  H51 UNL     1       3.030  -1.983  37.278  1.00  0.00     0.172 HD
ENDBRANCH  23  24
ENDBRANCH  13  23
BRANCH   8  27
HETATM   27  N3  UNL     1      -0.217  -0.348  38.336  1.00  0.00    -0.031 NA
BRANCH  27  28
HETATM   28  O2  UNL     1      -1.437  -0.734  38.817  1.00  0.00    -0.284 OA
ATOM     29  H2  UNL     1      -1.706  -0.167  39.531  1.00  0.00     0.240 HD
ENDBRANCH  27  28
BRANCH  27  30
HETATM   30  O3  UNL     1       0.213  -1.392  37.595  1.00  0.00    -0.284 OA
ATOM     31  H3  UNL     1      -0.307  -2.174  37.737  1.00  0.00     0.240 HD
ENDBRANCH  27  30
ENDBRANCH   8  27
BRANCH   9  32
HETATM   32  O4  UNL     1      -0.468  -0.926  41.406  1.00  0.00    -0.356 OA
ATOM     33  H4  UNL     1      -0.902  -1.735  41.162  1.00  0.00     0.218 HD
ENDBRANCH   9  32
TORSDOF 10
ENDMDL
