MODEL 1
REMARK VINA RESULT: -8.136124943      0.000      0.000
REMARK  8 active torsions:
REMARK  status: ('A' for Active; 'I' for Inactive)
REMARK    1  A    between atoms: O1_2  and  C2_3 
REMARK    2  A    between atoms: C2_3  and  C3_4 
REMARK    3  A    between atoms: C4_9  and  C5_10 
REMARK    4  A    between atoms: C5_10  and  O4_12 
REMARK    5  A    between atoms: C7_14  and  O5_15 
REMARK       I    between atoms: N3_20  and  C9_21 
REMARK       I    between atoms: C9_21  and  N4_23 
REMARK    6  A    between atoms: N4_23  and  N5_25 
REMARK    7  A    between atoms: N5_25  and  N6_26 
REMARK    8  A    between atoms: C10_30  and  O7_31 
ROOT
HETATM    1  C2  UNL     1       3.441   1.577  37.375  1.00  0.00     0.267 C 
HETATM    2  N1  UNL     1       2.115   1.390  37.663  1.00  0.00    -0.370 N 
ATOM      3  H1  UNL     1       1.512   2.212  37.665  1.00  0.00     0.157 HD
HETATM    4  C4  UNL     1       1.527   0.158  37.954  1.00  0.00     0.144 C 
HETATM    5  C7  UNL     1       2.281  -0.819  38.768  1.00  0.00     0.213 C 
HETATM    6  C8  UNL     1       3.189  -0.249  39.751  1.00  0.00     0.151 A 
HETATM    7  N2  UNL     1       3.581  -0.464  40.956  1.00  0.00    -0.259 N 
ATOM      8  H2  UNL     1       3.341  -1.179  41.642  1.00  0.00     0.190 HD
HETATM    9  N3  UNL     1       4.469   0.647  40.994  1.00  0.00    -0.133 N 
HETATM   10  C9  UNL     1       5.343   1.177  41.974  1.00  0.00     0.374 C 
HETATM   11  O6  UNL     1       5.473   0.605  43.109  1.00  0.00    -0.242 OA
HETATM   12  N4  UNL     1       6.085   2.331  41.741  1.00  0.00    -0.233 N 
ATOM     13  H4  UNL     1       6.003   2.814  40.846  1.00  0.00     0.189 HD
HETATM   14  N7  UNL     1       4.042   0.868  39.701  1.00  0.00    -0.216 N 
HETATM   15  C10 UNL     1       4.263   1.765  38.626  1.00  0.00     0.311 C 
ENDROOT
BRANCH  12  16
HETATM   16  N5  UNL     1       6.940   2.829  42.722  1.00  0.00    -0.026 NA
BRANCH  16  17
HETATM   17  N6  UNL     1       7.662   3.949  42.272  1.00  0.00    -0.329 N 
ATOM     18  H62 UNL     1       7.555   4.344  41.337  1.00  0.00     0.174 HD
ATOM     19  H61 UNL     1       8.295   4.307  42.987  1.00  0.00     0.174 HD
ENDBRANCH  16  17
ENDBRANCH  12  16
BRANCH  15  20
HETATM   20  O7  UNL     1       5.646   1.767  38.278  1.00  0.00    -0.370 OA
ATOM     21  H7  UNL     1       6.114   1.179  38.859  1.00  0.00     0.212 HD
ENDBRANCH  15  20
BRANCH   5  22
HETATM   22  O5  UNL     1       2.955  -1.753  38.000  1.00  0.00    -0.386 OA
ATOM     23  H5  UNL     1       3.544  -2.295  38.511  1.00  0.00     0.210 HD
ENDBRANCH   5  22
BRANCH   1  24
HETATM   24  O1  UNL     1       3.987   0.597  36.559  1.00  0.00    -0.353 OA
HETATM   25  C1  UNL     1       3.895   0.818  35.214  1.00  0.00     0.205 C 
ENDBRANCH   1  24
BRANCH   1  26
HETATM   26  C3  UNL     1       3.586   2.924  36.667  1.00  0.00     0.236 C 
HETATM   27  O2  UNL     1       2.727   3.783  36.906  1.00  0.00    -0.644 OA
HETATM   28  O3  UNL     1       4.630   3.160  35.807  1.00  0.00    -0.644 OA
ENDBRANCH   1  26
BRANCH   4  29
HETATM   29  C5  UNL     1       0.184   0.533  38.643  1.00  0.00     0.139 C 
HETATM   30  C6  UNL     1      -0.772  -0.597  38.653  1.00  0.00     0.041 C 
BRANCH  29  31
HETATM   31  O4  UNL     1      -0.399   1.627  38.021  1.00  0.00    -0.394 OA
ATOM     32  H4  UNL     1      -1.007   2.063  38.607  1.00  0.00     0.210 HD
ENDBRANCH  29  31
ENDBRANCH   4  29
TORSDOF 8
ENDMDL
MODEL 2
REMARK VINA RESULT: -7.852601672      1.918      4.302
REMARK  8 active torsions:
REMARK  status: ('A' for Active; 'I' for Inactive)
REMARK    1  A    between atoms: O1_2  and  C2_3 
REMARK    2  A    between atoms: C2_3  and  C3_4 
REMARK    3  A    between atoms: C4_9  and  C5_10 
REMARK    4  A    between atoms: C5_10  and  O4_12 
REMARK    5  A    between atoms: C7_14  and  O5_15 
REMARK       I    between atoms: N3_20  and  C9_21 
REMARK       I    between atoms: C9_21  and  N4_23 
REMARK    6  A    between atoms: N4_23  and  N5_25 
REMARK    7  A    between atoms: N5_25  and  N6_26 
REMARK    8  A    between atoms: C10_30  and  O7_31 
ROOT
HETATM    1  C2  UNL     1       2.252  -0.423  38.347  1.00  0.00     0.267 C 
HETATM    2  N1  UNL     1       3.202  -0.389  37.360  1.00  0.00    -0.370 N 
ATOM      3  H1  UNL     1       3.697  -1.256  37.153  1.00  0.00     0.157 HD
HETATM    4  C4  UNL     1       3.544   0.742  36.618  1.00  0.00     0.144 C 
HETATM    5  C7  UNL     1       3.589   2.055  37.297  1.00  0.00     0.213 C 
HETATM    6  C8  UNL     1       3.966   2.022  38.702  1.00  0.00     0.151 A 
HETATM    7  N2  UNL     1       4.670   2.698  39.537  1.00  0.00    -0.259 N 
ATOM      8  H2  UNL     1       5.226   3.549  39.443  1.00  0.00     0.190 HD
HETATM    9  N3  UNL     1       4.401   1.844  40.641  1.00  0.00    -0.133 N 
HETATM   10  C9  UNL     1       4.787   1.842  42.005  1.00  0.00     0.374 C 
HETATM   11  O6  UNL     1       5.519   2.777  42.475  1.00  0.00    -0.242 OA
HETATM   12  N4  UNL     1       4.389   0.829  42.872  1.00  0.00    -0.233 N 
ATOM     13  H4  UNL     1       3.807   0.065  42.528  1.00  0.00     0.189 HD
HETATM   14  N7  UNL     1       3.646   1.126  39.737  1.00  0.00    -0.216 N 
HETATM   15  C10 UNL     1       2.822  -0.026  39.686  1.00  0.00     0.311 C 
ENDROOT
BRANCH  12  16
HETATM   16  N5  UNL     1       4.782   0.853  44.209  1.00  0.00    -0.026 NA
BRANCH  16  17
HETATM   17  N6  UNL     1       3.679   0.849  45.082  1.00  0.00    -0.329 N 
ATOM     18  H62 UNL     1       2.924   0.165  45.025  1.00  0.00     0.174 HD
ATOM     19  H61 UNL     1       3.730   1.605  45.765  1.00  0.00     0.174 HD
ENDBRANCH  16  17
ENDBRANCH  12  16
BRANCH  15  20
HETATM   20  O7  UNL     1       1.759   0.101  40.626  1.00  0.00    -0.370 OA
ATOM     21  H7  UNL     1       2.103   0.450  41.440  1.00  0.00     0.212 HD
ENDBRANCH  15  20
BRANCH   5  22
HETATM   22  O5  UNL     1       2.419   2.779  37.146  1.00  0.00    -0.386 OA
ATOM     23  H5  UNL     1       2.501   3.679  37.440  1.00  0.00     0.210 HD
ENDBRANCH   5  22
BRANCH   1  24
HETATM   24  O1  UNL     1       1.107   0.305  38.055  1.00  0.00    -0.353 OA
HETATM   25  C1  UNL     1       0.091  -0.390  37.462  1.00  0.00     0.205 C 
ENDBRANCH   1  24
BRANCH   1  26
HETATM   26  C3  UNL     1       1.849  -1.880  38.566  1.00  0.00     0.236 C 
HETATM   27  O2  UNL     1       2.397  -2.732  37.854  1.00  0.00    -0.644 OA
HETATM   28  O3  UNL     1       0.919  -2.219  39.518  1.00  0.00    -0.644 OA
ENDBRANCH   1  26
BRANCH   4  29
HETATM   29  C5  UNL     1       4.928   0.389  36.005  1.00  0.00     0.139 C 
HETATM   30  C6  UNL     1       5.145   1.051  34.699  1.00  0.00     0.041 C 
BRANCH  29  31
HETATM   31  O4  UNL     1       5.064  -0.984  35.856  1.00  0.00    -0.394 OA
ATOM     32  H4  UNL     1       5.075  -1.416  36.702  1.00  0.00     0.210 HD
ENDBRANCH  29  31
ENDBRANCH   4  29
TORSDOF 8
ENDMDL
MODEL 3
REMARK VINA RESULT: -7.754086640      2.290      2.669
REMARK  8 active torsions:
REMARK  status: ('A' for Active; 'I' for Inactive)
REMARK    1  A    between atoms: O1_2  and  C2_3 
REMARK    2  A    between atoms: C2_3  and  C3_4 
REMARK    3  A    between atoms: C4_9  and  C5_10 
REMARK    4  A    between atoms: C5_10  and  O4_12 
REMARK    5  A    between atoms: C7_14  and  O5_15 
REMARK       I    between atoms: N3_20  and  C9_21 
REMARK       I    between atoms: C9_21  and  N4_23 
REMARK    6  A    between atoms: N4_23  and  N5_25 
REMARK    7  A    between atoms: N5_25  and  N6_26 
REMARK    8  A    between atoms: C10_30  and  O7_31 
ROOT
HETATM    1  C2  UNL     1       3.023   0.581  38.596  1.00  0.00     0.267 C 
HETATM    2  N1  UNL     1       1.703   0.700  38.252  1.00  0.00    -0.370 N 
ATOM      3  H1  UNL     1       1.348   1.637  38.061  1.00  0.00     0.157 HD
HETATM    4  C4  UNL     1       0.806  -0.364  38.143  1.00  0.00     0.144 C 
HETATM    5  C7  UNL     1       0.894  -1.475  39.115  1.00  0.00     0.213 C 
HETATM    6  C8  UNL     1       1.360  -1.109  40.444  1.00  0.00     0.151 A 
HETATM    7  N2  UNL     1       1.115  -1.391  41.674  1.00  0.00    -0.259 N 
ATOM      8  H2  UNL     1       0.450  -2.025  42.118  1.00  0.00     0.190 HD
HETATM    9  N3  UNL     1       2.098  -0.508  42.198  1.00  0.00    -0.133 N 
HETATM   10  C9  UNL     1       2.528  -0.174  43.507  1.00  0.00     0.374 C 
HETATM   11  O6  UNL     1       2.012  -0.745  44.526  1.00  0.00    -0.242 OA
HETATM   12  N4  UNL     1       3.516   0.780  43.727  1.00  0.00    -0.233 N 
ATOM     13  H4  UNL     1       3.947   1.257  42.935  1.00  0.00     0.189 HD
HETATM   14  N7  UNL     1       2.354  -0.214  40.875  1.00  0.00    -0.216 N 
HETATM   15  C10 UNL     1       3.215   0.596  40.092  1.00  0.00     0.311 C 
ENDROOT
BRANCH  12  16
HETATM   16  N5  UNL     1       3.921   1.086  45.025  1.00  0.00    -0.026 NA
BRANCH  16  17
HETATM   17  N6  UNL     1       2.874   1.639  45.785  1.00  0.00    -0.329 N 
ATOM     18  H62 UNL     1       2.130   2.209  45.381  1.00  0.00     0.174 HD
ATOM     19  H61 UNL     1       2.953   1.401  46.774  1.00  0.00     0.174 HD
ENDBRANCH  16  17
ENDBRANCH  12  16
BRANCH  15  20
HETATM   20  O7  UNL     1       4.573   0.283  40.390  1.00  0.00    -0.370 OA
ATOM     21  H7  UNL     1       4.597  -0.396  41.055  1.00  0.00     0.212 HD
ENDBRANCH  15  20
BRANCH   5  22
HETATM   22  O5  UNL     1       1.632  -2.546  38.642  1.00  0.00    -0.386 OA
ATOM     23  H5  UNL     1       1.199  -3.381  38.780  1.00  0.00     0.210 HD
ENDBRANCH   5  22
BRANCH   1  24
HETATM   24  O1  UNL     1       3.662  -0.508  38.020  1.00  0.00    -0.353 OA
HETATM   25  C1  UNL     1       3.920  -0.412  36.682  1.00  0.00     0.205 C 
ENDBRANCH   1  24
BRANCH   1  26
HETATM   26  C3  UNL     1       3.746   1.851  38.147  1.00  0.00     0.236 C 
HETATM   27  O2  UNL     1       3.072   2.707  37.559  1.00  0.00    -0.644 OA
HETATM   28  O3  UNL     1       5.085   2.025  38.394  1.00  0.00    -0.644 OA
ENDBRANCH   1  26
BRANCH   4  29
HETATM   29  C5  UNL     1      -0.593   0.312  38.201  1.00  0.00     0.139 C 
HETATM   30  C6  UNL     1      -1.524  -0.248  37.196  1.00  0.00     0.041 C 
BRANCH  29  31
HETATM   31  O4  UNL     1      -0.484   1.683  38.016  1.00  0.00    -0.394 OA
ATOM     32  H4  UNL     1      -1.302   2.117  38.230  1.00  0.00     0.210 HD
ENDBRANCH  29  31
ENDBRANCH   4  29
TORSDOF 8
ENDMDL
MODEL 4
REMARK VINA RESULT: -7.503558819      2.703      3.095
REMARK  8 active torsions:
REMARK  status: ('A' for Active; 'I' for Inactive)
REMARK    1  A    between atoms: O1_2  and  C2_3 
REMARK    2  A    between atoms: C2_3  and  C3_4 
REMARK    3  A    between atoms: C4_9  and  C5_10 
REMARK    4  A    between atoms: C5_10  and  O4_12 
REMARK    5  A    between atoms: C7_14  and  O5_15 
REMARK       I    between atoms: N3_20  and  C9_21 
REMARK       I    between atoms: C9_21  and  N4_23 
REMARK    6  A    between atoms: N4_23  and  N5_25 
REMARK    7  A    between atoms: N5_25  and  N6_26 
REMARK    8  A    between atoms: C10_30  and  O7_31 
ROOT
HETATM    1  C2  UNL     1       2.527   0.824  38.814  1.00  0.00     0.267 C 
HETATM    2  N1  UNL     1       1.263   1.051  38.337  1.00  0.00    -0.370 N 
ATOM      3  H1  UNL     1       1.060   1.977  37.962  1.00  0.00     0.157 HD
HETATM    4  C4  UNL     1       0.233   0.110  38.325  1.00  0.00     0.144 C 
HETATM    5  C7  UNL     1       0.095  -0.813  39.472  1.00  0.00     0.213 C 
HETATM    6  C8  UNL     1       0.518  -0.283  40.758  1.00  0.00     0.151 A 
HETATM    7  N2  UNL     1       0.154  -0.308  41.990  1.00  0.00    -0.259 N 
ATOM      8  H2  UNL     1      -0.624  -0.761  42.471  1.00  0.00     0.190 HD
HETATM    9  N3  UNL     1       1.216   0.518  42.448  1.00  0.00    -0.133 N 
HETATM   10  C9  UNL     1       1.601   1.019  43.717  1.00  0.00     0.374 C 
HETATM   11  O6  UNL     1       0.942   0.709  44.765  1.00  0.00    -0.242 OA
HETATM   12  N4  UNL     1       2.700   1.861  43.865  1.00  0.00    -0.233 N 
ATOM     13  H4  UNL     1       3.246   2.130  43.047  1.00  0.00     0.189 HD
HETATM   14  N7  UNL     1       1.600   0.538  41.123  1.00  0.00    -0.216 N 
HETATM   15  C10 UNL     1       2.619   1.077  40.298  1.00  0.00     0.311 C 
ENDROOT
BRANCH  12  16
HETATM   16  N5  UNL     1       3.056   2.336  45.125  1.00  0.00    -0.026 NA
BRANCH  16  17
HETATM   17  N6  UNL     1       2.138   3.288  45.607  1.00  0.00    -0.329 N 
ATOM     18  H62 UNL     1       1.206   3.415  45.211  1.00  0.00     0.174 HD
ATOM     19  H61 UNL     1       2.518   3.823  46.387  1.00  0.00     0.174 HD
ENDBRANCH  16  17
ENDBRANCH  12  16
BRANCH  15  20
HETATM   20  O7  UNL     1       3.895   0.648  40.766  1.00  0.00    -0.370 OA
ATOM     21  H7  UNL     1       4.569   1.000  40.197  1.00  0.00     0.212 HD
ENDBRANCH  15  20
BRANCH   5  22
HETATM   22  O5  UNL     1       0.701  -2.038  39.252  1.00  0.00    -0.386 OA
ATOM     23  H5  UNL     1       0.084  -2.761  39.259  1.00  0.00     0.210 HD
ENDBRANCH   5  22
BRANCH   1  24
HETATM   24  O1  UNL     1       3.040  -0.424  38.487  1.00  0.00    -0.353 OA
HETATM   25  C1  UNL     1       3.259  -0.651  37.158  1.00  0.00     0.205 C 
ENDBRANCH   1  24
BRANCH   1  26
HETATM   26  C3  UNL     1       3.453   1.889  38.229  1.00  0.00     0.236 C 
HETATM   27  O2  UNL     1       2.948   2.714  37.456  1.00  0.00    -0.644 OA
HETATM   28  O3  UNL     1       4.787   1.922  38.555  1.00  0.00    -0.644 OA
ENDBRANCH   1  26
BRANCH   4  29
HETATM   29  C5  UNL     1      -1.055   0.962  38.143  1.00  0.00     0.139 C 
HETATM   30  C6  UNL     1      -1.971   0.379  37.136  1.00  0.00     0.041 C 
BRANCH  29  31
HETATM   31  O4  UNL     1      -0.737   2.263  37.780  1.00  0.00    -0.394 OA
ATOM     32  H4  UNL     1      -1.442   2.655  37.278  1.00  0.00     0.210 HD
ENDBRANCH  29  31
ENDBRANCH   4  29
TORSDOF 8
ENDMDL
MODEL 5
REMARK VINA RESULT: -7.213083575      1.780      2.470
REMARK  8 active torsions:
REMARK  status: ('A' for Active; 'I' for Inactive)
REMARK    1  A    between atoms: O1_2  and  C2_3 
REMARK    2  A    between atoms: C2_3  and  C3_4 
REMARK    3  A    between atoms: C4_9  and  C5_10 
REMARK    4  A    between atoms: C5_10  and  O4_12 
REMARK    5  A    between atoms: C7_14  and  O5_15 
REMARK       I    between atoms: N3_20  and  C9_21 
REMARK       I    between atoms: C9_21  and  N4_23 
REMARK    6  A    between atoms: N4_23  and  N5_25 
REMARK    7  A    between atoms: N5_25  and  N6_26 
REMARK    8  A    between atoms: C10_30  and  O7_31 
ROOT
HETATM    1  C2  UNL     1       2.521  -0.424  38.143  1.00  0.00     0.267 C 
HETATM    2  N1  UNL     1       1.268   0.092  37.946  1.00  0.00    -0.370 N 
ATOM      3  H1  UNL     1       1.154   0.786  37.208  1.00  0.00     0.157 HD
HETATM    4  C4  UNL     1       0.134  -0.260  38.679  1.00  0.00     0.144 C 
HETATM    5  C7  UNL     1       0.269  -0.505  40.132  1.00  0.00     0.213 C 
HETATM    6  C8  UNL     1       1.303   0.268  40.804  1.00  0.00     0.151 A 
HETATM    7  N2  UNL     1       1.489   0.887  41.914  1.00  0.00    -0.259 N 
ATOM      8  H2  UNL     1       0.898   1.026  42.735  1.00  0.00     0.190 HD
HETATM    9  N3  UNL     1       2.809   1.310  41.597  1.00  0.00    -0.133 N 
HETATM   10  C9  UNL     1       3.793   2.067  42.280  1.00  0.00     0.374 C 
HETATM   11  O6  UNL     1       3.577   2.501  43.461  1.00  0.00    -0.242 OA
HETATM   12  N4  UNL     1       5.019   2.365  41.693  1.00  0.00    -0.233 N 
ATOM     13  H4  UNL     1       5.223   2.036  40.749  1.00  0.00     0.189 HD
HETATM   14  N7  UNL     1       2.599   0.641  40.409  1.00  0.00    -0.216 N 
HETATM   15  C10 UNL     1       3.279   0.337  39.203  1.00  0.00     0.311 C 
ENDROOT
BRANCH  12  16
HETATM   16  N5  UNL     1       5.969   3.110  42.388  1.00  0.00    -0.026 NA
BRANCH  16  17
HETATM   17  N6  UNL     1       7.263   2.934  41.862  1.00  0.00    -0.329 N 
ATOM     18  H62 UNL     1       7.441   2.567  40.927  1.00  0.00     0.174 HD
ATOM     19  H61 UNL     1       7.985   3.216  42.525  1.00  0.00     0.174 HD
ENDBRANCH  16  17
ENDBRANCH  12  16
BRANCH  15  20
HETATM   20  O7  UNL     1       4.491  -0.353  39.495  1.00  0.00    -0.370 OA
ATOM     21  H7  UNL     1       4.292  -1.134  39.998  1.00  0.00     0.212 HD
ENDBRANCH  15  20
BRANCH   5  22
HETATM   22  O5  UNL     1       0.418  -1.846  40.440  1.00  0.00    -0.386 OA
ATOM     23  H5  UNL     1      -0.352  -2.217  40.855  1.00  0.00     0.210 HD
ENDBRANCH   5  22
BRANCH   1  24
HETATM   24  O1  UNL     1       2.538  -1.788  38.398  1.00  0.00    -0.353 OA
HETATM   25  C1  UNL     1       1.867  -2.572  37.504  1.00  0.00     0.205 C 
ENDBRANCH   1  24
BRANCH   1  26
HETATM   26  C3  UNL     1       3.344  -0.164  36.883  1.00  0.00     0.236 C 
HETATM   27  O2  UNL     1       3.049   0.834  36.211  1.00  0.00    -0.644 OA
HETATM   28  O3  UNL     1       4.367  -1.006  36.521  1.00  0.00    -0.644 OA
ENDBRANCH   1  26
BRANCH   4  29
HETATM   29  C5  UNL     1      -0.869   0.895  38.404  1.00  0.00     0.139 C 
HETATM   30  C6  UNL     1      -1.927   0.499  37.448  1.00  0.00     0.041 C 
BRANCH  29  31
HETATM   31  O4  UNL     1      -0.208   2.017  37.924  1.00  0.00    -0.394 OA
ATOM     32  H4  UNL     1      -0.795   2.560  37.412  1.00  0.00     0.210 HD
ENDBRANCH  29  31
ENDBRANCH   4  29
TORSDOF 8
ENDMDL
