MODEL 1
REMARK VINA RESULT: -7.466416865      0.000      0.000
REMARK  10 active torsions:
REMARK  status: ('A' for Active; 'I' for Inactive)
REMARK    1  A    between atoms: C2_2  and  C3_3 
REMARK    2  A    between atoms: C3_3  and  C4_4 
REMARK    3  A    between atoms: C3_3  and  N1_6 
REMARK    4  A    between atoms: N1_6  and  C6_7 
REMARK    5  A    between atoms: N1_6  and  C8_9 
REMARK    6  A    between atoms: C8_9  and  C9_10 
REMARK    7  A    between atoms: C9_10  and  C10_11 
REMARK    8  A    between atoms: C10_11  and  N2_12 
REMARK    9  A    between atoms: N2_12  and  C11_14 
REMARK   10  A    between atoms: C12_17  and  N4_18 
REMARK       I    between atoms: N4_18  and  C13_20 
ROOT
HETATM    1  C11 UNL     1      16.252 -12.324  20.023  1.00  0.00     0.680 A 
HETATM    2  N3  UNL     1      15.063 -11.810  20.390  1.00  0.00    -0.176 N 
ATOM      3  H3  UNL     1      15.068 -10.868  20.782  1.00  0.00     0.186 HD
HETATM    4  C12 UNL     1      13.878 -12.418  20.288  1.00  0.00     0.136 A 
HETATM    5  C15 UNL     1      13.888 -13.710  19.751  1.00  0.00     0.037 A 
HETATM    6  C16 UNL     1      12.684 -14.381  19.626  1.00  0.00     0.036 A 
HETATM    7  C17 UNL     1      12.665 -15.653  19.099  1.00  0.00     0.012 A 
HETATM    8 BR1  UNL     1      11.037 -16.634  18.882  1.00  0.00    -0.051 Br
HETATM    9  C18 UNL     1      13.858 -16.230  18.705  1.00  0.00     0.021 A 
HETATM   10  C19 UNL     1      15.034 -15.533  18.846  1.00  0.00     0.032 A 
HETATM   11  C20 UNL     1      15.078 -14.254  19.372  1.00  0.00     0.063 A 
HETATM   12  N5  UNL     1      16.235 -13.560  19.511  1.00  0.00    -0.191 N 
ATOM     13  H5  UNL     1      17.112 -13.990  19.218  1.00  0.00     0.184 HD
ENDROOT
BRANCH   1  14
HETATM   14  N2  UNL     1      17.337 -11.655  20.165  1.00  0.00    -0.226 N 
ATOM     15  H2  UNL     1      17.469 -10.889  19.504  1.00  0.00     0.177 HD
BRANCH  14  16
HETATM   16  C10 UNL     1      18.374 -11.830  21.105  1.00  0.00     0.143 C 
BRANCH  16  17
HETATM   17  C9  UNL     1      18.234 -13.048  21.984  1.00  0.00     0.065 C 
BRANCH  17  18
HETATM   18  C8  UNL     1      19.540 -13.398  22.621  1.00  0.00     0.065 C 
BRANCH  18  19
HETATM   19  N1  UNL     1      19.541 -13.565  24.020  1.00  0.00    -0.370 N 
BRANCH  19  20
HETATM   20  C3  UNL     1      20.785 -13.580  24.648  1.00  0.00     0.087 C 
BRANCH  20  21
HETATM   21  C2  UNL     1      20.970 -12.548  25.698  1.00  0.00     0.021 C 
HETATM   22  C1  UNL     1      20.892 -12.962  27.117  1.00  0.00     0.007 C 
ENDBRANCH  20  21
BRANCH  20  23
HETATM   23  C4  UNL     1      22.005 -13.673  23.760  1.00  0.00     0.021 C 
HETATM   24  C5  UNL     1      23.222 -13.306  24.630  1.00  0.00     0.007 C 
ENDBRANCH  20  23
ENDBRANCH  19  20
BRANCH  19  25
HETATM   25  C6  UNL     1      18.432 -14.158  24.645  1.00  0.00     0.059 C 
HETATM   26  C7  UNL     1      18.665 -15.416  25.431  1.00  0.00     0.055 C 
ENDBRANCH  19  25
ENDBRANCH  18  19
ENDBRANCH  17  18
ENDBRANCH  16  17
ENDBRANCH  14  16
ENDBRANCH   1  14
BRANCH   4  27
HETATM   27  N4  UNL     1      12.746 -11.933  20.604  1.00  0.00    -0.312 N 
HETATM   28  C13 UNL     1      12.373 -11.168  21.720  1.00  0.00     0.219 C 
HETATM   29  C14 UNL     1      12.000  -9.733  21.571  1.00  0.00     0.117 C 
HETATM   30  O1  UNL     1      12.359 -11.713  22.841  1.00  0.00    -0.274 OA
ATOM     31  H4  UNL     1      11.993 -12.131  19.945  1.00  0.00     0.170 HD
ENDBRANCH   4  27
TORSDOF 10
ENDMDL
MODEL 2
REMARK VINA RESULT: -7.432176256      2.406      3.312
REMARK  10 active torsions:
REMARK  status: ('A' for Active; 'I' for Inactive)
REMARK    1  A    between atoms: C2_2  and  C3_3 
REMARK    2  A    between atoms: C3_3  and  C4_4 
REMARK    3  A    between atoms: C3_3  and  N1_6 
REMARK    4  A    between atoms: N1_6  and  C6_7 
REMARK    5  A    between atoms: N1_6  and  C8_9 
REMARK    6  A    between atoms: C8_9  and  C9_10 
REMARK    7  A    between atoms: C9_10  and  C10_11 
REMARK    8  A    between atoms: C10_11  and  N2_12 
REMARK    9  A    between atoms: N2_12  and  C11_14 
REMARK   10  A    between atoms: C12_17  and  N4_18 
REMARK       I    between atoms: N4_18  and  C13_20 
ROOT
HETATM    1  C11 UNL     1      16.453 -13.260  21.919  1.00  0.00     0.680 A 
HETATM    2  N3  UNL     1      15.153 -12.933  21.800  1.00  0.00    -0.176 N 
ATOM      3  H3  UNL     1      14.558 -13.097  22.612  1.00  0.00     0.186 HD
HETATM    4  C12 UNL     1      14.570 -12.412  20.716  1.00  0.00     0.136 A 
HETATM    5  C15 UNL     1      15.398 -12.195  19.610  1.00  0.00     0.037 A 
HETATM    6  C16 UNL     1      14.839 -11.658  18.463  1.00  0.00     0.036 A 
HETATM    7  C17 UNL     1      15.632 -11.431  17.360  1.00  0.00     0.012 A 
HETATM    8 BR1  UNL     1      14.931 -10.678  15.748  1.00  0.00    -0.051 Br
HETATM    9  C18 UNL     1      16.976 -11.749  17.428  1.00  0.00     0.021 A 
HETATM   10  C19 UNL     1      17.495 -12.282  18.584  1.00  0.00     0.032 A 
HETATM   11  C20 UNL     1      16.718 -12.517  19.704  1.00  0.00     0.063 A 
HETATM   12  N5  UNL     1      17.225 -13.040  20.849  1.00  0.00    -0.191 N 
ATOM     13  H5  UNL     1      18.217 -13.272  20.894  1.00  0.00     0.184 HD
ENDROOT
BRANCH   1  14
HETATM   14  N2  UNL     1      16.916 -13.757  23.008  1.00  0.00    -0.226 N 
ATOM     15  H2  UNL     1      16.359 -13.577  23.843  1.00  0.00     0.177 HD
BRANCH  14  16
HETATM   16  C10 UNL     1      18.086 -14.518  23.212  1.00  0.00     0.143 C 
BRANCH  16  17
HETATM   17  C9  UNL     1      18.992 -14.007  24.305  1.00  0.00     0.065 C 
BRANCH  17  18
HETATM   18  C8  UNL     1      20.353 -13.702  23.769  1.00  0.00     0.065 C 
BRANCH  18  19
HETATM   19  N1  UNL     1      21.339 -13.338  24.707  1.00  0.00    -0.370 N 
BRANCH  19  20
HETATM   20  C3  UNL     1      22.415 -14.212  24.858  1.00  0.00     0.087 C 
BRANCH  20  21
HETATM   21  C2  UNL     1      23.693 -13.739  24.272  1.00  0.00     0.021 C 
HETATM   22  C1  UNL     1      24.784 -14.719  24.073  1.00  0.00     0.007 C 
ENDBRANCH  20  21
BRANCH  20  23
HETATM   23  C4  UNL     1      22.172 -15.667  24.526  1.00  0.00     0.021 C 
HETATM   24  C5  UNL     1      21.900 -16.391  25.858  1.00  0.00     0.007 C 
ENDBRANCH  20  23
ENDBRANCH  19  20
BRANCH  19  25
HETATM   25  C6  UNL     1      21.012 -12.443  25.739  1.00  0.00     0.059 C 
HETATM   26  C7  UNL     1      21.043 -12.962  27.148  1.00  0.00     0.055 C 
ENDBRANCH  19  25
ENDBRANCH  18  19
ENDBRANCH  17  18
ENDBRANCH  16  17
ENDBRANCH  14  16
ENDBRANCH   1  14
BRANCH   4  27
HETATM   27  N4  UNL     1      13.350 -12.073  20.599  1.00  0.00    -0.312 N 
HETATM   28  C13 UNL     1      12.463 -11.556  21.555  1.00  0.00     0.219 C 
HETATM   29  C14 UNL     1      11.984 -10.147  21.469  1.00  0.00     0.117 C 
HETATM   30  O1  UNL     1      12.081 -12.298  22.481  1.00  0.00    -0.274 OA
ATOM     31  H4  UNL     1      12.955 -12.197  19.667  1.00  0.00     0.170 HD
ENDBRANCH   4  27
TORSDOF 10
ENDMDL
MODEL 3
REMARK VINA RESULT: -7.421739902      2.901      5.027
REMARK  10 active torsions:
REMARK  status: ('A' for Active; 'I' for Inactive)
REMARK    1  A    between atoms: C2_2  and  C3_3 
REMARK    2  A    between atoms: C3_3  and  C4_4 
REMARK    3  A    between atoms: C3_3  and  N1_6 
REMARK    4  A    between atoms: N1_6  and  C6_7 
REMARK    5  A    between atoms: N1_6  and  C8_9 
REMARK    6  A    between atoms: C8_9  and  C9_10 
REMARK    7  A    between atoms: C9_10  and  C10_11 
REMARK    8  A    between atoms: C10_11  and  N2_12 
REMARK    9  A    between atoms: N2_12  and  C11_14 
REMARK   10  A    between atoms: C12_17  and  N4_18 
REMARK       I    between atoms: N4_18  and  C13_20 
ROOT
HETATM    1  C11 UNL     1      14.248 -11.868  18.788  1.00  0.00     0.680 A 
HETATM    2  N3  UNL     1      13.546 -12.930  19.223  1.00  0.00    -0.176 N 
ATOM      3  H3  UNL     1      13.578 -13.773  18.649  1.00  0.00     0.186 HD
HETATM    4  C12 UNL     1      12.813 -12.984  20.339  1.00  0.00     0.136 A 
HETATM    5  C15 UNL     1      12.777 -11.821  21.114  1.00  0.00     0.037 A 
HETATM    6  C16 UNL     1      12.029 -11.827  22.279  1.00  0.00     0.036 A 
HETATM    7  C17 UNL     1      11.979 -10.696  23.063  1.00  0.00     0.012 A 
HETATM    8 BR1  UNL     1      10.979 -10.638  24.693  1.00  0.00    -0.051 Br
HETATM    9  C18 UNL     1      12.682  -9.575  22.662  1.00  0.00     0.021 A 
HETATM   10  C19 UNL     1      13.413  -9.606  21.498  1.00  0.00     0.032 A 
HETATM   11  C20 UNL     1      13.479 -10.731  20.696  1.00  0.00     0.063 A 
HETATM   12  N5  UNL     1      14.200 -10.768  19.547  1.00  0.00    -0.191 N 
ATOM     13  H5  UNL     1      14.718  -9.939  19.257  1.00  0.00     0.184 HD
ENDROOT
BRANCH   1  14
HETATM   14  N2  UNL     1      14.922 -11.919  17.697  1.00  0.00    -0.226 N 
ATOM     15  H2  UNL     1      14.429 -12.311  16.895  1.00  0.00     0.177 HD
BRANCH  14  16
HETATM   16  C10 UNL     1      16.250 -11.511  17.451  1.00  0.00     0.143 C 
BRANCH  16  17
HETATM   17  C9  UNL     1      17.308 -12.379  18.086  1.00  0.00     0.065 C 
BRANCH  17  18
HETATM   18  C8  UNL     1      17.624 -11.910  19.468  1.00  0.00     0.065 C 
BRANCH  18  19
HETATM   19  N1  UNL     1      18.336 -12.800  20.296  1.00  0.00    -0.370 N 
BRANCH  19  20
HETATM   20  C3  UNL     1      17.805 -13.041  21.562  1.00  0.00     0.087 C 
BRANCH  20  21
HETATM   21  C2  UNL     1      18.484 -14.111  22.333  1.00  0.00     0.021 C 
HETATM   22  C1  UNL     1      19.038 -13.779  23.665  1.00  0.00     0.007 C 
ENDBRANCH  20  21
BRANCH  20  23
HETATM   23  C4  UNL     1      16.302 -13.170  21.666  1.00  0.00     0.021 C 
HETATM   24  C5  UNL     1      15.954 -14.636  21.346  1.00  0.00     0.007 C 
ENDBRANCH  20  23
ENDBRANCH  19  20
BRANCH  19  25
HETATM   25  C6  UNL     1      19.702 -13.025  20.053  1.00  0.00     0.059 C 
HETATM   26  C7  UNL     1      20.587 -11.824  19.887  1.00  0.00     0.055 C 
ENDBRANCH  19  25
ENDBRANCH  18  19
ENDBRANCH  17  18
ENDBRANCH  16  17
ENDBRANCH  14  16
ENDBRANCH   1  14
BRANCH   4  27
HETATM   27  N4  UNL     1      12.168 -13.989  20.776  1.00  0.00    -0.312 N 
HETATM   28  C13 UNL     1      12.135 -15.312  20.308  1.00  0.00     0.219 C 
HETATM   29  C14 UNL     1      12.737 -16.418  21.104  1.00  0.00     0.117 C 
HETATM   30  O1  UNL     1      11.590 -15.544  19.212  1.00  0.00    -0.274 OA
ATOM     31  H4  UNL     1      11.585 -13.805  21.593  1.00  0.00     0.170 HD
ENDBRANCH   4  27
TORSDOF 10
ENDMDL
MODEL 4
REMARK VINA RESULT: -7.402473369      3.253      5.093
REMARK  10 active torsions:
REMARK  status: ('A' for Active; 'I' for Inactive)
REMARK    1  A    between atoms: C2_2  and  C3_3 
REMARK    2  A    between atoms: C3_3  and  C4_4 
REMARK    3  A    between atoms: C3_3  and  N1_6 
REMARK    4  A    between atoms: N1_6  and  C6_7 
REMARK    5  A    between atoms: N1_6  and  C8_9 
REMARK    6  A    between atoms: C8_9  and  C9_10 
REMARK    7  A    between atoms: C9_10  and  C10_11 
REMARK    8  A    between atoms: C10_11  and  N2_12 
REMARK    9  A    between atoms: N2_12  and  C11_14 
REMARK   10  A    between atoms: C12_17  and  N4_18 
REMARK       I    between atoms: N4_18  and  C13_20 
ROOT
HETATM    1  C11 UNL     1      13.946 -11.557  18.790  1.00  0.00     0.680 A 
HETATM    2  N3  UNL     1      13.462 -12.732  19.233  1.00  0.00    -0.176 N 
ATOM      3  H3  UNL     1      13.594 -13.544  18.630  1.00  0.00     0.186 HD
HETATM    4  C12 UNL     1      12.825 -12.934  20.391  1.00  0.00     0.136 A 
HETATM    5  C15 UNL     1      12.649 -11.811  21.206  1.00  0.00     0.037 A 
HETATM    6  C16 UNL     1      11.994 -11.970  22.414  1.00  0.00     0.036 A 
HETATM    7  C17 UNL     1      11.810 -10.882  23.238  1.00  0.00     0.012 A 
HETATM    8 BR1  UNL     1      10.928 -11.030  24.929  1.00  0.00    -0.051 Br
HETATM    9  C18 UNL     1      12.288  -9.650  22.832  1.00  0.00     0.021 A 
HETATM   10  C19 UNL     1      12.933  -9.531  21.623  1.00  0.00     0.032 A 
HETATM   11  C20 UNL     1      13.130 -10.610  20.781  1.00  0.00     0.063 A 
HETATM   12  N5  UNL     1      13.768 -10.499  19.589  1.00  0.00    -0.191 N 
ATOM     13  H5  UNL     1      14.120  -9.588  19.295  1.00  0.00     0.184 HD
ENDROOT
BRANCH   1  14
HETATM   14  N2  UNL     1      14.544 -11.470  17.658  1.00  0.00    -0.226 N 
ATOM     15  H2  UNL     1      14.156 -10.785  17.010  1.00  0.00     0.177 HD
BRANCH  14  16
HETATM   16  C10 UNL     1      15.661 -12.188  17.184  1.00  0.00     0.143 C 
BRANCH  16  17
HETATM   17  C9  UNL     1      16.968 -11.844  17.855  1.00  0.00     0.065 C 
BRANCH  17  18
HETATM   18  C8  UNL     1      17.276 -12.812  18.951  1.00  0.00     0.065 C 
BRANCH  18  19
HETATM   19  N1  UNL     1      17.787 -12.276  20.148  1.00  0.00    -0.370 N 
BRANCH  19  20
HETATM   20  C3  UNL     1      19.067 -12.683  20.522  1.00  0.00     0.087 C 
BRANCH  20  21
HETATM   21  C2  UNL     1      20.173 -11.877  19.950  1.00  0.00     0.021 C 
HETATM   22  C1  UNL     1      20.468 -12.006  18.505  1.00  0.00     0.007 C 
ENDBRANCH  20  21
BRANCH  20  23
HETATM   23  C4  UNL     1      19.373 -14.161  20.435  1.00  0.00     0.021 C 
HETATM   24  C5  UNL     1      19.572 -14.664  21.877  1.00  0.00     0.007 C 
ENDBRANCH  20  23
ENDBRANCH  19  20
BRANCH  19  25
HETATM   25  C6  UNL     1      16.899 -11.778  21.117  1.00  0.00     0.059 C 
HETATM   26  C7  UNL     1      16.093 -12.774  21.900  1.00  0.00     0.055 C 
ENDBRANCH  19  25
ENDBRANCH  18  19
ENDBRANCH  17  18
ENDBRANCH  16  17
ENDBRANCH  14  16
ENDBRANCH   1  14
BRANCH   4  27
HETATM   27  N4  UNL     1      12.388 -14.043  20.833  1.00  0.00    -0.312 N 
HETATM   28  C13 UNL     1      12.626 -15.351  20.383  1.00  0.00     0.219 C 
HETATM   29  C14 UNL     1      13.426 -16.306  21.202  1.00  0.00     0.117 C 
HETATM   30  O1  UNL     1      12.155 -15.699  19.283  1.00  0.00    -0.274 OA
ATOM     31  H4  UNL     1      11.767 -13.971  21.640  1.00  0.00     0.170 HD
ENDBRANCH   4  27
TORSDOF 10
ENDMDL
MODEL 5
REMARK VINA RESULT: -7.396173912      2.437      3.430
REMARK  10 active torsions:
REMARK  status: ('A' for Active; 'I' for Inactive)
REMARK    1  A    between atoms: C2_2  and  C3_3 
REMARK    2  A    between atoms: C3_3  and  C4_4 
REMARK    3  A    between atoms: C3_3  and  N1_6 
REMARK    4  A    between atoms: N1_6  and  C6_7 
REMARK    5  A    between atoms: N1_6  and  C8_9 
REMARK    6  A    between atoms: C8_9  and  C9_10 
REMARK    7  A    between atoms: C9_10  and  C10_11 
REMARK    8  A    between atoms: C10_11  and  N2_12 
REMARK    9  A    between atoms: N2_12  and  C11_14 
REMARK   10  A    between atoms: C12_17  and  N4_18 
REMARK       I    between atoms: N4_18  and  C13_20 
ROOT
HETATM    1  C11 UNL     1      16.771 -13.320  22.013  1.00  0.00     0.680 A 
HETATM    2  N3  UNL     1      15.450 -13.073  21.936  1.00  0.00    -0.176 N 
ATOM      3  H3  UNL     1      14.892 -13.274  22.766  1.00  0.00     0.186 HD
HETATM    4  C12 UNL     1      14.802 -12.589  20.872  1.00  0.00     0.136 A 
HETATM    5  C15 UNL     1      15.580 -12.322  19.741  1.00  0.00     0.037 A 
HETATM    6  C16 UNL     1      14.953 -11.820  18.613  1.00  0.00     0.036 A 
HETATM    7  C17 UNL     1      15.695 -11.545  17.487  1.00  0.00     0.012 A 
HETATM    8 BR1  UNL     1      14.898 -10.835  15.899  1.00  0.00    -0.051 Br
HETATM    9  C18 UNL     1      17.058 -11.780  17.512  1.00  0.00     0.021 A 
HETATM   10  C19 UNL     1      17.644 -12.281  18.649  1.00  0.00     0.032 A 
HETATM   11  C20 UNL     1      16.919 -12.563  19.793  1.00  0.00     0.063 A 
HETATM   12  N5  UNL     1      17.493 -13.054  20.920  1.00  0.00    -0.191 N 
ATOM     13  H5  UNL     1      18.499 -13.225  20.933  1.00  0.00     0.184 HD
ENDROOT
BRANCH   1  14
HETATM   14  N2  UNL     1      17.297 -13.789  23.086  1.00  0.00    -0.226 N 
ATOM     15  H2  UNL     1      17.300 -13.155  23.885  1.00  0.00     0.177 HD
BRANCH  14  16
HETATM   16  C10 UNL     1      17.872 -15.056  23.315  1.00  0.00     0.143 C 
BRANCH  16  17
HETATM   17  C9  UNL     1      19.303 -15.196  22.860  1.00  0.00     0.065 C 
BRANCH  17  18
HETATM   18  C8  UNL     1      20.209 -14.336  23.680  1.00  0.00     0.065 C 
BRANCH  18  19
HETATM   19  N1  UNL     1      21.092 -14.996  24.556  1.00  0.00    -0.370 N 
BRANCH  19  20
HETATM   20  C3  UNL     1      20.708 -15.074  25.894  1.00  0.00     0.087 C 
BRANCH  20  21
HETATM   21  C2  UNL     1      20.031 -16.336  26.278  1.00  0.00     0.021 C 
HETATM   22  C1  UNL     1      18.682 -16.259  26.884  1.00  0.00     0.007 C 
ENDBRANCH  20  21
BRANCH  20  23
HETATM   23  C4  UNL     1      19.993 -13.876  26.476  1.00  0.00     0.021 C 
HETATM   24  C5  UNL     1      21.070 -12.975  27.110  1.00  0.00     0.007 C 
ENDBRANCH  20  23
ENDBRANCH  19  20
BRANCH  19  25
HETATM   25  C6  UNL     1      22.449 -15.116  24.207  1.00  0.00     0.059 C 
HETATM   26  C7  UNL     1      23.293 -13.876  24.257  1.00  0.00     0.055 C 
ENDBRANCH  19  25
ENDBRANCH  18  19
ENDBRANCH  17  18
ENDBRANCH  16  17
ENDBRANCH  14  16
ENDBRANCH   1  14
BRANCH   4  27
HETATM   27  N4  UNL     1      13.561 -12.325  20.795  1.00  0.00    -0.312 N 
HETATM   28  C13 UNL     1      12.714 -11.696  21.720  1.00  0.00     0.219 C 
HETATM   29  C14 UNL     1      12.155 -10.342  21.446  1.00  0.00     0.117 C 
HETATM   30  O1  UNL     1      12.436 -12.293  22.778  1.00  0.00    -0.274 OA
ATOM     31  H4  UNL     1      13.111 -12.616  19.927  1.00  0.00     0.170 HD
ENDBRANCH   4  27
TORSDOF 10
ENDMDL
