MODEL 1
REMARK VINA RESULT: -8.917013135      0.000      0.000
REMARK  10 active torsions:
REMARK  status: ('A' for Active; 'I' for Inactive)
REMARK    1  A    between atoms: C2_2  and  N1_4 
REMARK    2  A    between atoms: N1_4  and  C4_5 
REMARK    3  A    between atoms: N1_4  and  C11_13 
REMARK    4  A    between atoms: C4_5  and  C5_6 
REMARK    5  A    between atoms: C11_13  and  N2_15 
REMARK    6  A    between atoms: N2_15  and  N3_17 
REMARK    7  A    between atoms: C12_19  and  C13_20 
REMARK    8  A    between atoms: C12_19  and  C19_26 
REMARK    9  A    between atoms: N4_29  and  C22_30 
REMARK   10  A    between atoms: C22_30  and  O1_31 
ROOT
HETATM    1  N3  UNL     1      16.312 -13.002  20.831  1.00  0.00    -0.297 N 
ATOM      2  H3  UNL     1      17.043 -13.222  20.154  1.00  0.00     0.187 HD
HETATM    3  C12 UNL     1      15.371 -12.259  20.361  1.00  0.00     0.068 C 
ENDROOT
BRANCH   1   4
HETATM    4  N2  UNL     1      16.514 -13.548  22.053  1.00  0.00    -0.276 N 
ATOM      5  H2  UNL     1      16.292 -12.987  22.875  1.00  0.00     0.189 HD
BRANCH   4   6
HETATM    6  C11 UNL     1      17.029 -14.889  22.254  1.00  0.00     0.189 C 
HETATM    7  S1  UNL     1      16.023 -16.069  21.776  1.00  0.00    -0.039 SA
BRANCH   6   8
HETATM    8  N1  UNL     1      18.292 -15.165  22.795  1.00  0.00    -0.349 N 
BRANCH   8   9
HETATM    9  C2  UNL     1      19.512 -15.247  22.084  1.00  0.00     0.079 C 
HETATM   10  C1  UNL     1      19.640 -14.620  20.740  1.00  0.00     0.032 C 
HETATM   11  C3  UNL     1      20.140 -16.645  22.045  1.00  0.00     0.032 C 
ENDBRANCH   8   9
BRANCH   8  12
HETATM   12  C4  UNL     1      18.295 -15.353  24.263  1.00  0.00     0.167 C 
BRANCH  12  13
HETATM   13  C5  UNL     1      19.223 -14.440  24.944  1.00  0.00    -0.002 A 
HETATM   14  C6  UNL     1      19.832 -13.405  24.272  1.00  0.00     0.012 A 
HETATM   15  C7  UNL     1      20.733 -12.561  24.920  1.00  0.00     0.001 A 
HETATM   16  C8  UNL     1      21.035 -12.740  26.241  1.00  0.00     0.003 A 
HETATM   17  C9  UNL     1      20.444 -13.765  26.941  1.00  0.00     0.043 A 
HETATM   18  C10 UNL     1      19.557 -14.586  26.283  1.00  0.00     0.124 A 
HETATM   19  F1  UNL     1      18.969 -15.608  26.987  1.00  0.00    -0.205 F 
ENDBRANCH  12  13
ENDBRANCH   8  12
ENDBRANCH   6   8
ENDBRANCH   4   6
ENDBRANCH   1   4
BRANCH   3  20
HETATM   20  C13 UNL     1      15.571 -11.900  18.950  1.00  0.00    -0.007 A 
HETATM   21  C14 UNL     1      14.558 -11.665  18.065  1.00  0.00     0.014 A 
HETATM   22  C15 UNL     1      14.784 -11.390  16.705  1.00  0.00     0.001 A 
HETATM   23  C16 UNL     1      16.076 -11.351  16.229  1.00  0.00     0.000 A 
HETATM   24  C17 UNL     1      17.117 -11.585  17.115  1.00  0.00     0.001 A 
HETATM   25  C18 UNL     1      16.871 -11.852  18.437  1.00  0.00     0.014 A 
ENDBRANCH   3  20
BRANCH   3  26
HETATM   26  C19 UNL     1      14.243 -11.754  21.107  1.00  0.00    -0.005 A 
HETATM   27  C20 UNL     1      14.174 -10.421  21.415  1.00  0.00     0.031 A 
HETATM   28  C21 UNL     1      13.176  -9.935  22.230  1.00  0.00     0.093 A 
HETATM   29  N4  UNL     1      12.240 -10.736  22.748  1.00  0.00    -0.345 N 
HETATM   30  C23 UNL     1      12.287 -12.045  22.459  1.00  0.00     0.093 A 
HETATM   31  C24 UNL     1      13.279 -12.577  21.641  1.00  0.00     0.031 A 
BRANCH  29  32
HETATM   32  C22 UNL     1      11.188 -10.196  23.611  1.00  0.00     0.294 C 
BRANCH  32  33
HETATM   33  O1  UNL     1      10.461 -11.196  24.225  1.00  0.00    -0.382 OA
ATOM     34  H1  UNL     1      10.984 -11.683  24.850  1.00  0.00     0.211 HD
ENDBRANCH  32  33
ENDBRANCH  29  32
ENDBRANCH   3  26
TORSDOF 10
ENDMDL
MODEL 2
REMARK VINA RESULT: -8.907022389      1.320      1.547
REMARK  10 active torsions:
REMARK  status: ('A' for Active; 'I' for Inactive)
REMARK    1  A    between atoms: C2_2  and  N1_4 
REMARK    2  A    between atoms: N1_4  and  C4_5 
REMARK    3  A    between atoms: N1_4  and  C11_13 
REMARK    4  A    between atoms: C4_5  and  C5_6 
REMARK    5  A    between atoms: C11_13  and  N2_15 
REMARK    6  A    between atoms: N2_15  and  N3_17 
REMARK    7  A    between atoms: C12_19  and  C13_20 
REMARK    8  A    between atoms: C12_19  and  C19_26 
REMARK    9  A    between atoms: N4_29  and  C22_30 
REMARK   10  A    between atoms: C22_30  and  O1_31 
ROOT
HETATM    1  N3  UNL     1      15.847 -13.475  20.497  1.00  0.00    -0.297 N 
ATOM      2  H3  UNL     1      16.541 -13.738  19.797  1.00  0.00     0.187 HD
HETATM    3  C12 UNL     1      15.079 -12.507  20.133  1.00  0.00     0.068 C 
ENDROOT
BRANCH   1   4
HETATM    4  N2  UNL     1      15.907 -14.210  21.632  1.00  0.00    -0.276 N 
ATOM      5  H2  UNL     1      15.047 -14.351  22.163  1.00  0.00     0.189 HD
BRANCH   4   6
HETATM    6  C11 UNL     1      17.130 -14.808  22.133  1.00  0.00     0.189 C 
HETATM    7  S1  UNL     1      17.134 -16.431  22.121  1.00  0.00    -0.039 SA
BRANCH   6   8
HETATM    8  N1  UNL     1      18.234 -14.067  22.577  1.00  0.00    -0.349 N 
BRANCH   8   9
HETATM    9  C2  UNL     1      19.064 -13.238  21.787  1.00  0.00     0.079 C 
HETATM   10  C1  UNL     1      18.639 -11.850  21.456  1.00  0.00     0.032 C 
HETATM   11  C3  UNL     1      19.620 -13.904  20.524  1.00  0.00     0.032 C 
ENDBRANCH   8   9
BRANCH   8  12
HETATM   12  C4  UNL     1      18.494 -14.179  24.029  1.00  0.00     0.167 C 
BRANCH  12  13
HETATM   13  C5  UNL     1      19.916 -14.014  24.360  1.00  0.00    -0.002 A 
HETATM   14  C6  UNL     1      20.364 -12.926  25.073  1.00  0.00     0.012 A 
HETATM   15  C7  UNL     1      21.720 -12.763  25.358  1.00  0.00     0.001 A 
HETATM   16  C8  UNL     1      22.639 -13.682  24.934  1.00  0.00     0.003 A 
HETATM   17  C9  UNL     1      22.224 -14.780  24.219  1.00  0.00     0.043 A 
HETATM   18  C10 UNL     1      20.882 -14.922  23.949  1.00  0.00     0.124 A 
HETATM   19  F1  UNL     1      20.474 -16.021  23.234  1.00  0.00    -0.205 F 
ENDBRANCH  12  13
ENDBRANCH   8  12
ENDBRANCH   6   8
ENDBRANCH   4   6
ENDBRANCH   1   4
BRANCH   3  20
HETATM   20  C13 UNL     1      15.383 -12.007  18.785  1.00  0.00    -0.007 A 
HETATM   21  C14 UNL     1      14.438 -11.640  17.871  1.00  0.00     0.014 A 
HETATM   22  C15 UNL     1      14.762 -11.228  16.565  1.00  0.00     0.001 A 
HETATM   23  C16 UNL     1      16.083 -11.187  16.179  1.00  0.00     0.000 A 
HETATM   24  C17 UNL     1      17.056 -11.553  17.096  1.00  0.00     0.001 A 
HETATM   25  C18 UNL     1      16.715 -11.952  18.363  1.00  0.00     0.014 A 
ENDBRANCH   3  20
BRANCH   3  26
HETATM   26  C19 UNL     1      14.048 -11.900  20.941  1.00  0.00    -0.005 A 
HETATM   27  C20 UNL     1      14.157 -10.582  21.302  1.00  0.00     0.031 A 
HETATM   28  C21 UNL     1      13.255 -10.012  22.173  1.00  0.00     0.093 A 
HETATM   29  N4  UNL     1      12.244 -10.714  22.695  1.00  0.00    -0.345 N 
HETATM   30  C23 UNL     1      12.118 -12.005  22.355  1.00  0.00     0.093 A 
HETATM   31  C24 UNL     1      13.008 -12.620  21.481  1.00  0.00     0.031 A 
BRANCH  29  32
HETATM   32  C22 UNL     1      11.297 -10.086  23.618  1.00  0.00     0.294 C 
BRANCH  32  33
HETATM   33  O1  UNL     1      10.512 -11.018  24.266  1.00  0.00    -0.382 OA
ATOM     34  H1  UNL     1      10.413 -10.819  25.189  1.00  0.00     0.211 HD
ENDBRANCH  32  33
ENDBRANCH  29  32
ENDBRANCH   3  26
TORSDOF 10
ENDMDL
MODEL 3
REMARK VINA RESULT: -8.904817141      2.422      4.553
REMARK  10 active torsions:
REMARK  status: ('A' for Active; 'I' for Inactive)
REMARK    1  A    between atoms: C2_2  and  N1_4 
REMARK    2  A    between atoms: N1_4  and  C4_5 
REMARK    3  A    between atoms: N1_4  and  C11_13 
REMARK    4  A    between atoms: C4_5  and  C5_6 
REMARK    5  A    between atoms: C11_13  and  N2_15 
REMARK    6  A    between atoms: N2_15  and  N3_17 
REMARK    7  A    between atoms: C12_19  and  C13_20 
REMARK    8  A    between atoms: C12_19  and  C19_26 
REMARK    9  A    between atoms: N4_29  and  C22_30 
REMARK   10  A    between atoms: C22_30  and  O1_31 
ROOT
HETATM    1  N3  UNL     1      14.568 -14.107  21.457  1.00  0.00    -0.297 N 
ATOM      2  H3  UNL     1      14.009 -14.194  22.306  1.00  0.00     0.187 HD
HETATM    3  C12 UNL     1      14.487 -12.950  20.894  1.00  0.00     0.068 C 
ENDROOT
BRANCH   1   4
HETATM    4  N2  UNL     1      15.255 -15.228  21.134  1.00  0.00    -0.276 N 
ATOM      5  H2  UNL     1      14.961 -15.755  20.312  1.00  0.00     0.189 HD
BRANCH   4   6
HETATM    6  C11 UNL     1      16.389 -15.717  21.895  1.00  0.00     0.189 C 
HETATM    7  S1  UNL     1      16.118 -17.116  22.672  1.00  0.00    -0.039 SA
BRANCH   6   8
HETATM    8  N1  UNL     1      17.628 -15.065  21.954  1.00  0.00    -0.349 N 
BRANCH   8   9
HETATM    9  C2  UNL     1      18.781 -15.381  21.198  1.00  0.00     0.079 C 
HETATM   10  C1  UNL     1      19.787 -16.341  21.731  1.00  0.00     0.032 C 
HETATM   11  C3  UNL     1      19.511 -14.170  20.606  1.00  0.00     0.032 C 
ENDBRANCH   8   9
BRANCH   8  12
HETATM   12  C4  UNL     1      17.668 -13.923  22.894  1.00  0.00     0.167 C 
BRANCH  12  13
HETATM   13  C5  UNL     1      18.369 -14.249  24.143  1.00  0.00    -0.002 A 
HETATM   14  C6  UNL     1      17.795 -15.056  25.098  1.00  0.00     0.012 A 
HETATM   15  C7  UNL     1      18.457 -15.337  26.293  1.00  0.00     0.001 A 
HETATM   16  C8  UNL     1      19.695 -14.816  26.547  1.00  0.00     0.003 A 
HETATM   17  C9  UNL     1      20.295 -14.005  25.614  1.00  0.00     0.043 A 
HETATM   18  C10 UNL     1      19.626 -13.740  24.441  1.00  0.00     0.124 A 
HETATM   19  F1  UNL     1      20.232 -12.929  23.513  1.00  0.00    -0.205 F 
ENDBRANCH  12  13
ENDBRANCH   8  12
ENDBRANCH   6   8
ENDBRANCH   4   6
ENDBRANCH   1   4
BRANCH   3  20
HETATM   20  C13 UNL     1      13.605 -12.021  21.613  1.00  0.00    -0.007 A 
HETATM   21  C14 UNL     1      12.460 -12.393  22.258  1.00  0.00     0.014 A 
HETATM   22  C15 UNL     1      11.603 -11.467  22.881  1.00  0.00     0.001 A 
HETATM   23  C16 UNL     1      11.919 -10.127  22.849  1.00  0.00     0.000 A 
HETATM   24  C17 UNL     1      13.079  -9.733  22.200  1.00  0.00     0.001 A 
HETATM   25  C18 UNL     1      13.899 -10.654  21.600  1.00  0.00     0.014 A 
ENDBRANCH   3  20
BRANCH   3  26
HETATM   26  C19 UNL     1      15.128 -12.567  19.658  1.00  0.00    -0.005 A 
HETATM   27  C20 UNL     1      16.484 -12.369  19.630  1.00  0.00     0.031 A 
HETATM   28  C21 UNL     1      17.103 -11.884  18.500  1.00  0.00     0.093 A 
HETATM   29  N4  UNL     1      16.413 -11.591  17.393  1.00  0.00    -0.345 N 
HETATM   30  C23 UNL     1      15.085 -11.778  17.397  1.00  0.00     0.093 A 
HETATM   31  C24 UNL     1      14.421 -12.265  18.519  1.00  0.00     0.031 A 
BRANCH  29  32
HETATM   32  C22 UNL     1      17.094 -11.078  16.203  1.00  0.00     0.294 C 
BRANCH  32  33
HETATM   33  O1  UNL     1      16.954  -9.710  16.078  1.00  0.00    -0.382 OA
ATOM     34  H1  UNL     1      17.533  -9.353  15.415  1.00  0.00     0.211 HD
ENDBRANCH  32  33
ENDBRANCH  29  32
ENDBRANCH   3  26
TORSDOF 10
ENDMDL
MODEL 4
REMARK VINA RESULT: -8.779776502      1.155      1.661
REMARK  10 active torsions:
REMARK  status: ('A' for Active; 'I' for Inactive)
REMARK    1  A    between atoms: C2_2  and  N1_4 
REMARK    2  A    between atoms: N1_4  and  C4_5 
REMARK    3  A    between atoms: N1_4  and  C11_13 
REMARK    4  A    between atoms: C4_5  and  C5_6 
REMARK    5  A    between atoms: C11_13  and  N2_15 
REMARK    6  A    between atoms: N2_15  and  N3_17 
REMARK    7  A    between atoms: C12_19  and  C13_20 
REMARK    8  A    between atoms: C12_19  and  C19_26 
REMARK    9  A    between atoms: N4_29  and  C22_30 
REMARK   10  A    between atoms: C22_30  and  O1_31 
ROOT
HETATM    1  N3  UNL     1      15.376 -13.804  20.238  1.00  0.00    -0.297 N 
ATOM      2  H3  UNL     1      16.051 -14.094  19.529  1.00  0.00     0.187 HD
HETATM    3  C12 UNL     1      14.786 -12.689  19.973  1.00  0.00     0.068 C 
ENDROOT
BRANCH   1   4
HETATM    4  N2  UNL     1      15.271 -14.663  21.278  1.00  0.00    -0.276 N 
ATOM      5  H2  UNL     1      14.350 -14.808  21.694  1.00  0.00     0.189 HD
BRANCH   4   6
HETATM    6  C11 UNL     1      16.397 -15.389  21.833  1.00  0.00     0.189 C 
HETATM    7  S1  UNL     1      16.057 -16.913  22.277  1.00  0.00    -0.039 SA
BRANCH   6   8
HETATM    8  N1  UNL     1      17.684 -14.849  21.965  1.00  0.00    -0.349 N 
BRANCH   8   9
HETATM    9  C2  UNL     1      18.833 -15.224  21.231  1.00  0.00     0.079 C 
HETATM   10  C1  UNL     1      19.788 -16.219  21.792  1.00  0.00     0.032 C 
HETATM   11  C3  UNL     1      19.623 -14.055  20.634  1.00  0.00     0.032 C 
ENDBRANCH   8   9
BRANCH   8  12
HETATM   12  C4  UNL     1      17.784 -13.762  22.964  1.00  0.00     0.167 C 
BRANCH  12  13
HETATM   13  C5  UNL     1      18.423 -14.204  24.211  1.00  0.00    -0.002 A 
HETATM   14  C6  UNL     1      17.778 -15.046  25.087  1.00  0.00     0.012 A 
HETATM   15  C7  UNL     1      18.381 -15.437  26.282  1.00  0.00     0.001 A 
HETATM   16  C8  UNL     1      19.631 -14.993  26.614  1.00  0.00     0.003 A 
HETATM   17  C9  UNL     1      20.302 -14.151  25.761  1.00  0.00     0.043 A 
HETATM   18  C10 UNL     1      19.690 -13.776  24.586  1.00  0.00     0.124 A 
HETATM   19  F1  UNL     1      20.365 -12.934  23.738  1.00  0.00    -0.205 F 
ENDBRANCH  12  13
ENDBRANCH   8  12
ENDBRANCH   6   8
ENDBRANCH   4   6
ENDBRANCH   1   4
BRANCH   3  20
HETATM   20  C13 UNL     1      15.224 -12.094  18.703  1.00  0.00    -0.007 A 
HETATM   21  C14 UNL     1      14.375 -11.618  17.745  1.00  0.00     0.014 A 
HETATM   22  C15 UNL     1      14.827 -11.116  16.512  1.00  0.00     0.001 A 
HETATM   23  C16 UNL     1      16.177 -11.094  16.244  1.00  0.00     0.000 A 
HETATM   24  C17 UNL     1      17.053 -11.572  17.207  1.00  0.00     0.001 A 
HETATM   25  C18 UNL     1      16.589 -12.058  18.402  1.00  0.00     0.014 A 
ENDBRANCH   3  20
BRANCH   3  26
HETATM   26  C19 UNL     1      13.829 -12.020  20.822  1.00  0.00    -0.005 A 
HETATM   27  C20 UNL     1      14.087 -10.749  21.264  1.00  0.00     0.031 A 
HETATM   28  C21 UNL     1      13.253 -10.135  22.172  1.00  0.00     0.093 A 
HETATM   29  N4  UNL     1      12.168 -10.748  22.655  1.00  0.00    -0.345 N 
HETATM   30  C23 UNL     1      11.896 -11.993  22.235  1.00  0.00     0.093 A 
HETATM   31  C24 UNL     1      12.713 -12.649  21.320  1.00  0.00     0.031 A 
BRANCH  29  32
HETATM   32  C22 UNL     1      11.296 -10.075  23.619  1.00  0.00     0.294 C 
BRANCH  32  33
HETATM   33  O1  UNL     1      10.493 -10.968  24.300  1.00  0.00    -0.382 OA
ATOM     34  H1  UNL     1      10.446 -10.767  25.227  1.00  0.00     0.211 HD
ENDBRANCH  32  33
ENDBRANCH  29  32
ENDBRANCH   3  26
TORSDOF 10
ENDMDL
MODEL 5
REMARK VINA RESULT: -8.716667274      2.663      4.729
REMARK  10 active torsions:
REMARK  status: ('A' for Active; 'I' for Inactive)
REMARK    1  A    between atoms: C2_2  and  N1_4 
REMARK    2  A    between atoms: N1_4  and  C4_5 
REMARK    3  A    between atoms: N1_4  and  C11_13 
REMARK    4  A    between atoms: C4_5  and  C5_6 
REMARK    5  A    between atoms: C11_13  and  N2_15 
REMARK    6  A    between atoms: N2_15  and  N3_17 
REMARK    7  A    between atoms: C12_19  and  C13_20 
REMARK    8  A    between atoms: C12_19  and  C19_26 
REMARK    9  A    between atoms: N4_29  and  C22_30 
REMARK   10  A    between atoms: C22_30  and  O1_31 
ROOT
HETATM    1  N3  UNL     1      15.651 -13.237  20.715  1.00  0.00    -0.297 N 
ATOM      2  H3  UNL     1      15.271 -13.346  21.656  1.00  0.00     0.187 HD
HETATM    3  C12 UNL     1      15.097 -12.292  20.035  1.00  0.00     0.068 C 
ENDROOT
BRANCH   1   4
HETATM    4  N2  UNL     1      16.640 -14.110  20.417  1.00  0.00    -0.276 N 
ATOM      5  H2  UNL     1      16.733 -14.424  19.451  1.00  0.00     0.189 HD
BRANCH   4   6
HETATM    6  C11 UNL     1      17.577 -14.622  21.399  1.00  0.00     0.189 C 
HETATM    7  S1  UNL     1      17.019 -15.878  22.262  1.00  0.00    -0.039 SA
BRANCH   6   8
HETATM    8  N1  UNL     1      18.866 -14.106  21.589  1.00  0.00    -0.349 N 
BRANCH   8   9
HETATM    9  C2  UNL     1      19.368 -12.887  21.079  1.00  0.00     0.079 C 
HETATM   10  C1  UNL     1      18.616 -11.620  21.289  1.00  0.00     0.032 C 
HETATM   11  C3  UNL     1      19.845 -12.949  19.623  1.00  0.00     0.032 C 
ENDBRANCH   8   9
BRANCH   8  12
HETATM   12  C4  UNL     1      19.735 -14.948  22.441  1.00  0.00     0.167 C 
BRANCH  12  13
HETATM   13  C5  UNL     1      20.370 -14.184  23.524  1.00  0.00    -0.002 A 
HETATM   14  C6  UNL     1      21.713 -13.888  23.500  1.00  0.00     0.012 A 
HETATM   15  C7  UNL     1      22.313 -13.187  24.545  1.00  0.00     0.001 A 
HETATM   16  C8  UNL     1      21.580 -12.774  25.623  1.00  0.00     0.003 A 
HETATM   17  C9  UNL     1      20.236 -13.054  25.678  1.00  0.00     0.043 A 
HETATM   18  C10 UNL     1      19.663 -13.747  24.636  1.00  0.00     0.124 A 
HETATM   19  F1  UNL     1      18.319 -14.023  24.696  1.00  0.00    -0.205 F 
ENDBRANCH  12  13
ENDBRANCH   8  12
ENDBRANCH   6   8
ENDBRANCH   4   6
ENDBRANCH   1   4
BRANCH   3  20
HETATM   20  C13 UNL     1      14.044 -11.589  20.781  1.00  0.00    -0.007 A 
HETATM   21  C14 UNL     1      14.166 -10.320  21.271  1.00  0.00     0.014 A 
HETATM   22  C15 UNL     1      13.163  -9.701  22.038  1.00  0.00     0.001 A 
HETATM   23  C16 UNL     1      12.002 -10.389  22.313  1.00  0.00     0.000 A 
HETATM   24  C17 UNL     1      11.860 -11.678  21.821  1.00  0.00     0.001 A 
HETATM   25  C18 UNL     1      12.853 -12.260  21.076  1.00  0.00     0.014 A 
ENDBRANCH   3  20
BRANCH   3  26
HETATM   26  C19 UNL     1      15.398 -11.951  18.665  1.00  0.00    -0.005 A 
HETATM   27  C20 UNL     1      16.705 -11.844  18.265  1.00  0.00     0.031 A 
HETATM   28  C21 UNL     1      17.021 -11.400  17.000  1.00  0.00     0.093 A 
HETATM   29  N4  UNL     1      16.075 -11.060  16.119  1.00  0.00    -0.345 N 
HETATM   30  C23 UNL     1      14.790 -11.157  16.489  1.00  0.00     0.093 A 
HETATM   31  C24 UNL     1      14.428 -11.600  17.757  1.00  0.00     0.031 A 
BRANCH  29  32
HETATM   32  C22 UNL     1      16.436 -10.591  14.780  1.00  0.00     0.294 C 
BRANCH  32  33
HETATM   33  O1  UNL     1      17.669  -9.969  14.766  1.00  0.00    -0.382 OA
ATOM     34  H1  UNL     1      17.887  -9.634  13.904  1.00  0.00     0.211 HD
ENDBRANCH  32  33
ENDBRANCH  29  32
ENDBRANCH   3  26
TORSDOF 10
ENDMDL
