MODEL 1
REMARK VINA RESULT: -4.890760910      0.000      0.000
REMARK  5 active torsions:
REMARK  status: ('A' for Active; 'I' for Inactive)
REMARK    1  A    between atoms: N2_4  and  N3_6 
REMARK    2  A    between atoms: C1_8  and  C2_9 
REMARK    3  A    between atoms: C2_9  and  S1_10 
REMARK    4  A    between atoms: S1_10  and  C3_12 
REMARK    5  A    between atoms: C3_12  and  C4_13 
ROOT
HETATM    1  N3  UNL     1      30.899  14.553 -60.814  1.00  0.00    -0.301 N 
ATOM      2  H3  UNL     1      31.090  14.447 -61.811  1.00  0.00     0.187 HD
HETATM    3  C1  UNL     1      29.957  15.337 -60.468  1.00  0.00     0.094 C 
ENDROOT
BRANCH   3   4
HETATM    4  C2  UNL     1      29.603  15.557 -59.038  1.00  0.00     0.155 C 
BRANCH   4   5
HETATM    5  S1  UNL     1      28.337  14.418 -58.526  1.00  0.00     0.024 S 
HETATM    6  O1  UNL     1      29.094  12.930 -58.280  1.00  0.00    -0.257 OA
BRANCH   5   7
HETATM    7  C3  UNL     1      27.716  14.964 -56.935  1.00  0.00     0.152 C 
BRANCH   7   8
HETATM    8  C4  UNL     1      27.342  13.801 -56.089  1.00  0.00     0.065 C 
HETATM    9  N4  UNL     1      26.640  13.972 -55.033  1.00  0.00    -0.410 N 
ATOM     10  H42 UNL     1      26.345  14.917 -54.785  1.00  0.00     0.155 HD
ATOM     11  H41 UNL     1      26.383  13.175 -54.452  1.00  0.00     0.155 HD
ENDBRANCH   7   8
ENDBRANCH   5   7
ENDBRANCH   4   5
ENDBRANCH   3   4
BRANCH   1  12
HETATM   12  N2  UNL     1      31.685  13.833 -59.922  1.00  0.00    -0.250 N 
HETATM   13  N1  UNL     1      32.539  13.018 -60.389  1.00  0.00    -0.331 N 
ATOM     14  H12 UNL     1      32.634  12.906 -61.399  1.00  0.00     0.178 HD
ATOM     15  H11 UNL     1      33.116  12.489 -59.735  1.00  0.00     0.178 HD
ATOM     16  H2  UNL     1      31.579  13.956 -58.915  1.00  0.00     0.207 HD
ENDBRANCH   1  12
TORSDOF 5
ENDMDL
MODEL 2
REMARK VINA RESULT: -4.314513302      1.925      5.494
REMARK  5 active torsions:
REMARK  status: ('A' for Active; 'I' for Inactive)
REMARK    1  A    between atoms: N2_4  and  N3_6 
REMARK    2  A    between atoms: C1_8  and  C2_9 
REMARK    3  A    between atoms: C2_9  and  S1_10 
REMARK    4  A    between atoms: S1_10  and  C3_12 
REMARK    5  A    between atoms: C3_12  and  C4_13 
ROOT
HETATM    1  N3  UNL     1      27.684  15.496 -55.774  1.00  0.00    -0.301 N 
ATOM      2  H3  UNL     1      27.750  16.311 -55.164  1.00  0.00     0.187 HD
HETATM    3  C1  UNL     1      28.084  15.618 -56.977  1.00  0.00     0.094 C 
ENDROOT
BRANCH   3   4
HETATM    4  C2  UNL     1      28.029  14.486 -57.943  1.00  0.00     0.155 C 
BRANCH   4   5
HETATM    5  S1  UNL     1      29.049  14.823 -59.360  1.00  0.00     0.024 S 
HETATM    6  O1  UNL     1      29.700  16.364 -59.134  1.00  0.00    -0.257 OA
BRANCH   5   7
HETATM    7  C3  UNL     1      30.417  13.666 -59.343  1.00  0.00     0.152 C 
BRANCH   7   8
HETATM    8  C4  UNL     1      31.180  13.733 -60.616  1.00  0.00     0.065 C 
HETATM    9  N4  UNL     1      31.288  14.842 -61.245  1.00  0.00    -0.410 N 
ATOM     10  H42 UNL     1      30.841  15.674 -60.857  1.00  0.00     0.155 HD
ATOM     11  H41 UNL     1      31.812  14.889 -62.118  1.00  0.00     0.155 HD
ENDBRANCH   7   8
ENDBRANCH   5   7
ENDBRANCH   4   5
ENDBRANCH   3   4
BRANCH   1  12
HETATM   12  N2  UNL     1      27.164  14.323 -55.238  1.00  0.00    -0.250 N 
HETATM   13  N1  UNL     1      26.574  14.379 -54.116  1.00  0.00    -0.331 N 
ATOM     14  H12 UNL     1      26.492  15.273 -53.631  1.00  0.00     0.178 HD
ATOM     15  H11 UNL     1      26.192  13.519 -53.722  1.00  0.00     0.178 HD
ATOM     16  H2  UNL     1      27.254  13.437 -55.736  1.00  0.00     0.207 HD
ENDBRANCH   1  12
TORSDOF 5
ENDMDL
MODEL 3
REMARK VINA RESULT: -4.293002221      8.991     11.073
REMARK  5 active torsions:
REMARK  status: ('A' for Active; 'I' for Inactive)
REMARK    1  A    between atoms: N2_4  and  N3_6 
REMARK    2  A    between atoms: C1_8  and  C2_9 
REMARK    3  A    between atoms: C2_9  and  S1_10 
REMARK    4  A    between atoms: S1_10  and  C3_12 
REMARK    5  A    between atoms: C3_12  and  C4_13 
ROOT
HETATM    1  N3  UNL     1      22.763  15.547 -48.958  1.00  0.00    -0.301 N 
ATOM      2  H3  UNL     1      22.654  14.651 -48.481  1.00  0.00     0.187 HD
HETATM    3  C1  UNL     1      23.458  16.447 -48.384  1.00  0.00     0.094 C 
ENDROOT
BRANCH   3   4
HETATM    4  C2  UNL     1      23.674  17.785 -49.000  1.00  0.00     0.155 C 
BRANCH   4   5
HETATM    5  S1  UNL     1      25.054  17.740 -50.121  1.00  0.00     0.024 S 
HETATM    6  O1  UNL     1      24.699  16.566 -51.281  1.00  0.00    -0.257 OA
BRANCH   5   7
HETATM    7  C3  UNL     1      25.124  19.317 -50.972  1.00  0.00     0.152 C 
BRANCH   7   8
HETATM    8  C4  UNL     1      25.831  19.183 -52.272  1.00  0.00     0.065 C 
HETATM    9  N4  UNL     1      25.282  18.554 -53.242  1.00  0.00    -0.410 N 
ATOM     10  H42 UNL     1      24.356  18.149 -53.105  1.00  0.00     0.155 HD
ATOM     11  H41 UNL     1      25.767  18.463 -54.134  1.00  0.00     0.155 HD
ENDBRANCH   7   8
ENDBRANCH   5   7
ENDBRANCH   4   5
ENDBRANCH   3   4
BRANCH   1  12
HETATM   12  N2  UNL     1      22.143  15.705 -50.192  1.00  0.00    -0.250 N 
HETATM   13  N1  UNL     1      22.429  14.892 -51.123  1.00  0.00    -0.331 N 
ATOM     14  H12 UNL     1      23.101  14.143 -50.953  1.00  0.00     0.178 HD
ATOM     15  H11 UNL     1      21.974  15.008 -52.029  1.00  0.00     0.178 HD
ATOM     16  H2  UNL     1      21.472  16.458 -50.346  1.00  0.00     0.207 HD
ENDBRANCH   1  12
TORSDOF 5
ENDMDL
MODEL 4
REMARK VINA RESULT: -4.230749839      1.863      2.007
REMARK  5 active torsions:
REMARK  status: ('A' for Active; 'I' for Inactive)
REMARK    1  A    between atoms: N2_4  and  N3_6 
REMARK    2  A    between atoms: C1_8  and  C2_9 
REMARK    3  A    between atoms: C2_9  and  S1_10 
REMARK    4  A    between atoms: S1_10  and  C3_12 
REMARK    5  A    between atoms: C3_12  and  C4_13 
ROOT
HETATM    1  N3  UNL     1      30.762  14.630 -60.059  1.00  0.00    -0.301 N 
ATOM      2  H3  UNL     1      31.202  15.274 -60.717  1.00  0.00     0.187 HD
HETATM    3  C1  UNL     1      29.579  14.896 -59.665  1.00  0.00     0.094 C 
ENDROOT
BRANCH   3   4
HETATM    4  C2  UNL     1      28.853  14.017 -58.707  1.00  0.00     0.155 C 
BRANCH   4   5
HETATM    5  S1  UNL     1      27.822  14.985 -57.630  1.00  0.00     0.024 S 
HETATM    6  O1  UNL     1      27.798  14.194 -56.139  1.00  0.00    -0.257 OA
BRANCH   5   7
HETATM    7  C3  UNL     1      28.624  16.568 -57.374  1.00  0.00     0.152 C 
BRANCH   7   8
HETATM    8  C4  UNL     1      28.046  17.268 -56.198  1.00  0.00     0.065 C 
HETATM    9  N4  UNL     1      28.153  16.759 -55.029  1.00  0.00    -0.410 N 
ATOM     10  H42 UNL     1      28.640  15.870 -54.921  1.00  0.00     0.155 HD
ATOM     11  H41 UNL     1      27.757  17.240 -54.222  1.00  0.00     0.155 HD
ENDBRANCH   7   8
ENDBRANCH   5   7
ENDBRANCH   4   5
ENDBRANCH   3   4
BRANCH   1  12
HETATM   12  N2  UNL     1      31.491  13.519 -59.649  1.00  0.00    -0.250 N 
HETATM   13  N1  UNL     1      32.411  13.085 -60.408  1.00  0.00    -0.331 N 
ATOM     14  H12 UNL     1      32.598  13.552 -61.296  1.00  0.00     0.178 HD
ATOM     15  H11 UNL     1      32.946  12.270 -60.108  1.00  0.00     0.178 HD
ATOM     16  H2  UNL     1      31.292  13.064 -58.758  1.00  0.00     0.207 HD
ENDBRANCH   1  12
TORSDOF 5
ENDMDL
MODEL 5
REMARK VINA RESULT: -4.124431172     10.085     11.017
REMARK  5 active torsions:
REMARK  status: ('A' for Active; 'I' for Inactive)
REMARK    1  A    between atoms: N2_4  and  N3_6 
REMARK    2  A    between atoms: C1_8  and  C2_9 
REMARK    3  A    between atoms: C2_9  and  S1_10 
REMARK    4  A    between atoms: S1_10  and  C3_12 
REMARK    5  A    between atoms: C3_12  and  C4_13 
ROOT
HETATM    1  N3  UNL     1      24.265  16.238 -51.874  1.00  0.00    -0.301 N 
ATOM      2  H3  UNL     1      24.581  16.216 -52.844  1.00  0.00     0.187 HD
HETATM    3  C1  UNL     1      24.750  17.135 -51.110  1.00  0.00     0.094 C 
ENDROOT
BRANCH   3   4
HETATM    4  C2  UNL     1      24.349  17.248 -49.680  1.00  0.00     0.155 C 
BRANCH   4   5
HETATM    5  S1  UNL     1      24.561  18.917 -49.102  1.00  0.00     0.024 S 
HETATM    6  O1  UNL     1      24.682  18.837 -47.421  1.00  0.00    -0.257 OA
BRANCH   5   7
HETATM    7  C3  UNL     1      26.135  19.516 -49.716  1.00  0.00     0.152 C 
BRANCH   7   8
HETATM    8  C4  UNL     1      27.192  19.377 -48.681  1.00  0.00     0.065 C 
HETATM    9  N4  UNL     1      27.473  18.225 -48.199  1.00  0.00    -0.410 N 
ATOM     10  H42 UNL     1      26.959  17.411 -48.536  1.00  0.00     0.155 HD
ATOM     11  H41 UNL     1      28.199  18.129 -47.489  1.00  0.00     0.155 HD
ENDBRANCH   7   8
ENDBRANCH   5   7
ENDBRANCH   4   5
ENDBRANCH   3   4
BRANCH   1  12
HETATM   12  N2  UNL     1      23.333  15.288 -51.473  1.00  0.00    -0.250 N 
HETATM   13  N1  UNL     1      22.148  15.374 -51.920  1.00  0.00    -0.331 N 
ATOM     14  H12 UNL     1      21.902  16.130 -52.560  1.00  0.00     0.178 HD
ATOM     15  H11 UNL     1      21.464  14.677 -51.626  1.00  0.00     0.178 HD
ATOM     16  H2  UNL     1      23.595  14.538 -50.833  1.00  0.00     0.207 HD
ENDBRANCH   1  12
TORSDOF 5
ENDMDL
