MODEL 1
REMARK VINA RESULT: -5.412607013      0.000      0.000
REMARK  5 active torsions:
REMARK  status: ('A' for Active; 'I' for Inactive)
REMARK    1  A    between atoms: N2_4  and  N3_6 
REMARK    2  A    between atoms: C1_8  and  C2_9 
REMARK    3  A    between atoms: C2_9  and  N4_10 
REMARK    4  A    between atoms: N4_10  and  C3_12 
REMARK    5  A    between atoms: C3_12  and  C4_13 
ROOT
HETATM    1  C2  UNL     1      29.223  13.705 -58.881  1.00  0.00     0.160 C 
ENDROOT
BRANCH   1   2
HETATM    2  C1  UNL     1      29.933  14.679 -59.774  1.00  0.00     0.100 C 
HETATM    3  N3  UNL     1      31.057  14.395 -60.328  1.00  0.00    -0.300 N 
ATOM      4  H3  UNL     1      31.495  15.095 -60.925  1.00  0.00     0.187 HD
BRANCH   3   5
HETATM    5  N2  UNL     1      31.706  13.167 -60.148  1.00  0.00    -0.250 N 
HETATM    6  N1  UNL     1      32.891  12.946 -60.547  1.00  0.00    -0.331 N 
ATOM      7  H12 UNL     1      33.378  13.708 -61.019  1.00  0.00     0.178 HD
ATOM      8  H11 UNL     1      33.363  12.051 -60.416  1.00  0.00     0.178 HD
ATOM      9  H2  UNL     1      31.204  12.416 -59.674  1.00  0.00     0.207 HD
ENDBRANCH   3   5
ENDBRANCH   1   2
BRANCH   1  10
HETATM   10  N4  UNL     1      27.987  14.277 -58.416  1.00  0.00    -0.412 N 
ATOM     11  H4  UNL     1      27.088  13.977 -58.793  1.00  0.00     0.153 HD
BRANCH  10  12
HETATM   12  C3  UNL     1      28.071  15.269 -57.417  1.00  0.00     0.170 C 
BRANCH  12  13
HETATM   13  C4  UNL     1      27.670  14.795 -56.026  1.00  0.00     0.020 A 
HETATM   14  C5  UNL     1      27.156  13.704 -55.541  1.00  0.00     0.019 A 
HETATM   15  C6  UNL     1      27.157  14.212 -54.191  1.00  0.00     0.148 A 
HETATM   16  N5  UNL     1      27.755  15.371 -54.753  1.00  0.00    -0.389 N 
ATOM     17  H5  UNL     1      28.102  16.255 -54.382  1.00  0.00     0.159 HD
ENDBRANCH  12  13
ENDBRANCH  10  12
ENDBRANCH   1  10
TORSDOF 5
ENDMDL
MODEL 2
REMARK VINA RESULT: -5.084212441      4.153      5.598
REMARK  5 active torsions:
REMARK  status: ('A' for Active; 'I' for Inactive)
REMARK    1  A    between atoms: N2_4  and  N3_6 
REMARK    2  A    between atoms: C1_8  and  C2_9 
REMARK    3  A    between atoms: C2_9  and  N4_10 
REMARK    4  A    between atoms: N4_10  and  C3_12 
REMARK    5  A    between atoms: C3_12  and  C4_13 
ROOT
HETATM    1  C2  UNL     1      28.867  18.807 -56.265  1.00  0.00     0.160 C 
ENDROOT
BRANCH   1   2
HETATM    2  C1  UNL     1      28.778  19.111 -57.730  1.00  0.00     0.100 C 
HETATM    3  N3  UNL     1      28.751  20.317 -58.171  1.00  0.00    -0.300 N 
ATOM      4  H3  UNL     1      28.689  20.467 -59.178  1.00  0.00     0.187 HD
BRANCH   3   5
HETATM    5  N2  UNL     1      28.802  21.437 -57.330  1.00  0.00    -0.250 N 
HETATM    6  N1  UNL     1      28.376  22.581 -57.676  1.00  0.00    -0.331 N 
ATOM      7  H12 UNL     1      27.982  22.673 -58.612  1.00  0.00     0.178 HD
ATOM      8  H11 UNL     1      28.414  23.396 -57.064  1.00  0.00     0.178 HD
ATOM      9  H2  UNL     1      29.200  21.327 -56.398  1.00  0.00     0.207 HD
ENDBRANCH   3   5
ENDBRANCH   1   2
BRANCH   1  10
HETATM   10  N4  UNL     1      27.922  17.777 -55.919  1.00  0.00    -0.412 N 
ATOM     11  H4  UNL     1      26.999  17.737 -56.352  1.00  0.00     0.153 HD
BRANCH  10  12
HETATM   12  C3  UNL     1      28.325  16.828 -54.957  1.00  0.00     0.170 C 
BRANCH  12  13
HETATM   13  C4  UNL     1      27.782  15.424 -55.195  1.00  0.00     0.020 A 
HETATM   14  C5  UNL     1      27.522  14.401 -54.438  1.00  0.00     0.019 A 
HETATM   15  C6  UNL     1      27.072  13.596 -55.547  1.00  0.00     0.148 A 
HETATM   16  N5  UNL     1      27.330  14.749 -56.335  1.00  0.00    -0.389 N 
ATOM     17  H5  UNL     1      27.228  14.986 -57.321  1.00  0.00     0.159 HD
ENDBRANCH  12  13
ENDBRANCH  10  12
ENDBRANCH   1  10
TORSDOF 5
ENDMDL
MODEL 3
REMARK VINA RESULT: -5.015812102      1.318      1.806
REMARK  5 active torsions:
REMARK  status: ('A' for Active; 'I' for Inactive)
REMARK    1  A    between atoms: N2_4  and  N3_6 
REMARK    2  A    between atoms: C1_8  and  C2_9 
REMARK    3  A    between atoms: C2_9  and  N4_10 
REMARK    4  A    between atoms: N4_10  and  C3_12 
REMARK    5  A    between atoms: C3_12  and  C4_13 
ROOT
HETATM    1  C2  UNL     1      29.074  14.009 -58.839  1.00  0.00     0.160 C 
ENDROOT
BRANCH   1   2
HETATM    2  C1  UNL     1      29.803  14.902 -59.799  1.00  0.00     0.100 C 
HETATM    3  N3  UNL     1      30.990  14.631 -60.207  1.00  0.00    -0.300 N 
ATOM      4  H3  UNL     1      31.439  15.273 -60.860  1.00  0.00     0.187 HD
BRANCH   3   5
HETATM    5  N2  UNL     1      31.696  13.493 -59.796  1.00  0.00    -0.250 N 
HETATM    6  N1  UNL     1      32.598  12.945 -60.502  1.00  0.00    -0.331 N 
ATOM      7  H12 UNL     1      32.804  13.365 -61.409  1.00  0.00     0.178 HD
ATOM      8  H11 UNL     1      33.111  12.117 -60.203  1.00  0.00     0.178 HD
ATOM      9  H2  UNL     1      31.476  13.087 -58.887  1.00  0.00     0.207 HD
ENDBRANCH   3   5
ENDBRANCH   1   2
BRANCH   1  10
HETATM   10  N4  UNL     1      27.914  14.688 -58.323  1.00  0.00    -0.412 N 
ATOM     11  H4  UNL     1      27.240  15.135 -58.944  1.00  0.00     0.153 HD
BRANCH  10  12
HETATM   12  C3  UNL     1      27.749  14.709 -56.922  1.00  0.00     0.170 C 
BRANCH  12  13
HETATM   13  C4  UNL     1      28.017  16.064 -56.279  1.00  0.00     0.020 A 
HETATM   14  C5  UNL     1      28.354  17.239 -56.720  1.00  0.00     0.019 A 
HETATM   15  C6  UNL     1      28.362  17.818 -55.400  1.00  0.00     0.148 A 
HETATM   16  N5  UNL     1      27.953  16.531 -54.961  1.00  0.00    -0.389 N 
ATOM     17  H5  UNL     1      27.714  16.118 -54.060  1.00  0.00     0.159 HD
ENDBRANCH  12  13
ENDBRANCH  10  12
ENDBRANCH   1  10
TORSDOF 5
ENDMDL
MODEL 4
REMARK VINA RESULT: -4.851586846      2.377      6.359
REMARK  5 active torsions:
REMARK  status: ('A' for Active; 'I' for Inactive)
REMARK    1  A    between atoms: N2_4  and  N3_6 
REMARK    2  A    between atoms: C1_8  and  C2_9 
REMARK    3  A    between atoms: C2_9  and  N4_10 
REMARK    4  A    between atoms: N4_10  and  C3_12 
REMARK    5  A    between atoms: C3_12  and  C4_13 
ROOT
HETATM    1  C2  UNL     1      29.305  15.701 -59.098  1.00  0.00     0.160 C 
ENDROOT
BRANCH   1   2
HETATM    2  C1  UNL     1      28.544  14.522 -58.568  1.00  0.00     0.100 C 
HETATM    3  N3  UNL     1      27.884  14.581 -57.468  1.00  0.00    -0.300 N 
ATOM      4  H3  UNL     1      27.385  13.749 -57.155  1.00  0.00     0.187 HD
BRANCH   3   5
HETATM    5  N2  UNL     1      27.818  15.737 -56.680  1.00  0.00    -0.250 N 
HETATM    6  N1  UNL     1      27.838  15.711 -55.411  1.00  0.00    -0.331 N 
ATOM      7  H12 UNL     1      27.904  14.799 -54.961  1.00  0.00     0.178 HD
ATOM      8  H11 UNL     1      27.790  16.553 -54.838  1.00  0.00     0.178 HD
ATOM      9  H2  UNL     1      27.752  16.641 -57.148  1.00  0.00     0.207 HD
ENDBRANCH   3   5
ENDBRANCH   1   2
BRANCH   1  10
HETATM   10  N4  UNL     1      30.044  15.320 -60.273  1.00  0.00    -0.412 N 
ATOM     11  H4  UNL     1      30.089  15.926 -61.093  1.00  0.00     0.153 HD
BRANCH  10  12
HETATM   12  C3  UNL     1      30.705  14.074 -60.244  1.00  0.00     0.170 C 
BRANCH  12  13
HETATM   13  C4  UNL     1      31.865  13.955 -61.225  1.00  0.00     0.020 A 
HETATM   14  C5  UNL     1      33.065  13.459 -61.170  1.00  0.00     0.019 A 
HETATM   15  C6  UNL     1      33.359  13.820 -62.535  1.00  0.00     0.148 A 
HETATM   16  N5  UNL     1      32.028  14.312 -62.568  1.00  0.00    -0.389 N 
ATOM     17  H5  UNL     1      31.437  14.746 -63.277  1.00  0.00     0.159 HD
ENDBRANCH  12  13
ENDBRANCH  10  12
ENDBRANCH   1  10
TORSDOF 5
ENDMDL
MODEL 5
REMARK VINA RESULT: -4.830260199      3.968      6.979
REMARK  5 active torsions:
REMARK  status: ('A' for Active; 'I' for Inactive)
REMARK    1  A    between atoms: N2_4  and  N3_6 
REMARK    2  A    between atoms: C1_8  and  C2_9 
REMARK    3  A    between atoms: C2_9  and  N4_10 
REMARK    4  A    between atoms: N4_10  and  C3_12 
REMARK    5  A    between atoms: C3_12  and  C4_13 
ROOT
HETATM    1  C2  UNL     1      27.321  19.089 -54.478  1.00  0.00     0.160 C 
ENDROOT
BRANCH   1   2
HETATM    2  C1  UNL     1      25.887  19.515 -54.369  1.00  0.00     0.100 C 
HETATM    3  N3  UNL     1      25.047  18.884 -53.629  1.00  0.00    -0.300 N 
ATOM      4  H3  UNL     1      24.085  19.217 -53.592  1.00  0.00     0.187 HD
BRANCH   3   5
HETATM    5  N2  UNL     1      25.395  17.759 -52.871  1.00  0.00    -0.250 N 
HETATM    6  N1  UNL     1      24.634  17.257 -51.987  1.00  0.00    -0.331 N 
ATOM      7  H12 UNL     1      23.731  17.707 -51.835  1.00  0.00     0.178 HD
ATOM      8  H11 UNL     1      24.888  16.438 -51.435  1.00  0.00     0.178 HD
ATOM      9  H2  UNL     1      26.302  17.322 -53.037  1.00  0.00     0.207 HD
ENDBRANCH   3   5
ENDBRANCH   1   2
BRANCH   1  10
HETATM   10  N4  UNL     1      27.448  18.040 -55.456  1.00  0.00    -0.412 N 
ATOM     11  H4  UNL     1      26.880  18.032 -56.303  1.00  0.00     0.153 HD
BRANCH  10  12
HETATM   12  C3  UNL     1      28.391  17.024 -55.193  1.00  0.00     0.170 C 
BRANCH  12  13
HETATM   13  C4  UNL     1      27.834  15.610 -55.292  1.00  0.00     0.020 A 
HETATM   14  C5  UNL     1      27.573  14.665 -54.439  1.00  0.00     0.019 A 
HETATM   15  C6  UNL     1      27.104  13.764 -55.462  1.00  0.00     0.148 A 
HETATM   16  N5  UNL     1      27.362  14.835 -56.358  1.00  0.00    -0.389 N 
ATOM     17  H5  UNL     1      27.251  14.979 -57.361  1.00  0.00     0.159 HD
ENDBRANCH  12  13
ENDBRANCH  10  12
ENDBRANCH   1  10
TORSDOF 5
ENDMDL
