MODEL 1
REMARK VINA RESULT: -4.664672962      0.000      0.000
REMARK  5 active torsions:
REMARK  status: ('A' for Active; 'I' for Inactive)
REMARK    1  A    between atoms: N1_2  and  C2_3 
REMARK    2  A    between atoms: C2_3  and  C3_4 
REMARK    3  A    between atoms: C3_4  and  N2_5 
REMARK    4  A    between atoms: N2_5  and  C4_7 
REMARK    5  A    between atoms: N3_8  and  N4_10 
ROOT
HETATM    1  N2  UNL     1      28.447  13.894 -58.386  1.00  0.00    -0.383 N 
ATOM      2  H2  UNL     1      27.875  13.057 -58.505  1.00  0.00     0.160 HD
ENDROOT
BRANCH   1   3
HETATM    3  C3  UNL     1      27.998  14.869 -57.423  1.00  0.00     0.148 C 
BRANCH   3   4
HETATM    4  C2  UNL     1      27.349  14.147 -56.290  1.00  0.00     0.256 C 
BRANCH   4   5
HETATM    5  N1  UNL     1      27.537  14.680 -54.989  1.00  0.00    -0.066 N 
HETATM    6  C1  UNL     1      28.066  16.043 -54.812  1.00  0.00     0.272 C 
HETATM    7  C6  UNL     1      27.691  13.849 -53.821  1.00  0.00     0.265 A 
HETATM    8  C7  UNL     1      26.367  14.427 -54.115  1.00  0.00     0.265 A 
ENDBRANCH   4   5
ENDBRANCH   3   4
ENDBRANCH   1   3
BRANCH   1   9
HETATM    9  C4  UNL     1      29.614  14.000 -59.180  1.00  0.00     0.192 C 
HETATM   10  N3  UNL     1      29.681  14.885 -60.098  1.00  0.00    -0.296 N 
ATOM     11  H3  UNL     1      28.905  15.524 -60.274  1.00  0.00     0.187 HD
BRANCH  10  12
HETATM   12  N4  UNL     1      30.868  14.950 -60.862  1.00  0.00    -0.298 N 
HETATM   13  C5  UNL     1      31.645  13.897 -60.902  1.00  0.00     0.206 C 
HETATM   14  N5  UNL     1      32.846  13.843 -61.631  1.00  0.00    -0.095 NA
ATOM     15  H4  UNL     1      31.115  15.799 -61.371  1.00  0.00     0.187 HD
ENDBRANCH  10  12
ENDBRANCH   1   9
TORSDOF 5
ENDMDL
MODEL 2
REMARK VINA RESULT: -4.253608528      1.762      2.594
REMARK  5 active torsions:
REMARK  status: ('A' for Active; 'I' for Inactive)
REMARK    1  A    between atoms: N1_2  and  C2_3 
REMARK    2  A    between atoms: C2_3  and  C3_4 
REMARK    3  A    between atoms: C3_4  and  N2_5 
REMARK    4  A    between atoms: N2_5  and  C4_7 
REMARK    5  A    between atoms: N3_8  and  N4_10 
ROOT
HETATM    1  N2  UNL     1      28.339  14.378 -58.756  1.00  0.00    -0.383 N 
ATOM      2  H2  UNL     1      27.541  14.024 -59.285  1.00  0.00     0.160 HD
ENDROOT
BRANCH   1   3
HETATM    3  C3  UNL     1      28.071  14.952 -57.460  1.00  0.00     0.148 C 
BRANCH   3   4
HETATM    4  C2  UNL     1      28.452  16.394 -57.498  1.00  0.00     0.256 C 
BRANCH   4   5
HETATM    5  N1  UNL     1      28.264  17.145 -56.309  1.00  0.00    -0.066 N 
HETATM    6  C1  UNL     1      28.202  16.469 -55.002  1.00  0.00     0.272 C 
HETATM    7  C6  UNL     1      27.670  18.459 -56.303  1.00  0.00     0.265 A 
HETATM    8  C7  UNL     1      29.140  18.340 -56.268  1.00  0.00     0.265 A 
ENDBRANCH   4   5
ENDBRANCH   3   4
ENDBRANCH   1   3
BRANCH   1   9
HETATM    9  C4  UNL     1      29.616  14.265 -59.357  1.00  0.00     0.192 C 
HETATM   10  N3  UNL     1      30.284  13.183 -59.236  1.00  0.00    -0.296 N 
ATOM     11  H3  UNL     1      29.914  12.390 -58.711  1.00  0.00     0.187 HD
BRANCH  10  12
HETATM   12  N4  UNL     1      31.553  13.122 -59.855  1.00  0.00    -0.298 N 
HETATM   13  C5  UNL     1      31.759  13.836 -60.933  1.00  0.00     0.206 C 
HETATM   14  N5  UNL     1      32.979  13.858 -61.630  1.00  0.00    -0.095 NA
ATOM     15  H4  UNL     1      32.292  12.534 -59.470  1.00  0.00     0.187 HD
ENDBRANCH  10  12
ENDBRANCH   1   9
TORSDOF 5
ENDMDL
MODEL 3
REMARK VINA RESULT: -4.234018169      2.807      3.700
REMARK  5 active torsions:
REMARK  status: ('A' for Active; 'I' for Inactive)
REMARK    1  A    between atoms: N1_2  and  C2_3 
REMARK    2  A    between atoms: C2_3  and  C3_4 
REMARK    3  A    between atoms: C3_4  and  N2_5 
REMARK    4  A    between atoms: N2_5  and  C4_7 
REMARK    5  A    between atoms: N3_8  and  N4_10 
ROOT
HETATM    1  N2  UNL     1      29.457  15.332 -60.122  1.00  0.00    -0.383 N 
ATOM      2  H2  UNL     1      28.666  15.339 -60.766  1.00  0.00     0.160 HD
ENDROOT
BRANCH   1   3
HETATM    3  C3  UNL     1      29.219  15.798 -58.778  1.00  0.00     0.148 C 
BRANCH   3   4
HETATM    4  C2  UNL     1      29.634  17.229 -58.698  1.00  0.00     0.256 C 
BRANCH   4   5
HETATM    5  N1  UNL     1      29.095  18.001 -57.635  1.00  0.00    -0.066 N 
HETATM    6  C1  UNL     1      28.335  17.352 -56.554  1.00  0.00     0.272 C 
HETATM    7  C6  UNL     1      28.832  19.413 -57.754  1.00  0.00     0.265 A 
HETATM    8  C7  UNL     1      30.081  18.974 -57.106  1.00  0.00     0.265 A 
ENDBRANCH   4   5
ENDBRANCH   3   4
ENDBRANCH   1   3
BRANCH   1   9
HETATM    9  C4  UNL     1      30.696  14.864 -60.622  1.00  0.00     0.192 C 
HETATM   10  N3  UNL     1      31.390  14.040 -59.936  1.00  0.00    -0.296 N 
ATOM     11  H3  UNL     1      31.068  13.708 -59.026  1.00  0.00     0.187 HD
BRANCH  10  12
HETATM   12  N4  UNL     1      32.619  13.603 -60.480  1.00  0.00    -0.298 N 
HETATM   13  C5  UNL     1      32.878  13.871 -61.736  1.00  0.00     0.206 C 
HETATM   14  N5  UNL     1      34.066  13.492 -62.383  1.00  0.00    -0.095 NA
ATOM     15  H4  UNL     1      33.290  13.091 -59.908  1.00  0.00     0.187 HD
ENDBRANCH  10  12
ENDBRANCH   1   9
TORSDOF 5
ENDMDL
MODEL 4
REMARK VINA RESULT: -4.117069585      4.553      6.643
REMARK  5 active torsions:
REMARK  status: ('A' for Active; 'I' for Inactive)
REMARK    1  A    between atoms: N1_2  and  C2_3 
REMARK    2  A    between atoms: C2_3  and  C3_4 
REMARK    3  A    between atoms: C3_4  and  N2_5 
REMARK    4  A    between atoms: N2_5  and  C4_7 
REMARK    5  A    between atoms: N3_8  and  N4_10 
ROOT
HETATM    1  N2  UNL     1      28.194  19.260 -56.511  1.00  0.00    -0.383 N 
ATOM      2  H2  UNL     1      27.382  19.474 -57.091  1.00  0.00     0.160 HD
ENDROOT
BRANCH   1   3
HETATM    3  C3  UNL     1      29.245  20.246 -56.455  1.00  0.00     0.148 C 
BRANCH   3   4
HETATM    4  C2  UNL     1      30.548  19.555 -56.683  1.00  0.00     0.256 C 
BRANCH   4   5
HETATM    5  N1  UNL     1      31.681  20.065 -55.997  1.00  0.00    -0.066 N 
HETATM    6  C1  UNL     1      31.737  20.033 -54.526  1.00  0.00     0.272 C 
HETATM    7  C6  UNL     1      32.580  21.026 -56.584  1.00  0.00     0.265 A 
HETATM    8  C7  UNL     1      32.949  19.599 -56.605  1.00  0.00     0.265 A 
ENDBRANCH   4   5
ENDBRANCH   3   4
ENDBRANCH   1   3
BRANCH   1   9
HETATM    9  C4  UNL     1      28.193  18.020 -55.828  1.00  0.00     0.192 C 
HETATM   10  N3  UNL     1      27.813  16.961 -56.432  1.00  0.00    -0.296 N 
ATOM     11  H3  UNL     1      27.506  16.988 -57.404  1.00  0.00     0.187 HD
BRANCH  10  12
HETATM   12  N4  UNL     1      27.832  15.748 -55.706  1.00  0.00    -0.298 N 
HETATM   13  C5  UNL     1      27.487  14.644 -56.321  1.00  0.00     0.206 C 
HETATM   14  N5  UNL     1      27.472  13.382 -55.703  1.00  0.00    -0.095 NA
ATOM     15  H4  UNL     1      28.108  15.733 -54.724  1.00  0.00     0.187 HD
ENDBRANCH  10  12
ENDBRANCH   1   9
TORSDOF 5
ENDMDL
MODEL 5
REMARK VINA RESULT: -4.115726958      9.708     11.244
REMARK  5 active torsions:
REMARK  status: ('A' for Active; 'I' for Inactive)
REMARK    1  A    between atoms: N1_2  and  C2_3 
REMARK    2  A    between atoms: C2_3  and  C3_4 
REMARK    3  A    between atoms: C3_4  and  N2_5 
REMARK    4  A    between atoms: N2_5  and  C4_7 
REMARK    5  A    between atoms: N3_8  and  N4_10 
ROOT
HETATM    1  N2  UNL     1      24.724  18.357 -47.421  1.00  0.00    -0.383 N 
ATOM      2  H2  UNL     1      24.421  18.360 -46.446  1.00  0.00     0.160 HD
ENDROOT
BRANCH   1   3
HETATM    3  C3  UNL     1      25.862  19.175 -47.762  1.00  0.00     0.148 C 
BRANCH   3   4
HETATM    4  C2  UNL     1      26.302  18.814 -49.141  1.00  0.00     0.256 C 
BRANCH   4   5
HETATM    5  N1  UNL     1      26.207  19.822 -50.136  1.00  0.00    -0.066 N 
HETATM    6  C1  UNL     1      27.382  20.638 -50.485  1.00  0.00     0.272 C 
HETATM    7  C6  UNL     1      24.955  20.430 -50.512  1.00  0.00     0.265 A 
HETATM    8  C7  UNL     1      25.496  19.339 -51.344  1.00  0.00     0.265 A 
ENDBRANCH   4   5
ENDBRANCH   3   4
ENDBRANCH   1   3
BRANCH   1   9
HETATM    9  C4  UNL     1      23.993  17.549 -48.324  1.00  0.00     0.192 C 
HETATM   10  N3  UNL     1      23.463  16.460 -47.920  1.00  0.00    -0.296 N 
ATOM     11  H3  UNL     1      23.555  16.155 -46.951  1.00  0.00     0.187 HD
BRANCH  10  12
HETATM   12  N4  UNL     1      22.743  15.690 -48.861  1.00  0.00    -0.298 N 
HETATM   13  C5  UNL     1      22.832  16.008 -50.129  1.00  0.00     0.206 C 
HETATM   14  N5  UNL     1      22.166  15.313 -51.154  1.00  0.00    -0.095 NA
ATOM     15  H4  UNL     1      22.165  14.905 -48.560  1.00  0.00     0.187 HD
ENDBRANCH  10  12
ENDBRANCH   1   9
TORSDOF 5
ENDMDL
