MODEL 1
REMARK VINA RESULT: -4.980299906      0.000      0.000
REMARK  6 active torsions:
REMARK  status: ('A' for Active; 'I' for Inactive)
REMARK    1  A    between atoms: N1_2  and  C2_3 
REMARK    2  A    between atoms: N1_2  and  C4_8 
REMARK    3  A    between atoms: C2_3  and  C3_4 
REMARK    4  A    between atoms: C4_8  and  C5_9 
REMARK    5  A    between atoms: C5_9  and  C6_10 
REMARK    6  A    between atoms: N3_11  and  N4_13 
ROOT
HETATM    1  C5  UNL     1      29.002  14.084 -58.703  1.00  0.00     0.066 C 
ENDROOT
BRANCH   1   2
HETATM    2  C4  UNL     1      27.815  14.870 -58.193  1.00  0.00     0.126 C 
BRANCH   2   3
HETATM    3  N1  UNL     1      27.740  14.947 -56.770  1.00  0.00    -0.394 N 
HETATM    4  C1  UNL     1      28.057  16.058 -56.218  1.00  0.00     0.115 C 
BRANCH   3   5
HETATM    5  C2  UNL     1      27.331  13.861 -55.937  1.00  0.00     0.165 C 
BRANCH   5   6
HETATM    6  C3  UNL     1      27.355  14.334 -54.522  1.00  0.00     0.072 C 
HETATM    7  N2  UNL     1      26.331  14.398 -53.763  1.00  0.00    -0.410 N 
ATOM      8  H22 UNL     1      25.443  14.103 -54.168  1.00  0.00     0.155 HD
ATOM      9  H21 UNL     1      26.348  14.721 -52.796  1.00  0.00     0.155 HD
ENDBRANCH   5   6
ENDBRANCH   3   5
ENDBRANCH   2   3
ENDBRANCH   1   2
BRANCH   1  10
HETATM   10  C6  UNL     1      29.648  14.925 -59.740  1.00  0.00     0.083 C 
HETATM   11  N3  UNL     1      30.817  14.622 -60.182  1.00  0.00    -0.302 N 
ATOM     12  H3  UNL     1      31.247  15.208 -60.897  1.00  0.00     0.187 HD
BRANCH  11  13
HETATM   13  N4  UNL     1      31.509  13.511 -59.708  1.00  0.00    -0.250 N 
HETATM   14  N5  UNL     1      32.414  13.009 -60.421  1.00  0.00    -0.331 N 
ATOM     15  H52 UNL     1      32.625  13.422 -61.329  1.00  0.00     0.178 HD
ATOM     16  H51 UNL     1      32.920  12.195 -60.073  1.00  0.00     0.178 HD
ATOM     17  H4  UNL     1      31.284  13.110 -58.797  1.00  0.00     0.207 HD
ENDBRANCH  11  13
ENDBRANCH   1  10
TORSDOF 6
ENDMDL
MODEL 2
REMARK VINA RESULT: -4.852394002      1.157      2.097
REMARK  6 active torsions:
REMARK  status: ('A' for Active; 'I' for Inactive)
REMARK    1  A    between atoms: N1_2  and  C2_3 
REMARK    2  A    between atoms: N1_2  and  C4_8 
REMARK    3  A    between atoms: C2_3  and  C3_4 
REMARK    4  A    between atoms: C4_8  and  C5_9 
REMARK    5  A    between atoms: C5_9  and  C6_10 
REMARK    6  A    between atoms: N3_11  and  N4_13 
ROOT
HETATM    1  C5  UNL     1      28.740  14.186 -58.451  1.00  0.00     0.066 C 
ENDROOT
BRANCH   1   2
HETATM    2  C4  UNL     1      27.671  15.034 -57.800  1.00  0.00     0.126 C 
BRANCH   2   3
HETATM    3  N1  UNL     1      27.686  14.991 -56.373  1.00  0.00    -0.394 N 
HETATM    4  C1  UNL     1      27.311  13.905 -55.808  1.00  0.00     0.115 C 
BRANCH   3   5
HETATM    5  C2  UNL     1      28.095  16.085 -55.551  1.00  0.00     0.165 C 
BRANCH   5   6
HETATM    6  C3  UNL     1      28.205  17.294 -56.418  1.00  0.00     0.072 C 
HETATM    7  N2  UNL     1      27.446  18.317 -56.334  1.00  0.00    -0.410 N 
ATOM      8  H22 UNL     1      26.718  18.288 -55.620  1.00  0.00     0.155 HD
ATOM      9  H21 UNL     1      27.521  19.143 -56.927  1.00  0.00     0.155 HD
ENDBRANCH   5   6
ENDBRANCH   3   5
ENDBRANCH   2   3
ENDBRANCH   1   2
BRANCH   1  10
HETATM   10  C6  UNL     1      29.369  15.031 -59.495  1.00  0.00     0.083 C 
HETATM   11  N3  UNL     1      30.510  14.707 -59.988  1.00  0.00    -0.302 N 
ATOM     12  H3  UNL     1      30.929  15.297 -60.708  1.00  0.00     0.187 HD
BRANCH  11  13
HETATM   13  N4  UNL     1      31.189  13.568 -59.564  1.00  0.00    -0.250 N 
HETATM   14  N5  UNL     1      32.113  13.109 -60.282  1.00  0.00    -0.331 N 
ATOM     15  H52 UNL     1      32.348  13.575 -61.158  1.00  0.00     0.178 HD
ATOM     16  H51 UNL     1      32.610  12.274 -59.971  1.00  0.00     0.178 HD
ATOM     17  H4  UNL     1      30.941  13.114 -58.685  1.00  0.00     0.207 HD
ENDBRANCH  11  13
ENDBRANCH   1  10
TORSDOF 6
ENDMDL
MODEL 3
REMARK VINA RESULT: -4.763484036      1.668      5.827
REMARK  6 active torsions:
REMARK  status: ('A' for Active; 'I' for Inactive)
REMARK    1  A    between atoms: N1_2  and  C2_3 
REMARK    2  A    between atoms: N1_2  and  C4_8 
REMARK    3  A    between atoms: C2_3  and  C3_4 
REMARK    4  A    between atoms: C4_8  and  C5_9 
REMARK    5  A    between atoms: C5_9  and  C6_10 
REMARK    6  A    between atoms: N3_11  and  N4_13 
ROOT
HETATM    1  C5  UNL     1      27.855  14.951 -57.864  1.00  0.00     0.066 C 
ENDROOT
BRANCH   1   2
HETATM    2  C4  UNL     1      28.706  13.871 -58.493  1.00  0.00     0.126 C 
BRANCH   2   3
HETATM    3  N1  UNL     1      29.690  14.364 -59.401  1.00  0.00    -0.394 N 
HETATM    4  C1  UNL     1      29.522  15.541 -59.876  1.00  0.00     0.115 C 
BRANCH   3   5
HETATM    5  C2  UNL     1      30.842  13.621 -59.802  1.00  0.00     0.165 C 
BRANCH   5   6
HETATM    6  C3  UNL     1      31.384  14.251 -61.042  1.00  0.00     0.072 C 
HETATM    7  N2  UNL     1      32.619  14.268 -61.364  1.00  0.00    -0.410 N 
ATOM      8  H22 UNL     1      33.267  13.816 -60.719  1.00  0.00     0.155 HD
ATOM      9  H21 UNL     1      32.990  14.699 -62.211  1.00  0.00     0.155 HD
ENDBRANCH   5   6
ENDBRANCH   3   5
ENDBRANCH   2   3
ENDBRANCH   1   2
BRANCH   1  10
HETATM   10  C6  UNL     1      27.610  14.531 -56.463  1.00  0.00     0.083 C 
HETATM   11  N3  UNL     1      27.716  15.381 -55.504  1.00  0.00    -0.302 N 
ATOM     12  H3  UNL     1      27.542  15.076 -54.546  1.00  0.00     0.187 HD
BRANCH  11  13
HETATM   13  N4  UNL     1      28.063  16.708 -55.744  1.00  0.00    -0.250 N 
HETATM   14  N5  UNL     1      27.637  17.596 -54.964  1.00  0.00    -0.331 N 
ATOM     15  H52 UNL     1      27.049  17.333 -54.173  1.00  0.00     0.178 HD
ATOM     16  H51 UNL     1      27.891  18.568 -55.140  1.00  0.00     0.178 HD
ATOM     17  H4  UNL     1      28.652  16.954 -56.539  1.00  0.00     0.207 HD
ENDBRANCH  11  13
ENDBRANCH   1  10
TORSDOF 6
ENDMDL
MODEL 4
REMARK VINA RESULT: -4.572269745      1.322      5.698
REMARK  6 active torsions:
REMARK  status: ('A' for Active; 'I' for Inactive)
REMARK    1  A    between atoms: N1_2  and  C2_3 
REMARK    2  A    between atoms: N1_2  and  C4_8 
REMARK    3  A    between atoms: C2_3  and  C3_4 
REMARK    4  A    between atoms: C4_8  and  C5_9 
REMARK    5  A    between atoms: C5_9  and  C6_10 
REMARK    6  A    between atoms: N3_11  and  N4_13 
ROOT
HETATM    1  C5  UNL     1      28.046  14.266 -57.503  1.00  0.00     0.066 C 
ENDROOT
BRANCH   1   2
HETATM    2  C4  UNL     1      28.155  14.636 -58.965  1.00  0.00     0.126 C 
BRANCH   2   3
HETATM    3  N1  UNL     1      29.492  14.631 -59.465  1.00  0.00    -0.394 N 
HETATM    4  C1  UNL     1      29.924  15.704 -60.013  1.00  0.00     0.115 C 
BRANCH   3   5
HETATM    5  C2  UNL     1      30.365  13.504 -59.386  1.00  0.00     0.165 C 
BRANCH   5   6
HETATM    6  C3  UNL     1      31.342  13.600 -60.510  1.00  0.00     0.072 C 
HETATM    7  N2  UNL     1      32.500  13.064 -60.509  1.00  0.00    -0.410 N 
ATOM      8  H22 UNL     1      32.760  12.537 -59.675  1.00  0.00     0.155 HD
ATOM      9  H21 UNL     1      33.168  13.130 -61.277  1.00  0.00     0.155 HD
ENDBRANCH   5   6
ENDBRANCH   3   5
ENDBRANCH   2   3
ENDBRANCH   1   2
BRANCH   1  10
HETATM   10  C6  UNL     1      27.977  15.542 -56.750  1.00  0.00     0.083 C 
HETATM   11  N3  UNL     1      27.629  15.545 -55.513  1.00  0.00    -0.302 N 
ATOM     12  H3  UNL     1      27.590  16.430 -55.008  1.00  0.00     0.187 HD
BRANCH  11  13
HETATM   13  N4  UNL     1      27.306  14.367 -54.845  1.00  0.00    -0.250 N 
HETATM   14  N5  UNL     1      26.451  14.405 -53.926  1.00  0.00    -0.331 N 
ATOM     15  H52 UNL     1      26.010  15.293 -53.685  1.00  0.00     0.178 HD
ATOM     16  H51 UNL     1      26.214  13.542 -53.437  1.00  0.00     0.178 HD
ATOM     17  H4  UNL     1      27.756  13.487 -55.098  1.00  0.00     0.207 HD
ENDBRANCH  11  13
ENDBRANCH   1  10
TORSDOF 6
ENDMDL
MODEL 5
REMARK VINA RESULT: -4.540521033      1.699      2.502
REMARK  6 active torsions:
REMARK  status: ('A' for Active; 'I' for Inactive)
REMARK    1  A    between atoms: N1_2  and  C2_3 
REMARK    2  A    between atoms: N1_2  and  C4_8 
REMARK    3  A    between atoms: C2_3  and  C3_4 
REMARK    4  A    between atoms: C4_8  and  C5_9 
REMARK    5  A    between atoms: C5_9  and  C6_10 
REMARK    6  A    between atoms: N3_11  and  N4_13 
ROOT
HETATM    1  C5  UNL     1      28.646  14.729 -58.431  1.00  0.00     0.066 C 
ENDROOT
BRANCH   1   2
HETATM    2  C4  UNL     1      27.752  14.819 -57.215  1.00  0.00     0.126 C 
BRANCH   2   3
HETATM    3  N1  UNL     1      28.066  15.905 -56.343  1.00  0.00    -0.394 N 
HETATM    4  C1  UNL     1      27.995  15.694 -55.083  1.00  0.00     0.115 C 
BRANCH   3   5
HETATM    5  C2  UNL     1      28.454  17.201 -56.799  1.00  0.00     0.165 C 
BRANCH   5   6
HETATM    6  C3  UNL     1      27.974  18.201 -55.801  1.00  0.00     0.072 C 
HETATM    7  N2  UNL     1      26.879  18.852 -55.897  1.00  0.00    -0.410 N 
ATOM      8  H22 UNL     1      26.306  18.662 -56.719  1.00  0.00     0.155 HD
ATOM      9  H21 UNL     1      26.551  19.535 -55.214  1.00  0.00     0.155 HD
ENDBRANCH   5   6
ENDBRANCH   3   5
ENDBRANCH   2   3
ENDBRANCH   1   2
BRANCH   1  10
HETATM   10  C6  UNL     1      28.956  13.291 -58.619  1.00  0.00     0.083 C 
HETATM   11  N3  UNL     1      30.099  12.932 -59.085  1.00  0.00    -0.302 N 
ATOM     12  H3  UNL     1      30.298  11.939 -59.206  1.00  0.00     0.187 HD
BRANCH  11  13
HETATM   13  N4  UNL     1      31.072  13.867 -59.428  1.00  0.00    -0.250 N 
HETATM   14  N5  UNL     1      32.048  13.499 -60.127  1.00  0.00    -0.331 N 
ATOM     15  H52 UNL     1      32.112  12.527 -60.431  1.00  0.00     0.178 HD
ATOM     16  H51 UNL     1      32.761  14.184 -60.378  1.00  0.00     0.178 HD
ATOM     17  H4  UNL     1      30.993  14.835 -59.116  1.00  0.00     0.207 HD
ENDBRANCH  11  13
ENDBRANCH   1  10
TORSDOF 6
ENDMDL
