MODEL 1
REMARK VINA RESULT: -5.895224265      0.000      0.000
REMARK  2 active torsions:
REMARK  status: ('A' for Active; 'I' for Inactive)
REMARK    1  A    between atoms: C2_3  and  C3_5 
REMARK    2  A    between atoms: C3_5  and  C4_6 
ROOT
HETATM    1  C3  UNL     1      27.327  17.070   4.890  1.00  0.00     0.231 A 
HETATM    2  O1  UNL     1      28.323  17.764   4.265  1.00  0.00    -0.324 OA
HETATM    3  C5  UNL     1      28.659  16.426   4.499  1.00  0.00     0.356 A 
HETATM    4  F5  UNL     1      29.479  16.105   5.546  1.00  0.00    -0.216 F 
ENDROOT
BRANCH   1   5
HETATM    5  C2  UNL     1      27.071  17.264   6.336  1.00  0.00     0.166 C 
HETATM    6  C1  UNL     1      26.925  18.483   6.796  1.00  0.00     0.229 C 
HETATM    7  F1  UNL     1      26.690  18.691   8.110  1.00  0.00    -0.216 F 
HETATM    8  F2  UNL     1      27.002  16.147   7.100  1.00  0.00    -0.205 F 
ENDBRANCH   1   5
BRANCH   1   9
HETATM    9  C4  UNL     1      26.159  16.506   4.127  1.00  0.00     0.400 C 
HETATM   10  F3  UNL     1      25.737  17.306   3.102  1.00  0.00    -0.210 F 
HETATM   11  F4  UNL     1      25.105  16.172   4.956  1.00  0.00    -0.210 F 
ENDBRANCH   1   9
TORSDOF 2
ENDMDL
MODEL 2
REMARK VINA RESULT: -5.779219122      1.251      2.415
REMARK  2 active torsions:
REMARK  status: ('A' for Active; 'I' for Inactive)
REMARK    1  A    between atoms: C2_3  and  C3_5 
REMARK    2  A    between atoms: C3_5  and  C4_6 
ROOT
HETATM    1  C3  UNL     1      27.321  16.878   5.098  1.00  0.00     0.231 A 
HETATM    2  O1  UNL     1      27.372  15.577   4.688  1.00  0.00    -0.324 OA
HETATM    3  C5  UNL     1      26.208  16.232   4.270  1.00  0.00     0.356 A 
HETATM    4  F5  UNL     1      25.034  16.022   4.939  1.00  0.00    -0.216 F 
ENDROOT
BRANCH   1   5
HETATM    5  C2  UNL     1      27.009  17.207   6.507  1.00  0.00     0.166 C 
HETATM    6  C1  UNL     1      26.926  18.467   6.861  1.00  0.00     0.229 C 
HETATM    7  F1  UNL     1      26.642  18.798   8.139  1.00  0.00    -0.216 F 
HETATM    8  F2  UNL     1      26.824  16.165   7.352  1.00  0.00    -0.205 F 
ENDBRANCH   1   5
BRANCH   1   9
HETATM    9  C4  UNL     1      28.045  17.969   4.356  1.00  0.00     0.400 C 
HETATM   10  F3  UNL     1      27.686  18.069   3.041  1.00  0.00    -0.210 F 
HETATM   11  F4  UNL     1      29.417  17.869   4.485  1.00  0.00    -0.210 F 
ENDBRANCH   1   9
TORSDOF 2
ENDMDL
MODEL 3
REMARK VINA RESULT: -5.701299307      1.557      3.167
REMARK  2 active torsions:
REMARK  status: ('A' for Active; 'I' for Inactive)
REMARK    1  A    between atoms: C2_3  and  C3_5 
REMARK    2  A    between atoms: C3_5  and  C4_6 
ROOT
HETATM    1  C3  UNL     1      26.839  16.840   5.798  1.00  0.00     0.231 A 
HETATM    2  O1  UNL     1      26.730  16.369   7.074  1.00  0.00    -0.324 OA
HETATM    3  C5  UNL     1      26.367  17.715   6.960  1.00  0.00     0.356 A 
HETATM    4  F5  UNL     1      27.244  18.690   7.347  1.00  0.00    -0.216 F 
ENDROOT
BRANCH   1   5
HETATM    5  C2  UNL     1      28.170  17.143   5.222  1.00  0.00     0.166 C 
HETATM    6  C1  UNL     1      29.048  16.177   5.109  1.00  0.00     0.229 C 
HETATM    7  F1  UNL     1      30.269  16.424   4.588  1.00  0.00    -0.216 F 
HETATM    8  F2  UNL     1      28.393  18.425   4.842  1.00  0.00    -0.205 F 
ENDBRANCH   1   5
BRANCH   1   9
HETATM    9  C4  UNL     1      25.765  16.598   4.772  1.00  0.00     0.400 C 
HETATM   10  F3  UNL     1      25.328  15.304   4.729  1.00  0.00    -0.210 F 
HETATM   11  F4  UNL     1      26.133  17.035   3.514  1.00  0.00    -0.210 F 
ENDBRANCH   1   9
TORSDOF 2
ENDMDL
MODEL 4
REMARK VINA RESULT: -5.673782771      1.000      1.468
REMARK  2 active torsions:
REMARK  status: ('A' for Active; 'I' for Inactive)
REMARK    1  A    between atoms: C2_3  and  C3_5 
REMARK    2  A    between atoms: C3_5  and  C4_6 
ROOT
HETATM    1  C3  UNL     1      27.319  17.313   4.728  1.00  0.00     0.231 A 
HETATM    2  O1  UNL     1      28.215  17.491   3.713  1.00  0.00    -0.324 OA
HETATM    3  C5  UNL     1      28.430  16.306   4.424  1.00  0.00     0.356 A 
HETATM    4  F5  UNL     1      29.430  16.244   5.355  1.00  0.00    -0.216 F 
ENDROOT
BRANCH   1   5
HETATM    5  C2  UNL     1      27.442  18.094   5.980  1.00  0.00     0.166 C 
HETATM    6  C1  UNL     1      26.553  17.917   6.928  1.00  0.00     0.229 C 
HETATM    7  F1  UNL     1      26.639  18.614   8.081  1.00  0.00    -0.216 F 
HETATM    8  F2  UNL     1      28.484  18.955   6.065  1.00  0.00    -0.205 F 
ENDBRANCH   1   5
BRANCH   1   9
HETATM    9  C4  UNL     1      25.943  16.760   4.479  1.00  0.00     0.400 C 
HETATM   10  F3  UNL     1      25.826  15.429   4.767  1.00  0.00    -0.210 F 
HETATM   11  F4  UNL     1      25.494  17.027   3.200  1.00  0.00    -0.210 F 
ENDBRANCH   1   9
TORSDOF 2
ENDMDL
MODEL 5
REMARK VINA RESULT: -5.556099977      1.458      3.172
REMARK  2 active torsions:
REMARK  status: ('A' for Active; 'I' for Inactive)
REMARK    1  A    between atoms: C2_3  and  C3_5 
REMARK    2  A    between atoms: C3_5  and  C4_6 
ROOT
HETATM    1  C3  UNL     1      27.691  17.375   5.102  1.00  0.00     0.231 A 
HETATM    2  O1  UNL     1      28.977  17.526   4.670  1.00  0.00    -0.324 OA
HETATM    3  C5  UNL     1      28.062  18.271   3.918  1.00  0.00     0.356 A 
HETATM    4  F5  UNL     1      27.658  17.813   2.694  1.00  0.00    -0.216 F 
ENDROOT
BRANCH   1   5
HETATM    5  C2  UNL     1      26.939  16.135   4.799  1.00  0.00     0.166 C 
HETATM    6  C1  UNL     1      25.640  16.123   4.971  1.00  0.00     0.229 C 
HETATM    7  F1  UNL     1      24.929  15.007   4.704  1.00  0.00    -0.216 F 
HETATM    8  F2  UNL     1      27.660  15.077   4.356  1.00  0.00    -0.205 F 
ENDBRANCH   1   5
BRANCH   1   9
HETATM    9  C4  UNL     1      27.156  18.149   6.276  1.00  0.00     0.400 C 
HETATM   10  F3  UNL     1      27.911  19.240   6.604  1.00  0.00    -0.210 F 
HETATM   11  F4  UNL     1      26.946  17.347   7.381  1.00  0.00    -0.210 F 
ENDBRANCH   1   9
TORSDOF 2
ENDMDL
