MODEL 1
REMARK VINA RESULT: -6.010551223      0.000      0.000
REMARK  2 active torsions:
REMARK  status: ('A' for Active; 'I' for Inactive)
REMARK    1  A    between atoms: C2_4  and  O1_5 
REMARK    2  A    between atoms: O1_5  and  C3_6 
ROOT
HETATM    1  F1  UNL     1      27.271  17.874   2.942  1.00  0.00    -0.196 F 
HETATM    2  C1  UNL     1      27.449  17.129   4.093  1.00  0.00     0.342 A 
HETATM    3  F2  UNL     1      26.737  15.930   4.038  1.00  0.00    -0.196 F 
HETATM    4  C2  UNL     1      27.476  17.906   5.350  1.00  0.00     0.280 A 
HETATM    5  C4  UNL     1      28.728  17.135   4.816  1.00  0.00     0.342 A 
HETATM    6  F3  UNL     1      29.055  15.963   5.470  1.00  0.00    -0.196 F 
HETATM    7  F4  UNL     1      29.776  17.947   4.393  1.00  0.00    -0.196 F 
ENDROOT
BRANCH   4   8
HETATM    8  O1  UNL     1      27.022  17.425   6.544  1.00  0.00    -0.359 OA
BRANCH   8   9
HETATM    9  C3  UNL     1      26.631  18.502   7.334  1.00  0.00     0.283 C 
HETATM   10 CL1  UNL     1      27.431  20.013   6.854  1.00  0.00    -0.102 Cl
ENDBRANCH   8   9
ENDBRANCH   4   8
TORSDOF 2
ENDMDL
MODEL 2
REMARK VINA RESULT: -5.937850009      0.903      1.109
REMARK  2 active torsions:
REMARK  status: ('A' for Active; 'I' for Inactive)
REMARK    1  A    between atoms: C2_4  and  O1_5 
REMARK    2  A    between atoms: O1_5  and  C3_6 
ROOT
HETATM    1  F1  UNL     1      28.102  18.403   3.006  1.00  0.00    -0.196 F 
HETATM    2  C1  UNL     1      27.391  17.483   3.752  1.00  0.00     0.342 A 
HETATM    3  F2  UNL     1      26.182  17.155   3.138  1.00  0.00    -0.196 F 
HETATM    4  C2  UNL     1      27.435  17.688   5.215  1.00  0.00     0.280 A 
HETATM    5  C4  UNL     1      28.073  16.437   4.526  1.00  0.00     0.342 A 
HETATM    6  F3  UNL     1      27.389  15.244   4.660  1.00  0.00    -0.196 F 
HETATM    7  F4  UNL     1      29.463  16.388   4.578  1.00  0.00    -0.196 F 
ENDROOT
BRANCH   4   8
HETATM    8  O1  UNL     1      26.406  17.369   6.054  1.00  0.00    -0.359 OA
BRANCH   8   9
HETATM    9  C3  UNL     1      26.436  18.238   7.140  1.00  0.00     0.283 C 
HETATM   10 CL1  UNL     1      27.412  19.685   6.816  1.00  0.00    -0.102 Cl
ENDBRANCH   8   9
ENDBRANCH   4   8
TORSDOF 2
ENDMDL
MODEL 3
REMARK VINA RESULT: -5.871640174      0.895      2.384
REMARK  2 active torsions:
REMARK  status: ('A' for Active; 'I' for Inactive)
REMARK    1  A    between atoms: C2_4  and  O1_5 
REMARK    2  A    between atoms: O1_5  and  C3_6 
ROOT
HETATM    1  F1  UNL     1      29.605  16.275   5.197  1.00  0.00    -0.196 F 
HETATM    2  C1  UNL     1      28.452  16.963   4.868  1.00  0.00     0.342 A 
HETATM    3  F2  UNL     1      28.743  18.203   4.299  1.00  0.00    -0.196 F 
HETATM    4  C2  UNL     1      27.349  16.849   5.846  1.00  0.00     0.280 A 
HETATM    5  C4  UNL     1      27.250  16.260   4.400  1.00  0.00     0.342 A 
HETATM    6  F3  UNL     1      26.457  16.951   3.506  1.00  0.00    -0.196 F 
HETATM    7  F4  UNL     1      27.224  14.869   4.339  1.00  0.00    -0.196 F 
ENDROOT
BRANCH   4   8
HETATM    8  O1  UNL     1      26.443  17.843   6.080  1.00  0.00    -0.359 OA
BRANCH   8   9
HETATM    9  C3  UNL     1      26.802  18.500   7.253  1.00  0.00     0.283 C 
HETATM   10 CL1  UNL     1      27.536  20.085   6.938  1.00  0.00    -0.102 Cl
ENDBRANCH   8   9
ENDBRANCH   4   8
TORSDOF 2
ENDMDL
MODEL 4
REMARK VINA RESULT: -5.685473807      1.357      2.427
REMARK  2 active torsions:
REMARK  status: ('A' for Active; 'I' for Inactive)
REMARK    1  A    between atoms: C2_4  and  O1_5 
REMARK    2  A    between atoms: O1_5  and  C3_6 
ROOT
HETATM    1  F1  UNL     1      27.344  15.202   4.704  1.00  0.00    -0.196 F 
HETATM    2  C1  UNL     1      27.994  16.407   4.514  1.00  0.00     0.342 A 
HETATM    3  F2  UNL     1      29.378  16.237   4.473  1.00  0.00    -0.196 F 
HETATM    4  C2  UNL     1      27.420  17.556   5.246  1.00  0.00     0.280 A 
HETATM    5  C4  UNL     1      27.408  17.468   3.684  1.00  0.00     0.342 A 
HETATM    6  F3  UNL     1      28.307  18.275   3.015  1.00  0.00    -0.196 F 
HETATM    7  F4  UNL     1      26.146  17.309   3.120  1.00  0.00    -0.196 F 
ENDROOT
BRANCH   4   8
HETATM    8  O1  UNL     1      28.165  18.599   5.716  1.00  0.00    -0.359 OA
BRANCH   8   9
HETATM    9  C3  UNL     1      27.426  19.267   6.687  1.00  0.00     0.283 C 
HETATM   10 CL1  UNL     1      26.033  18.316   7.243  1.00  0.00    -0.102 Cl
ENDBRANCH   8   9
ENDBRANCH   4   8
TORSDOF 2
ENDMDL
MODEL 5
REMARK VINA RESULT: -5.521620491      0.922      2.113
REMARK  2 active torsions:
REMARK  status: ('A' for Active; 'I' for Inactive)
REMARK    1  A    between atoms: C2_4  and  O1_5 
REMARK    2  A    between atoms: O1_5  and  C3_6 
ROOT
HETATM    1  F1  UNL     1      26.967  15.149   4.788  1.00  0.00    -0.196 F 
HETATM    2  C1  UNL     1      27.763  16.273   4.909  1.00  0.00     0.342 A 
HETATM    3  F2  UNL     1      29.049  15.942   5.337  1.00  0.00    -0.196 F 
HETATM    4  C2  UNL     1      27.091  17.465   5.467  1.00  0.00     0.280 A 
HETATM    5  C4  UNL     1      27.617  17.414   3.995  1.00  0.00     0.342 A 
HETATM    6  F3  UNL     1      28.771  18.123   3.728  1.00  0.00    -0.196 F 
HETATM    7  F4  UNL     1      26.622  17.417   3.021  1.00  0.00    -0.196 F 
ENDROOT
BRANCH   4   8
HETATM    8  O1  UNL     1      27.728  18.403   6.229  1.00  0.00    -0.359 OA
BRANCH   8   9
HETATM    9  C3  UNL     1      26.789  19.005   7.062  1.00  0.00     0.283 C 
HETATM   10 CL1  UNL     1      26.717  20.764   6.832  1.00  0.00    -0.102 Cl
ENDBRANCH   8   9
ENDBRANCH   4   8
TORSDOF 2
ENDMDL
