MODEL 1
REMARK VINA RESULT: -7.035689097      0.000      0.000
REMARK  1 active torsions:
REMARK  status: ('A' for Active; 'I' for Inactive)
REMARK    1  A    between atoms: C3_4  and  C4_5 
ROOT
HETATM    1  F1  UNL     1      29.816  17.499   4.303  1.00  0.00    -0.203 F 
HETATM    2  C1  UNL     1      28.582  17.375   4.864  1.00  0.00     0.161 A 
HETATM    3  C2  UNL     1      28.068  18.357   5.689  1.00  0.00     0.076 A 
HETATM    4  C3  UNL     1      26.808  18.195   6.241  1.00  0.00     0.079 A 
HETATM    5  N1  UNL     1      26.132  17.089   5.955  1.00  0.00    -0.329 N 
ATOM      6  H1  UNL     1      25.206  16.984   6.369  1.00  0.00     0.168 HD
HETATM    7  C5  UNL     1      26.570  16.099   5.165  1.00  0.00     0.230 A 
HETATM    8  F4  UNL     1      25.818  15.002   4.921  1.00  0.00    -0.183 F 
HETATM    9  C6  UNL     1      27.825  16.253   4.610  1.00  0.00     0.210 A 
HETATM   10  F5  UNL     1      28.322  15.277   3.796  1.00  0.00    -0.198 F 
ENDROOT
BRANCH   4  11
HETATM   11  C4  UNL     1      26.243  19.263   7.142  1.00  0.00     0.403 C 
HETATM   12  F2  UNL     1      26.847  20.475   6.874  1.00  0.00    -0.207 F 
HETATM   13  F3  UNL     1      26.603  18.900   8.427  1.00  0.00    -0.207 F 
ENDBRANCH   4  11
TORSDOF 1
ENDMDL
MODEL 2
REMARK VINA RESULT: -6.942722356      0.821      2.385
REMARK  1 active torsions:
REMARK  status: ('A' for Active; 'I' for Inactive)
REMARK    1  A    between atoms: C3_4  and  C4_5 
ROOT
HETATM    1  F1  UNL     1      25.894  15.066   4.925  1.00  0.00    -0.203 F 
HETATM    2  C1  UNL     1      26.669  16.158   5.170  1.00  0.00     0.161 A 
HETATM    3  C2  UNL     1      26.223  17.185   5.981  1.00  0.00     0.076 A 
HETATM    4  C3  UNL     1      27.040  18.280   6.207  1.00  0.00     0.079 A 
HETATM    5  N1  UNL     1      28.235  18.305   5.630  1.00  0.00    -0.329 N 
ATOM      6  H1  UNL     1      28.825  19.118   5.806  1.00  0.00     0.168 HD
HETATM    7  C5  UNL     1      28.728  17.347   4.834  1.00  0.00     0.230 A 
HETATM    8  F4  UNL     1      29.960  17.447   4.283  1.00  0.00    -0.183 F 
HETATM    9  C6  UNL     1      27.920  16.250   4.604  1.00  0.00     0.210 A 
HETATM   10  F5  UNL     1      28.371  15.244   3.802  1.00  0.00    -0.198 F 
ENDROOT
BRANCH   4  11
HETATM   11  C4  UNL     1      26.559  19.402   7.091  1.00  0.00     0.403 C 
HETATM   12  F2  UNL     1      27.442  20.462   7.030  1.00  0.00    -0.207 F 
HETATM   13  F3  UNL     1      26.599  18.908   8.382  1.00  0.00    -0.207 F 
ENDBRANCH   4  11
TORSDOF 1
ENDMDL
MODEL 3
REMARK VINA RESULT: -6.387946758      1.070      1.070
REMARK  1 active torsions:
REMARK  status: ('A' for Active; 'I' for Inactive)
REMARK    1  A    between atoms: C3_4  and  C4_5 
ROOT
HETATM    1  F1  UNL     1      29.667  16.922   4.360  1.00  0.00    -0.203 F 
HETATM    2  C1  UNL     1      28.506  17.247   4.993  1.00  0.00     0.161 A 
HETATM    3  C2  UNL     1      28.391  18.415   5.723  1.00  0.00     0.076 A 
HETATM    4  C3  UNL     1      27.194  18.712   6.353  1.00  0.00     0.079 A 
HETATM    5  N1  UNL     1      26.188  17.854   6.232  1.00  0.00    -0.329 N 
ATOM      6  H1  UNL     1      25.313  18.087   6.701  1.00  0.00     0.168 HD
HETATM    7  C5  UNL     1      26.231  16.707   5.541  1.00  0.00     0.230 A 
HETATM    8  F4  UNL     1      25.159  15.885   5.465  1.00  0.00    -0.183 F 
HETATM    9  C6  UNL     1      27.421  16.404   4.909  1.00  0.00     0.210 A 
HETATM   10  F5  UNL     1      27.522  15.248   4.191  1.00  0.00    -0.198 F 
ENDROOT
BRANCH   4  11
HETATM   11  C4  UNL     1      27.063  19.984   7.151  1.00  0.00     0.403 C 
HETATM   12  F2  UNL     1      26.277  20.891   6.468  1.00  0.00    -0.207 F 
HETATM   13  F3  UNL     1      28.337  20.518   7.219  1.00  0.00    -0.207 F 
ENDBRANCH   4  11
TORSDOF 1
ENDMDL
MODEL 4
REMARK VINA RESULT: -6.093369019      1.511      4.558
REMARK  1 active torsions:
REMARK  status: ('A' for Active; 'I' for Inactive)
REMARK    1  A    between atoms: C3_4  and  C4_5 
ROOT
HETATM    1  F1  UNL     1      24.982  16.712   7.101  1.00  0.00    -0.203 F 
HETATM    2  C1  UNL     1      26.113  17.314   6.644  1.00  0.00     0.161 A 
HETATM    3  C2  UNL     1      26.989  16.652   5.804  1.00  0.00     0.076 A 
HETATM    4  C3  UNL     1      28.130  17.299   5.359  1.00  0.00     0.079 A 
HETATM    5  N1  UNL     1      28.345  18.546   5.760  1.00  0.00    -0.329 N 
ATOM      6  H1  UNL     1      29.189  19.008   5.424  1.00  0.00     0.168 HD
HETATM    7  C5  UNL     1      27.539  19.245   6.571  1.00  0.00     0.230 A 
HETATM    8  F4  UNL     1      27.829  20.516   6.933  1.00  0.00    -0.183 F 
HETATM    9  C6  UNL     1      26.399  18.608   7.019  1.00  0.00     0.210 A 
HETATM   10  F5  UNL     1      25.542  19.272   7.847  1.00  0.00    -0.198 F 
ENDROOT
BRANCH   4  11
HETATM   11  C4  UNL     1      29.088  16.581   4.444  1.00  0.00     0.403 C 
HETATM   12  F2  UNL     1      28.434  15.563   3.780  1.00  0.00    -0.207 F 
HETATM   13  F3  UNL     1      30.029  15.994   5.270  1.00  0.00    -0.207 F 
ENDBRANCH   4  11
TORSDOF 1
ENDMDL
MODEL 5
REMARK VINA RESULT: -6.010904030      1.346      3.944
REMARK  1 active torsions:
REMARK  status: ('A' for Active; 'I' for Inactive)
REMARK    1  A    between atoms: C3_4  and  C4_5 
ROOT
HETATM    1  F1  UNL     1      27.750  20.516   6.921  1.00  0.00    -0.203 F 
HETATM    2  C1  UNL     1      27.504  19.234   6.538  1.00  0.00     0.161 A 
HETATM    3  C2  UNL     1      28.368  18.558   5.697  1.00  0.00     0.076 A 
HETATM    4  C3  UNL     1      28.084  17.254   5.330  1.00  0.00     0.079 A 
HETATM    5  N1  UNL     1      26.979  16.692   5.803  1.00  0.00    -0.329 N 
ATOM      6  H1  UNL     1      26.784  15.731   5.523  1.00  0.00     0.168 HD
HETATM    7  C5  UNL     1      26.099  17.287   6.620  1.00  0.00     0.230 A 
HETATM    8  F4  UNL     1      24.994  16.644   7.060  1.00  0.00    -0.183 F 
HETATM    9  C6  UNL     1      26.375  18.588   6.992  1.00  0.00     0.210 A 
HETATM   10  F5  UNL     1      25.515  19.244   7.822  1.00  0.00    -0.198 F 
ENDROOT
BRANCH   4  11
HETATM   11  C4  UNL     1      29.024  16.513   4.412  1.00  0.00     0.403 C 
HETATM   12  F2  UNL     1      28.366  15.454   3.818  1.00  0.00    -0.207 F 
HETATM   13  F3  UNL     1      30.004  15.980   5.229  1.00  0.00    -0.207 F 
ENDBRANCH   4  11
TORSDOF 1
ENDMDL
