MODEL 1
REMARK VINA RESULT: -6.332393554      0.000      0.000
REMARK  2 active torsions:
REMARK  status: ('A' for Active; 'I' for Inactive)
REMARK    1  A    between atoms: C2_4  and  C3_5 
REMARK    2  A    between atoms: C3_5  and  N1_6 
ROOT
HETATM    1  F1  UNL     1      28.057  18.375   2.970  1.00  0.00    -0.199 F 
HETATM    2  C1  UNL     1      27.415  17.407   3.801  1.00  0.00     0.319 A 
HETATM    3  F2  UNL     1      26.099  17.208   3.304  1.00  0.00    -0.199 F 
HETATM    4  C2  UNL     1      27.502  17.781   5.206  1.00  0.00     0.162 A 
HETATM    5  C4  UNL     1      28.137  16.452   4.492  1.00  0.00     0.319 A 
HETATM    6  F3  UNL     1      27.474  15.244   4.686  1.00  0.00    -0.199 F 
HETATM    7  F4  UNL     1      29.482  16.373   4.535  1.00  0.00    -0.199 F 
ENDROOT
BRANCH   4   8
HETATM    8  C3  UNL     1      26.697  17.121   6.400  1.00  0.00     0.150 C 
BRANCH   8   9
HETATM    9  N1  UNL     1      26.652  18.260   7.314  1.00  0.00    -0.333 N 
HETATM   10 CL1  UNL     1      27.341  19.660   6.865  1.00  0.00     0.005 Cl
ATOM     11  H1  UNL     1      26.194  18.177   8.222  1.00  0.00     0.173 HD
ENDBRANCH   8   9
ENDBRANCH   4   8
TORSDOF 2
ENDMDL
MODEL 2
REMARK VINA RESULT: -6.222728565      0.928      1.094
REMARK  2 active torsions:
REMARK  status: ('A' for Active; 'I' for Inactive)
REMARK    1  A    between atoms: C2_4  and  C3_5 
REMARK    2  A    between atoms: C3_5  and  N1_6 
ROOT
HETATM    1  F1  UNL     1      27.167  17.718   2.870  1.00  0.00    -0.199 F 
HETATM    2  C1  UNL     1      27.375  17.006   4.090  1.00  0.00     0.319 A 
HETATM    3  F2  UNL     1      26.627  15.799   4.024  1.00  0.00    -0.199 F 
HETATM    4  C2  UNL     1      27.098  17.849   5.244  1.00  0.00     0.162 A 
HETATM    5  C4  UNL     1      28.527  17.166   4.835  1.00  0.00     0.319 A 
HETATM    6  F3  UNL     1      28.924  16.039   5.549  1.00  0.00    -0.199 F 
HETATM    7  F4  UNL     1      29.516  18.040   4.562  1.00  0.00    -0.199 F 
ENDROOT
BRANCH   4   8
HETATM    8  C3  UNL     1      26.953  17.361   6.744  1.00  0.00     0.150 C 
BRANCH   8   9
HETATM    9  N1  UNL     1      26.614  18.635   7.376  1.00  0.00    -0.333 N 
HETATM   10 CL1  UNL     1      27.383  19.983   6.898  1.00  0.00     0.005 Cl
ATOM     11  H1  UNL     1      25.904  18.676   8.107  1.00  0.00     0.173 HD
ENDBRANCH   8   9
ENDBRANCH   4   8
TORSDOF 2
ENDMDL
MODEL 3
REMARK VINA RESULT: -6.147728060      0.929      1.994
REMARK  2 active torsions:
REMARK  status: ('A' for Active; 'I' for Inactive)
REMARK    1  A    between atoms: C2_4  and  C3_5 
REMARK    2  A    between atoms: C3_5  and  N1_6 
ROOT
HETATM    1  F1  UNL     1      29.772  16.191   5.063  1.00  0.00    -0.199 F 
HETATM    2  C1  UNL     1      28.543  16.889   4.859  1.00  0.00     0.319 A 
HETATM    3  F2  UNL     1      28.856  18.231   4.511  1.00  0.00    -0.199 F 
HETATM    4  C2  UNL     1      27.654  16.732   6.002  1.00  0.00     0.162 A 
HETATM    5  C4  UNL     1      27.393  16.232   4.465  1.00  0.00     0.319 A 
HETATM    6  F3  UNL     1      26.524  16.990   3.685  1.00  0.00    -0.199 F 
HETATM    7  F4  UNL     1      27.270  14.898   4.315  1.00  0.00    -0.199 F 
ENDROOT
BRANCH   4   8
HETATM    8  C3  UNL     1      26.330  17.557   6.274  1.00  0.00     0.150 C 
BRANCH   8   9
HETATM    9  N1  UNL     1      26.816  18.443   7.331  1.00  0.00    -0.333 N 
HETATM   10 CL1  UNL     1      27.406  19.902   6.929  1.00  0.00     0.005 Cl
ATOM     11  H1  UNL     1      26.785  18.149   8.307  1.00  0.00     0.173 HD
ENDBRANCH   8   9
ENDBRANCH   4   8
TORSDOF 2
ENDMDL
MODEL 4
REMARK VINA RESULT: -5.917093448      0.916      1.013
REMARK  2 active torsions:
REMARK  status: ('A' for Active; 'I' for Inactive)
REMARK    1  A    between atoms: C2_4  and  C3_5 
REMARK    2  A    between atoms: C3_5  and  N1_6 
ROOT
HETATM    1  F1  UNL     1      29.625  18.240   4.085  1.00  0.00    -0.199 F 
HETATM    2  C1  UNL     1      28.395  17.547   4.297  1.00  0.00     0.319 A 
HETATM    3  F2  UNL     1      27.513  17.885   3.235  1.00  0.00    -0.199 F 
HETATM    4  C2  UNL     1      27.879  17.789   5.637  1.00  0.00     0.162 A 
HETATM    5  C4  UNL     1      28.345  16.357   4.997  1.00  0.00     0.319 A 
HETATM    6  F3  UNL     1      27.342  15.480   4.593  1.00  0.00    -0.199 F 
HETATM    7  F4  UNL     1      29.391  15.772   5.616  1.00  0.00    -0.199 F 
ENDROOT
BRANCH   4   8
HETATM    8  C3  UNL     1      26.429  17.423   6.160  1.00  0.00     0.150 C 
BRANCH   8   9
HETATM    9  N1  UNL     1      26.223  18.536   7.085  1.00  0.00    -0.333 N 
HETATM   10 CL1  UNL     1      27.223  19.814   7.017  1.00  0.00     0.005 Cl
ATOM     11  H1  UNL     1      25.462  18.510   7.764  1.00  0.00     0.173 HD
ENDBRANCH   8   9
ENDBRANCH   4   8
TORSDOF 2
ENDMDL
MODEL 5
REMARK VINA RESULT: -5.742210212      0.738      2.528
REMARK  2 active torsions:
REMARK  status: ('A' for Active; 'I' for Inactive)
REMARK    1  A    between atoms: C2_4  and  C3_5 
REMARK    2  A    between atoms: C3_5  and  N1_6 
ROOT
HETATM    1  F1  UNL     1      27.495  14.961   4.355  1.00  0.00    -0.199 F 
HETATM    2  C1  UNL     1      28.035  16.283   4.397  1.00  0.00     0.319 A 
HETATM    3  F2  UNL     1      29.432  16.177   4.631  1.00  0.00    -0.199 F 
HETATM    4  C2  UNL     1      27.305  17.118   5.341  1.00  0.00     0.162 A 
HETATM    5  C4  UNL     1      27.437  17.331   3.723  1.00  0.00     0.319 A 
HETATM    6  F3  UNL     1      28.314  18.316   3.278  1.00  0.00    -0.199 F 
HETATM    7  F4  UNL     1      26.274  17.259   3.045  1.00  0.00    -0.199 F 
ENDROOT
BRANCH   4   8
HETATM    8  C3  UNL     1      27.754  18.544   5.865  1.00  0.00     0.150 C 
BRANCH   8   9
HETATM    9  N1  UNL     1      27.120  18.522   7.182  1.00  0.00    -0.333 N 
HETATM   10 CL1  UNL     1      25.859  19.505   7.468  1.00  0.00     0.005 Cl
ATOM     11  H1  UNL     1      27.465  17.899   7.912  1.00  0.00     0.173 HD
ENDBRANCH   8   9
ENDBRANCH   4   8
TORSDOF 2
ENDMDL
