MODEL 1
REMARK VINA RESULT: -6.609081499      0.000      0.000
REMARK  11 active torsions:
REMARK  status: ('A' for Active; 'I' for Inactive)
REMARK    1  A    between atoms: C2_2  and  C3_3 
REMARK    2  A    between atoms: C3_3  and  C4_4 
REMARK    3  A    between atoms: C4_4  and  N1_5 
REMARK       I    between atoms: C5_7  and  N3_9 
REMARK    4  A    between atoms: N3_9  and  C6_11 
REMARK    5  A    between atoms: C9_16  and  N5_17 
REMARK    6  A    between atoms: N5_17  and  C10_19 
REMARK    7  A    between atoms: C10_19  and  C11_20 
REMARK    8  A    between atoms: C11_20  and  C12_21 
REMARK    9  A    between atoms: C12_21  and  N6_22 
REMARK   10  A    between atoms: C20_32  and  C22_34 
REMARK   11  A    between atoms: C22_34  and  C23_35 
ROOT
HETATM    1  C6  UNL     1      20.561  44.003  -1.831  1.00  0.00     0.686 A 
HETATM    2  N4  UNL     1      19.496  43.908  -1.024  1.00  0.00    -0.191 N 
ATOM      3  H4  UNL     1      18.559  43.869  -1.423  1.00  0.00     0.184 HD
HETATM    4  C7  UNL     1      19.661  43.865   0.332  1.00  0.00     0.059 A 
HETATM    5  C8  UNL     1      20.910  43.917   0.891  1.00  0.00     0.032 A 
HETATM    6  C9  UNL     1      21.999  44.014   0.036  1.00  0.00     0.129 A 
HETATM    7  N7  UNL     1      21.800  44.054  -1.281  1.00  0.00    -0.176 N 
ATOM      8  H7  UNL     1      22.609  44.127  -1.897  1.00  0.00     0.186 HD
HETATM    9  C19 UNL     1      21.056  43.907   2.191  1.00  0.00     0.000 A 
HETATM   10  C20 UNL     1      19.951  43.845   3.172  1.00  0.00    -0.022 A 
HETATM   11  C21 UNL     1      20.303  42.615   4.040  1.00  0.00     0.020 C 
HETATM   12  C25 UNL     1      18.634  43.700   2.553  1.00  0.00     0.042 A 
HETATM   13  C26 UNL     1      18.606  43.758   1.094  1.00  0.00     0.005 A 
ENDROOT
BRANCH   6  14
HETATM   14  N5  UNL     1      23.166  44.053   0.547  1.00  0.00    -0.375 N 
ATOM     15  H5  UNL     1      23.282  44.663   1.357  1.00  0.00     0.161 HD
BRANCH  14  16
HETATM   16  C10 UNL     1      24.330  43.347   0.122  1.00  0.00     0.126 C 
BRANCH  16  17
HETATM   17  C11 UNL     1      25.345  43.101   1.221  1.00  0.00     0.064 C 
BRANCH  17  18
HETATM   18  C12 UNL     1      24.741  43.428   2.546  1.00  0.00     0.059 C 
BRANCH  18  19
HETATM   19  N6  UNL     1      25.265  44.534   3.239  1.00  0.00    -0.393 N 
HETATM   20  C13 UNL     1      24.359  45.323   3.978  1.00  0.00     0.122 C 
HETATM   21  C14 UNL     1      24.910  46.448   4.741  1.00  0.00     0.020 C 
HETATM   22  C15 UNL     1      25.984  47.265   4.165  1.00  0.00     0.002 C 
HETATM   23  C16 UNL     1      25.895  47.606   2.725  1.00  0.00     0.002 C 
HETATM   24  C17 UNL     1      25.597  46.443   1.828  1.00  0.00     0.020 C 
HETATM   25  C18 UNL     1      26.228  45.216   2.437  1.00  0.00     0.122 C 
ENDBRANCH  18  19
ENDBRANCH  17  18
ENDBRANCH  16  17
ENDBRANCH  14  16
ENDBRANCH   6  14
BRANCH   1  26
HETATM   26  N3  UNL     1      20.400  44.044  -3.110  1.00  0.00    -0.163 N 
HETATM   27  C5  UNL     1      21.446  44.550  -3.922  1.00  0.00     0.202 C 
HETATM   28  N1  UNL     1      21.503  45.798  -4.232  1.00  0.00    -0.364 N 
HETATM   29  N2  UNL     1      22.457  43.678  -4.412  1.00  0.00    -0.063 NA
ATOM     30  H1  UNL     1      20.784  46.432  -3.885  1.00  0.00     0.162 HD
ATOM     31  H3  UNL     1      19.530  43.718  -3.532  1.00  0.00     0.187 HD
BRANCH  28  32
HETATM   32  C4  UNL     1      22.567  46.318  -5.064  1.00  0.00     0.122 C 
BRANCH  32  33
HETATM   33  C3  UNL     1      22.121  47.627  -5.675  1.00  0.00     0.019 C 
BRANCH  33  34
HETATM   34  C2  UNL     1      21.851  48.625  -4.573  1.00  0.00    -0.003 C 
HETATM   35  C1  UNL     1      22.365  49.984  -5.000  1.00  0.00     0.005 C 
ENDBRANCH  33  34
ENDBRANCH  32  33
ENDBRANCH  28  32
ENDBRANCH   1  26
BRANCH  10  36
HETATM   36  C22 UNL     1      20.091  45.098   4.013  1.00  0.00     0.013 C 
BRANCH  36  37
HETATM   37  C23 UNL     1      19.108  45.308   5.086  1.00  0.00    -0.004 C 
HETATM   38  C24 UNL     1      19.578  45.818   6.394  1.00  0.00     0.005 C 
ENDBRANCH  36  37
ENDBRANCH  10  36
TORSDOF 11
ENDMDL
MODEL 2
REMARK VINA RESULT: -6.581371112      1.561      7.405
REMARK  11 active torsions:
REMARK  status: ('A' for Active; 'I' for Inactive)
REMARK    1  A    between atoms: C2_2  and  C3_3 
REMARK    2  A    between atoms: C3_3  and  C4_4 
REMARK    3  A    between atoms: C4_4  and  N1_5 
REMARK       I    between atoms: C5_7  and  N3_9 
REMARK    4  A    between atoms: N3_9  and  C6_11 
REMARK    5  A    between atoms: C9_16  and  N5_17 
REMARK    6  A    between atoms: N5_17  and  C10_19 
REMARK    7  A    between atoms: C10_19  and  C11_20 
REMARK    8  A    between atoms: C11_20  and  C12_21 
REMARK    9  A    between atoms: C12_21  and  N6_22 
REMARK   10  A    between atoms: C20_32  and  C22_34 
REMARK   11  A    between atoms: C22_34  and  C23_35 
ROOT
HETATM    1  C6  UNL     1      24.138  43.602  -2.473  1.00  0.00     0.686 A 
HETATM    2  N4  UNL     1      24.618  43.967  -3.670  1.00  0.00    -0.191 N 
ATOM      3  H4  UNL     1      25.559  43.688  -3.946  1.00  0.00     0.184 HD
HETATM    4  C7  UNL     1      23.850  44.711  -4.522  1.00  0.00     0.059 A 
HETATM    5  C8  UNL     1      22.585  45.097  -4.174  1.00  0.00     0.032 A 
HETATM    6  C9  UNL     1      22.107  44.707  -2.929  1.00  0.00     0.129 A 
HETATM    7  N7  UNL     1      22.883  43.983  -2.125  1.00  0.00    -0.176 N 
ATOM      8  H7  UNL     1      22.521  43.704  -1.214  1.00  0.00     0.186 HD
HETATM    9  C19 UNL     1      21.869  45.837  -4.983  1.00  0.00     0.000 A 
HETATM   10  C20 UNL     1      22.315  46.327  -6.305  1.00  0.00    -0.022 A 
HETATM   11  C21 UNL     1      21.216  45.823  -7.268  1.00  0.00     0.020 C 
HETATM   12  C25 UNL     1      23.633  45.829  -6.695  1.00  0.00     0.042 A 
HETATM   13  C26 UNL     1      24.339  45.041  -5.688  1.00  0.00     0.005 A 
ENDROOT
BRANCH   6  14
HETATM   14  N5  UNL     1      20.926  45.054  -2.600  1.00  0.00    -0.375 N 
ATOM     15  H5  UNL     1      20.602  45.949  -2.967  1.00  0.00     0.161 HD
BRANCH  14  16
HETATM   16  C10 UNL     1      20.002  44.340  -1.781  1.00  0.00     0.126 C 
BRANCH  16  17
HETATM   17  C11 UNL     1      19.826  44.918  -0.391  1.00  0.00     0.064 C 
BRANCH  17  18
HETATM   18  C12 UNL     1      20.674  44.163   0.579  1.00  0.00     0.059 C 
BRANCH  18  19
HETATM   19  N6  UNL     1      20.032  43.610   1.702  1.00  0.00    -0.393 N 
HETATM   20  C13 UNL     1      18.634  43.766   1.790  1.00  0.00     0.122 C 
HETATM   21  C14 UNL     1      17.956  43.147   2.935  1.00  0.00     0.020 C 
HETATM   22  C15 UNL     1      18.584  43.183   4.261  1.00  0.00     0.002 C 
HETATM   23  C16 UNL     1      19.259  44.437   4.671  1.00  0.00     0.002 C 
HETATM   24  C17 UNL     1      20.195  45.002   3.646  1.00  0.00     0.020 C 
HETATM   25  C18 UNL     1      20.797  43.850   2.883  1.00  0.00     0.122 C 
ENDBRANCH  18  19
ENDBRANCH  17  18
ENDBRANCH  16  17
ENDBRANCH  14  16
ENDBRANCH   6  14
BRANCH   1  26
HETATM   26  N3  UNL     1      24.866  42.900  -1.673  1.00  0.00    -0.163 N 
HETATM   27  C5  UNL     1      24.523  42.843  -0.299  1.00  0.00     0.202 C 
HETATM   28  N1  UNL     1      25.012  43.685   0.543  1.00  0.00    -0.364 N 
HETATM   29  N2  UNL     1      23.628  41.845   0.174  1.00  0.00    -0.063 NA
ATOM     30  H1  UNL     1      25.654  44.405   0.215  1.00  0.00     0.162 HD
ATOM     31  H3  UNL     1      25.679  42.393  -2.025  1.00  0.00     0.187 HD
BRANCH  28  32
HETATM   32  C4  UNL     1      24.667  43.628   1.948  1.00  0.00     0.122 C 
BRANCH  32  33
HETATM   33  C3  UNL     1      24.510  45.037   2.475  1.00  0.00     0.019 C 
BRANCH  33  34
HETATM   34  C2  UNL     1      25.169  46.003   1.517  1.00  0.00    -0.003 C 
HETATM   35  C1  UNL     1      25.852  47.098   2.310  1.00  0.00     0.005 C 
ENDBRANCH  33  34
ENDBRANCH  32  33
ENDBRANCH  28  32
ENDBRANCH   1  26
BRANCH  10  36
HETATM   36  C22 UNL     1      22.238  47.838  -6.218  1.00  0.00     0.013 C 
BRANCH  36  37
HETATM   37  C23 UNL     1      21.877  48.424  -4.918  1.00  0.00    -0.004 C 
HETATM   38  C24 UNL     1      22.106  49.871  -4.700  1.00  0.00     0.005 C 
ENDBRANCH  36  37
ENDBRANCH  10  36
TORSDOF 11
ENDMDL
MODEL 3
REMARK VINA RESULT: -6.566330380      1.982      2.648
REMARK  11 active torsions:
REMARK  status: ('A' for Active; 'I' for Inactive)
REMARK    1  A    between atoms: C2_2  and  C3_3 
REMARK    2  A    between atoms: C3_3  and  C4_4 
REMARK    3  A    between atoms: C4_4  and  N1_5 
REMARK       I    between atoms: C5_7  and  N3_9 
REMARK    4  A    between atoms: N3_9  and  C6_11 
REMARK    5  A    between atoms: C9_16  and  N5_17 
REMARK    6  A    between atoms: N5_17  and  C10_19 
REMARK    7  A    between atoms: C10_19  and  C11_20 
REMARK    8  A    between atoms: C11_20  and  C12_21 
REMARK    9  A    between atoms: C12_21  and  N6_22 
REMARK   10  A    between atoms: C20_32  and  C22_34 
REMARK   11  A    between atoms: C22_34  and  C23_35 
ROOT
HETATM    1  C6  UNL     1      21.794  43.787  -4.045  1.00  0.00     0.686 A 
HETATM    2  N4  UNL     1      20.749  43.013  -3.723  1.00  0.00    -0.191 N 
ATOM      3  H4  UNL     1      20.325  42.412  -4.430  1.00  0.00     0.184 HD
HETATM    4  C7  UNL     1      20.248  43.025  -2.451  1.00  0.00     0.059 A 
HETATM    5  C8  UNL     1      20.799  43.823  -1.486  1.00  0.00     0.032 A 
HETATM    6  C9  UNL     1      21.882  44.617  -1.841  1.00  0.00     0.129 A 
HETATM    7  N7  UNL     1      22.343  44.579  -3.090  1.00  0.00    -0.176 N 
ATOM      8  H7  UNL     1      23.137  45.168  -3.339  1.00  0.00     0.186 HD
HETATM    9  C19 UNL     1      20.293  43.852  -0.279  1.00  0.00     0.000 A 
HETATM   10  C20 UNL     1      19.122  43.071   0.171  1.00  0.00    -0.022 A 
HETATM   11  C21 UNL     1      19.651  42.297   1.400  1.00  0.00     0.020 C 
HETATM   12  C25 UNL     1      18.605  42.159  -0.849  1.00  0.00     0.042 A 
HETATM   13  C26 UNL     1      19.238  42.249  -2.162  1.00  0.00     0.005 A 
ENDROOT
BRANCH   6  14
HETATM   14  N5  UNL     1      22.408  45.357  -0.946  1.00  0.00    -0.375 N 
ATOM     15  H5  UNL     1      21.878  46.187  -0.682  1.00  0.00     0.161 HD
BRANCH  14  16
HETATM   16  C10 UNL     1      23.649  45.162  -0.270  1.00  0.00     0.126 C 
BRANCH  16  17
HETATM   17  C11 UNL     1      23.547  44.326   0.990  1.00  0.00     0.064 C 
BRANCH  17  18
HETATM   18  C12 UNL     1      24.912  44.074   1.538  1.00  0.00     0.059 C 
BRANCH  18  19
HETATM   19  N6  UNL     1      25.305  44.823   2.663  1.00  0.00    -0.393 N 
HETATM   20  C13 UNL     1      24.282  45.320   3.497  1.00  0.00     0.122 C 
HETATM   21  C14 UNL     1      24.690  46.059   4.698  1.00  0.00     0.020 C 
HETATM   22  C15 UNL     1      25.826  46.984   4.634  1.00  0.00     0.002 C 
HETATM   23  C16 UNL     1      25.954  47.837   3.429  1.00  0.00     0.002 C 
HETATM   24  C17 UNL     1      25.819  47.102   2.130  1.00  0.00     0.020 C 
HETATM   25  C18 UNL     1      26.368  45.712   2.326  1.00  0.00     0.122 C 
ENDBRANCH  18  19
ENDBRANCH  17  18
ENDBRANCH  16  17
ENDBRANCH  14  16
ENDBRANCH   6  14
BRANCH   1  26
HETATM   26  N3  UNL     1      22.261  43.772  -5.247  1.00  0.00    -0.163 N 
HETATM   27  C5  UNL     1      23.053  44.860  -5.693  1.00  0.00     0.202 C 
HETATM   28  N1  UNL     1      22.518  45.874  -6.279  1.00  0.00    -0.364 N 
HETATM   29  N2  UNL     1      24.461  44.848  -5.500  1.00  0.00    -0.063 NA
ATOM     30  H1  UNL     1      21.509  45.894  -6.422  1.00  0.00     0.162 HD
ATOM     31  H3  UNL     1      22.065  42.987  -5.868  1.00  0.00     0.187 HD
BRANCH  28  32
HETATM   32  C4  UNL     1      23.322  46.986  -6.740  1.00  0.00     0.122 C 
BRANCH  32  33
HETATM   33  C3  UNL     1      22.531  48.265  -6.583  1.00  0.00     0.019 C 
BRANCH  33  34
HETATM   34  C2  UNL     1      22.175  48.455  -5.127  1.00  0.00    -0.003 C 
HETATM   35  C1  UNL     1      22.180  49.935  -4.806  1.00  0.00     0.005 C 
ENDBRANCH  33  34
ENDBRANCH  32  33
ENDBRANCH  28  32
ENDBRANCH   1  26
BRANCH  10  36
HETATM   36  C22 UNL     1      18.109  44.099   0.635  1.00  0.00     0.013 C 
BRANCH  36  37
HETATM   37  C23 UNL     1      16.696  43.851   0.313  1.00  0.00    -0.004 C 
HETATM   38  C24 UNL     1      15.800  43.345   1.378  1.00  0.00     0.005 C 
ENDBRANCH  36  37
ENDBRANCH  10  36
TORSDOF 11
ENDMDL
MODEL 4
REMARK VINA RESULT: -6.242656728      1.751      7.847
REMARK  11 active torsions:
REMARK  status: ('A' for Active; 'I' for Inactive)
REMARK    1  A    between atoms: C2_2  and  C3_3 
REMARK    2  A    between atoms: C3_3  and  C4_4 
REMARK    3  A    between atoms: C4_4  and  N1_5 
REMARK       I    between atoms: C5_7  and  N3_9 
REMARK    4  A    between atoms: N3_9  and  C6_11 
REMARK    5  A    between atoms: C9_16  and  N5_17 
REMARK    6  A    between atoms: N5_17  and  C10_19 
REMARK    7  A    between atoms: C10_19  and  C11_20 
REMARK    8  A    between atoms: C11_20  and  C12_21 
REMARK    9  A    between atoms: C12_21  and  N6_22 
REMARK   10  A    between atoms: C20_32  and  C22_34 
REMARK   11  A    between atoms: C22_34  and  C23_35 
ROOT
HETATM    1  C6  UNL     1      24.020  43.528  -2.200  1.00  0.00     0.686 A 
HETATM    2  N4  UNL     1      24.542  43.849  -3.392  1.00  0.00    -0.191 N 
ATOM      3  H4  UNL     1      25.487  43.550  -3.629  1.00  0.00     0.184 HD
HETATM    4  C7  UNL     1      23.811  44.575  -4.290  1.00  0.00     0.059 A 
HETATM    5  C8  UNL     1      22.541  44.988  -3.994  1.00  0.00     0.032 A 
HETATM    6  C9  UNL     1      22.020  44.644  -2.754  1.00  0.00     0.129 A 
HETATM    7  N7  UNL     1      22.761  43.935  -1.903  1.00  0.00    -0.176 N 
ATOM      8  H7  UNL     1      22.367  43.690  -0.996  1.00  0.00     0.186 HD
HETATM    9  C19 UNL     1      21.861  45.710  -4.848  1.00  0.00     0.000 A 
HETATM   10  C20 UNL     1      22.354  46.153  -6.170  1.00  0.00    -0.022 A 
HETATM   11  C21 UNL     1      21.278  45.632  -7.151  1.00  0.00     0.020 C 
HETATM   12  C25 UNL     1      23.677  45.626  -6.503  1.00  0.00     0.042 A 
HETATM   13  C26 UNL     1      24.340  44.861  -5.450  1.00  0.00     0.005 A 
ENDROOT
BRANCH   6  14
HETATM   14  N5  UNL     1      20.834  45.016  -2.473  1.00  0.00    -0.375 N 
ATOM     15  H5  UNL     1      20.335  45.519  -3.207  1.00  0.00     0.161 HD
BRANCH  14  16
HETATM   16  C10 UNL     1      20.119  44.812  -1.255  1.00  0.00     0.126 C 
BRANCH  16  17
HETATM   17  C11 UNL     1      19.380  43.491  -1.181  1.00  0.00     0.064 C 
BRANCH  17  18
HETATM   18  C12 UNL     1      19.542  42.899   0.181  1.00  0.00     0.059 C 
BRANCH  18  19
HETATM   19  N6  UNL     1      18.381  42.751   0.962  1.00  0.00    -0.393 N 
HETATM   20  C13 UNL     1      17.364  43.714   0.798  1.00  0.00     0.122 C 
HETATM   21  C14 UNL     1      16.133  43.534   1.576  1.00  0.00     0.020 C 
HETATM   22  C15 UNL     1      16.209  43.066   2.965  1.00  0.00     0.002 C 
HETATM   23  C16 UNL     1      17.289  43.613   3.819  1.00  0.00     0.002 C 
HETATM   24  C17 UNL     1      18.651  43.584   3.193  1.00  0.00     0.020 C 
HETATM   25  C18 UNL     1      18.722  42.375   2.295  1.00  0.00     0.122 C 
ENDBRANCH  18  19
ENDBRANCH  17  18
ENDBRANCH  16  17
ENDBRANCH  14  16
ENDBRANCH   6  14
BRANCH   1  26
HETATM   26  N3  UNL     1      24.714  42.843  -1.356  1.00  0.00    -0.163 N 
HETATM   27  C5  UNL     1      24.511  43.049   0.032  1.00  0.00     0.202 C 
HETATM   28  N1  UNL     1      25.205  43.914   0.684  1.00  0.00    -0.364 N 
HETATM   29  N2  UNL     1      23.530  42.294   0.732  1.00  0.00    -0.063 NA
ATOM     30  H1  UNL     1      25.911  44.462   0.192  1.00  0.00     0.162 HD
ATOM     31  H3  UNL     1      25.400  42.162  -1.682  1.00  0.00     0.187 HD
BRANCH  28  32
HETATM   32  C4  UNL     1      25.004  44.126   2.102  1.00  0.00     0.122 C 
BRANCH  32  33
HETATM   33  C3  UNL     1      25.949  45.206   2.579  1.00  0.00     0.019 C 
BRANCH  33  34
HETATM   34  C2  UNL     1      25.661  46.486   1.829  1.00  0.00    -0.003 C 
HETATM   35  C1  UNL     1      25.902  47.663   2.751  1.00  0.00     0.005 C 
ENDBRANCH  33  34
ENDBRANCH  32  33
ENDBRANCH  28  32
ENDBRANCH   1  26
BRANCH  10  36
HETATM   36  C22 UNL     1      22.295  47.667  -6.133  1.00  0.00     0.013 C 
BRANCH  36  37
HETATM   37  C23 UNL     1      21.815  48.295  -4.893  1.00  0.00    -0.004 C 
HETATM   38  C24 UNL     1      22.125  49.723  -4.652  1.00  0.00     0.005 C 
ENDBRANCH  36  37
ENDBRANCH  10  36
TORSDOF 11
ENDMDL
MODEL 5
REMARK VINA RESULT: -6.233562640      1.756      7.124
REMARK  11 active torsions:
REMARK  status: ('A' for Active; 'I' for Inactive)
REMARK    1  A    between atoms: C2_2  and  C3_3 
REMARK    2  A    between atoms: C3_3  and  C4_4 
REMARK    3  A    between atoms: C4_4  and  N1_5 
REMARK       I    between atoms: C5_7  and  N3_9 
REMARK    4  A    between atoms: N3_9  and  C6_11 
REMARK    5  A    between atoms: C9_16  and  N5_17 
REMARK    6  A    between atoms: N5_17  and  C10_19 
REMARK    7  A    between atoms: C10_19  and  C11_20 
REMARK    8  A    between atoms: C11_20  and  C12_21 
REMARK    9  A    between atoms: C12_21  and  N6_22 
REMARK   10  A    between atoms: C20_32  and  C22_34 
REMARK   11  A    between atoms: C22_34  and  C23_35 
ROOT
HETATM    1  C6  UNL     1      22.698  44.841  -0.046  1.00  0.00     0.686 A 
HETATM    2  N4  UNL     1      21.906  44.570   1.000  1.00  0.00    -0.191 N 
ATOM      3  H4  UNL     1      22.264  44.674   1.949  1.00  0.00     0.184 HD
HETATM    4  C7  UNL     1      20.619  44.153   0.800  1.00  0.00     0.059 A 
HETATM    5  C8  UNL     1      20.116  44.005  -0.464  1.00  0.00     0.032 A 
HETATM    6  C9  UNL     1      20.954  44.293  -1.533  1.00  0.00     0.129 A 
HETATM    7  N7  UNL     1      22.202  44.696  -1.300  1.00  0.00    -0.176 N 
ATOM      8  H7  UNL     1      22.807  44.904  -2.094  1.00  0.00     0.186 HD
HETATM    9  C19 UNL     1      18.893  43.575  -0.646  1.00  0.00     0.000 A 
HETATM   10  C20 UNL     1      17.950  43.210   0.433  1.00  0.00    -0.022 A 
HETATM   11  C21 UNL     1      16.710  44.086   0.143  1.00  0.00     0.020 C 
HETATM   12  C25 UNL     1      18.477  43.460   1.774  1.00  0.00     0.042 A 
HETATM   13  C26 UNL     1      19.866  43.909   1.838  1.00  0.00     0.005 A 
ENDROOT
BRANCH   6  14
HETATM   14  N5  UNL     1      20.491  44.168  -2.714  1.00  0.00    -0.375 N 
ATOM     15  H5  UNL     1      19.679  44.742  -2.942  1.00  0.00     0.161 HD
BRANCH  14  16
HETATM   16  C10 UNL     1      20.972  43.321  -3.756  1.00  0.00     0.126 C 
BRANCH  16  17
HETATM   17  C11 UNL     1      21.374  44.054  -5.020  1.00  0.00     0.064 C 
BRANCH  17  18
HETATM   18  C12 UNL     1      22.748  44.616  -4.860  1.00  0.00     0.059 C 
BRANCH  18  19
HETATM   19  N6  UNL     1      22.916  45.992  -5.104  1.00  0.00    -0.393 N 
HETATM   20  C13 UNL     1      21.831  46.839  -4.797  1.00  0.00     0.122 C 
HETATM   21  C14 UNL     1      22.020  48.280  -5.004  1.00  0.00     0.020 C 
HETATM   22  C15 UNL     1      22.758  48.757  -6.180  1.00  0.00     0.002 C 
HETATM   23  C16 UNL     1      22.515  48.073  -7.471  1.00  0.00     0.002 C 
HETATM   24  C17 UNL     1      22.574  46.577  -7.403  1.00  0.00     0.020 C 
HETATM   25  C18 UNL     1      23.583  46.201  -6.347  1.00  0.00     0.122 C 
ENDBRANCH  18  19
ENDBRANCH  17  18
ENDBRANCH  16  17
ENDBRANCH  14  16
ENDBRANCH   6  14
BRANCH   1  26
HETATM   26  N3  UNL     1      23.911  45.234   0.148  1.00  0.00    -0.163 N 
HETATM   27  C5  UNL     1      24.574  44.858   1.344  1.00  0.00     0.202 C 
HETATM   28  N1  UNL     1      24.526  45.604   2.392  1.00  0.00    -0.364 N 
HETATM   29  N2  UNL     1      25.310  43.643   1.403  1.00  0.00    -0.063 NA
ATOM     30  H1  UNL     1      24.000  46.477   2.361  1.00  0.00     0.162 HD
ATOM     31  H3  UNL     1      24.387  45.807  -0.548  1.00  0.00     0.187 HD
BRANCH  28  32
HETATM   32  C4  UNL     1      25.204  45.227   3.614  1.00  0.00     0.122 C 
BRANCH  32  33
HETATM   33  C3  UNL     1      25.298  46.435   4.519  1.00  0.00     0.019 C 
BRANCH  33  34
HETATM   34  C2  UNL     1      25.971  47.564   3.774  1.00  0.00    -0.003 C 
HETATM   35  C1  UNL     1      26.055  48.774   4.680  1.00  0.00     0.005 C 
ENDBRANCH  33  34
ENDBRANCH  32  33
ENDBRANCH  28  32
ENDBRANCH   1  26
BRANCH  10  36
HETATM   36  C22 UNL     1      17.597  41.757   0.181  1.00  0.00     0.013 C 
BRANCH  36  37
HETATM   37  C23 UNL     1      16.816  41.450  -1.027  1.00  0.00    -0.004 C 
HETATM   38  C24 UNL     1      17.351  40.459  -1.989  1.00  0.00     0.005 C 
ENDBRANCH  36  37
ENDBRANCH  10  36
TORSDOF 11
ENDMDL
