MODEL 1
REMARK VINA RESULT: -6.607401267      0.000      0.000
REMARK  11 active torsions:
REMARK  status: ('A' for Active; 'I' for Inactive)
REMARK    1  A    between atoms: C2_2  and  N1_3 
REMARK    2  A    between atoms: N1_3  and  C3_4 
REMARK    3  A    between atoms: C3_4  and  C4_5 
REMARK    4  A    between atoms: C4_5  and  C5_6 
REMARK    5  A    between atoms: C5_6  and  C6_7 
REMARK    6  A    between atoms: C7_10  and  C8_11 
REMARK    7  A    between atoms: C8_11  and  C9_12 
REMARK    8  A    between atoms: C9_12  and  C10_13 
REMARK    9  A    between atoms: C10_13  and  C11_14 
REMARK   10  A    between atoms: C12_15  and  C13_16 
REMARK   11  A    between atoms: C13_16  and  N3_17 
ROOT
HETATM    1  C6  UNL     1      21.456  44.063  -3.371  1.00  0.00    -0.016 C 
HETATM    2  N2  UNL     1      21.011  44.732  -2.402  1.00  0.00    -0.375 N 
ATOM      3  H2  UNL     1      20.715  45.674  -2.660  1.00  0.00     0.161 HD
HETATM    4  C7  UNL     1      20.839  44.444  -1.030  1.00  0.00     0.183 C 
HETATM    5  N4  UNL     1      21.859  45.199  -0.266  1.00  0.00    -0.340 N 
ATOM      6  H4  UNL     1      21.623  46.128   0.085  1.00  0.00     0.164 HD
HETATM    7  C16 UNL     1      23.151  44.679  -0.006  1.00  0.00     0.219 C 
HETATM    8  O2  UNL     1      24.104  45.498   0.112  1.00  0.00    -0.274 OA
HETATM    9  C17 UNL     1      23.416  43.225   0.132  1.00  0.00     0.103 C 
HETATM   10  C18 UNL     1      24.499  42.775  -0.840  1.00  0.00     0.009 C 
HETATM   11  C19 UNL     1      23.909  41.827  -1.879  1.00  0.00     0.001 C 
HETATM   12  C20 UNL     1      23.452  42.633  -3.073  1.00  0.00     0.006 C 
HETATM   13  C21 UNL     1      21.925  42.674  -3.156  1.00  0.00     0.052 C 
ENDROOT
BRANCH   1  14
HETATM   14  C5  UNL     1      21.466  44.755  -4.680  1.00  0.00     0.054 C 
BRANCH  14  15
HETATM   15  C4  UNL     1      22.363  45.899  -4.882  1.00  0.00     0.033 C 
BRANCH  15  16
HETATM   16  C3  UNL     1      21.862  47.092  -5.586  1.00  0.00     0.238 C 
BRANCH  16  17
HETATM   17  N1  UNL     1      22.662  47.378  -6.823  1.00  0.00    -0.065 N 
HETATM   18  C22 UNL     1      23.720  46.420  -6.789  1.00  0.00     0.257 C 
HETATM   19  C23 UNL     1      24.204  45.939  -8.130  1.00  0.00     0.150 C 
HETATM   20  N5  UNL     1      24.252  46.948  -9.142  1.00  0.00    -0.359 N 
HETATM   21  C24 UNL     1      23.194  47.734  -9.687  1.00  0.00     0.219 C 
ATOM     22  H5  UNL     1      25.176  47.132  -9.530  1.00  0.00     0.162 HD
HETATM   23  O3  UNL     1      23.405  48.446 -10.696  1.00  0.00    -0.274 OA
HETATM   24  C25 UNL     1      21.815  47.778  -9.136  1.00  0.00     0.130 C 
HETATM   25  C26 UNL     1      21.659  47.088  -7.834  1.00  0.00     0.246 C 
BRANCH  17  26
HETATM   26  C2  UNL     1      22.990  48.747  -6.715  1.00  0.00     0.233 C 
HETATM   27  C1  UNL     1      22.612  49.551  -5.556  1.00  0.00     0.035 C 
ENDBRANCH  17  26
ENDBRANCH  16  17
ENDBRANCH  15  16
ENDBRANCH  14  15
ENDBRANCH   1  14
BRANCH   4  28
HETATM   28  C8  UNL     1      19.490  45.002  -0.645  1.00  0.00     0.047 C 
BRANCH  28  29
HETATM   29  C9  UNL     1      18.611  44.182   0.192  1.00  0.00     0.016 C 
BRANCH  29  30
HETATM   30  C10 UNL     1      19.221  43.229   1.163  1.00  0.00     0.094 C 
BRANCH  30  31
HETATM   31  C11 UNL     1      19.561  44.004   2.390  1.00  0.00    -0.104 C 
HETATM   32  C12 UNL     1      19.835  44.611   3.391  1.00  0.00    -0.070 C 
BRANCH  32  33
HETATM   33  C13 UNL     1      20.144  45.360   4.621  1.00  0.00     0.404 C 
BRANCH  33  34
HETATM   34  N3  UNL     1      21.498  44.975   4.999  1.00  0.00     0.015 N 
HETATM   35  C14 UNL     1      22.360  44.876   3.833  1.00  0.00     0.357 C 
HETATM   36  C15 UNL     1      21.428  43.677   5.610  1.00  0.00     0.357 C 
HETATM   37  O1  UNL     1      21.987  45.922   5.811  1.00  0.00    -0.064 OA
ENDBRANCH  33  34
ENDBRANCH  32  33
ENDBRANCH  30  31
ENDBRANCH  29  30
ENDBRANCH  28  29
ENDBRANCH   4  28
TORSDOF 11
ENDMDL
MODEL 2
REMARK VINA RESULT: -6.508991043      2.630      9.066
REMARK  11 active torsions:
REMARK  status: ('A' for Active; 'I' for Inactive)
REMARK    1  A    between atoms: C2_2  and  N1_3 
REMARK    2  A    between atoms: N1_3  and  C3_4 
REMARK    3  A    between atoms: C3_4  and  C4_5 
REMARK    4  A    between atoms: C4_5  and  C5_6 
REMARK    5  A    between atoms: C5_6  and  C6_7 
REMARK    6  A    between atoms: C7_10  and  C8_11 
REMARK    7  A    between atoms: C8_11  and  C9_12 
REMARK    8  A    between atoms: C9_12  and  C10_13 
REMARK    9  A    between atoms: C10_13  and  C11_14 
REMARK   10  A    between atoms: C12_15  and  C13_16 
REMARK   11  A    between atoms: C13_16  and  N3_17 
ROOT
HETATM    1  C6  UNL     1      22.133  42.316   0.744  1.00  0.00    -0.016 C 
HETATM    2  N2  UNL     1      21.322  43.225   0.426  1.00  0.00    -0.375 N 
ATOM      3  H2  UNL     1      21.717  43.919  -0.209  1.00  0.00     0.161 HD
HETATM    4  C7  UNL     1      19.976  43.479   0.771  1.00  0.00     0.183 C 
HETATM    5  N4  UNL     1      19.944  44.643   1.688  1.00  0.00    -0.340 N 
ATOM      6  H4  UNL     1      19.831  45.577   1.294  1.00  0.00     0.164 HD
HETATM    7  C16 UNL     1      20.067  44.505   3.092  1.00  0.00     0.219 C 
HETATM    8  O2  UNL     1      20.589  45.457   3.736  1.00  0.00    -0.274 OA
HETATM    9  C17 UNL     1      19.608  43.297   3.822  1.00  0.00     0.103 C 
HETATM   10  C18 UNL     1      20.739  42.696   4.647  1.00  0.00     0.009 C 
HETATM   11  C19 UNL     1      21.118  41.326   4.095  1.00  0.00     0.001 C 
HETATM   12  C20 UNL     1      22.221  41.498   3.076  1.00  0.00     0.006 C 
HETATM   13  C21 UNL     1      21.706  41.232   1.660  1.00  0.00     0.052 C 
ENDROOT
BRANCH   1  14
HETATM   14  C5  UNL     1      23.483  42.422   0.146  1.00  0.00     0.054 C 
BRANCH  14  15
HETATM   15  C4  UNL     1      24.575  43.005   0.935  1.00  0.00     0.033 C 
BRANCH  15  16
HETATM   16  C3  UNL     1      24.733  44.469   0.977  1.00  0.00     0.238 C 
BRANCH  16  17
HETATM   17  N1  UNL     1      25.240  44.930   2.311  1.00  0.00    -0.065 N 
HETATM   18  C22 UNL     1      25.879  46.177   2.035  1.00  0.00     0.257 C 
HETATM   19  C23 UNL     1      25.813  47.199   3.137  1.00  0.00     0.150 C 
HETATM   20  N5  UNL     1      25.942  46.662   4.455  1.00  0.00    -0.359 N 
HETATM   21  C24 UNL     1      25.114  45.720   5.134  1.00  0.00     0.219 C 
ATOM     22  H5  UNL     1      26.743  47.002   4.988  1.00  0.00     0.162 HD
HETATM   23  O3  UNL     1      25.291  45.505   6.357  1.00  0.00    -0.274 OA
HETATM   24  C25 UNL     1      24.021  44.949   4.489  1.00  0.00     0.130 C 
HETATM   25  C26 UNL     1      23.976  45.079   3.014  1.00  0.00     0.246 C 
BRANCH  17  26
HETATM   26  C2  UNL     1      26.030  43.855   2.773  1.00  0.00     0.233 C 
HETATM   27  C1  UNL     1      27.489  43.873   2.703  1.00  0.00     0.035 C 
ENDBRANCH  17  26
ENDBRANCH  16  17
ENDBRANCH  15  16
ENDBRANCH  14  15
ENDBRANCH   1  14
BRANCH   4  28
HETATM   28  C8  UNL     1      19.283  43.898  -0.503  1.00  0.00     0.047 C 
BRANCH  28  29
HETATM   29  C9  UNL     1      19.986  44.811  -1.409  1.00  0.00     0.016 C 
BRANCH  29  30
HETATM   30  C10 UNL     1      20.537  44.277  -2.687  1.00  0.00     0.094 C 
BRANCH  30  31
HETATM   31  C11 UNL     1      21.138  45.425  -3.424  1.00  0.00    -0.104 C 
HETATM   32  C12 UNL     1      21.609  46.364  -4.009  1.00  0.00    -0.070 C 
BRANCH  32  33
HETATM   33  C13 UNL     1      22.170  47.508  -4.747  1.00  0.00     0.404 C 
BRANCH  33  34
HETATM   34  N3  UNL     1      22.282  47.078  -6.135  1.00  0.00     0.015 N 
HETATM   35  C14 UNL     1      23.214  45.969  -6.266  1.00  0.00     0.357 C 
HETATM   36  C15 UNL     1      22.798  48.183  -6.894  1.00  0.00     0.357 C 
HETATM   37  O1  UNL     1      21.073  46.669  -6.542  1.00  0.00    -0.064 OA
ENDBRANCH  33  34
ENDBRANCH  32  33
ENDBRANCH  30  31
ENDBRANCH  29  30
ENDBRANCH  28  29
ENDBRANCH   4  28
TORSDOF 11
ENDMDL
MODEL 3
REMARK VINA RESULT: -6.506489687      2.294      3.896
REMARK  11 active torsions:
REMARK  status: ('A' for Active; 'I' for Inactive)
REMARK    1  A    between atoms: C2_2  and  N1_3 
REMARK    2  A    between atoms: N1_3  and  C3_4 
REMARK    3  A    between atoms: C3_4  and  C4_5 
REMARK    4  A    between atoms: C4_5  and  C5_6 
REMARK    5  A    between atoms: C5_6  and  C6_7 
REMARK    6  A    between atoms: C7_10  and  C8_11 
REMARK    7  A    between atoms: C8_11  and  C9_12 
REMARK    8  A    between atoms: C9_12  and  C10_13 
REMARK    9  A    between atoms: C10_13  and  C11_14 
REMARK   10  A    between atoms: C12_15  and  C13_16 
REMARK   11  A    between atoms: C13_16  and  N3_17 
ROOT
HETATM    1  C6  UNL     1      22.321  44.963  -2.057  1.00  0.00    -0.016 C 
HETATM    2  N2  UNL     1      22.880  43.878  -2.365  1.00  0.00    -0.375 N 
ATOM      3  H2  UNL     1      23.448  43.938  -3.211  1.00  0.00     0.161 HD
HETATM    4  C7  UNL     1      22.879  42.593  -1.778  1.00  0.00     0.183 C 
HETATM    5  N4  UNL     1      22.073  41.692  -2.636  1.00  0.00    -0.340 N 
ATOM      6  H4  UNL     1      22.543  41.160  -3.368  1.00  0.00     0.164 HD
HETATM    7  C16 UNL     1      20.674  41.544  -2.475  1.00  0.00     0.219 C 
HETATM    8  O2  UNL     1      19.989  41.264  -3.497  1.00  0.00    -0.274 OA
HETATM    9  C17 UNL     1      19.997  41.705  -1.164  1.00  0.00     0.103 C 
HETATM   10  C18 UNL     1      18.890  42.750  -1.247  1.00  0.00     0.009 C 
HETATM   11  C19 UNL     1      19.247  43.958  -0.388  1.00  0.00     0.001 C 
HETATM   12  C20 UNL     1      19.986  44.964  -1.242  1.00  0.00     0.006 C 
HETATM   13  C21 UNL     1      21.463  45.035  -0.850  1.00  0.00     0.052 C 
ENDROOT
BRANCH   1  14
HETATM   14  C5  UNL     1      22.588  46.104  -2.962  1.00  0.00     0.054 C 
BRANCH  14  15
HETATM   15  C4  UNL     1      22.362  45.947  -4.403  1.00  0.00     0.033 C 
BRANCH  15  16
HETATM   16  C3  UNL     1      21.822  47.080  -5.175  1.00  0.00     0.238 C 
BRANCH  16  17
HETATM   17  N1  UNL     1      22.620  47.326  -6.422  1.00  0.00    -0.065 N 
HETATM   18  C22 UNL     1      23.682  46.374  -6.355  1.00  0.00     0.257 C 
HETATM   19  C23 UNL     1      24.168  45.848  -7.679  1.00  0.00     0.150 C 
HETATM   20  N5  UNL     1      24.210  46.821  -8.726  1.00  0.00    -0.359 N 
HETATM   21  C24 UNL     1      23.148  47.582  -9.297  1.00  0.00     0.219 C 
ATOM     22  H5  UNL     1      25.133  46.995  -9.121  1.00  0.00     0.162 HD
HETATM   23  O3  UNL     1      23.355  48.259 -10.332  1.00  0.00    -0.274 OA
HETATM   24  C25 UNL     1      21.769  47.640  -8.747  1.00  0.00     0.130 C 
HETATM   25  C26 UNL     1      21.617  46.995  -7.422  1.00  0.00     0.246 C 
BRANCH  17  26
HETATM   26  C2  UNL     1      22.941  48.699  -6.363  1.00  0.00     0.233 C 
HETATM   27  C1  UNL     1      22.461  49.568  -5.292  1.00  0.00     0.035 C 
ENDBRANCH  17  26
ENDBRANCH  16  17
ENDBRANCH  15  16
ENDBRANCH  14  15
ENDBRANCH   1  14
BRANCH   4  28
HETATM   28  C8  UNL     1      24.306  42.101  -1.834  1.00  0.00     0.047 C 
BRANCH  28  29
HETATM   29  C9  UNL     1      25.092  42.108  -0.597  1.00  0.00     0.016 C 
BRANCH  29  30
HETATM   30  C10 UNL     1      24.399  42.367   0.698  1.00  0.00     0.094 C 
BRANCH  30  31
HETATM   31  C11 UNL     1      24.756  43.751   1.121  1.00  0.00    -0.104 C 
HETATM   32  C12 UNL     1      25.048  44.872   1.442  1.00  0.00    -0.070 C 
BRANCH  32  33
HETATM   33  C13 UNL     1      25.430  46.237   1.841  1.00  0.00     0.404 C 
BRANCH  33  34
HETATM   34  N3  UNL     1      25.645  46.192   3.282  1.00  0.00     0.015 N 
HETATM   35  C14 UNL     1      24.443  45.764   3.978  1.00  0.00     0.357 C 
HETATM   36  C15 UNL     1      25.960  47.524   3.718  1.00  0.00     0.357 C 
HETATM   37  O1  UNL     1      26.619  45.306   3.528  1.00  0.00    -0.064 OA
ENDBRANCH  33  34
ENDBRANCH  32  33
ENDBRANCH  30  31
ENDBRANCH  29  30
ENDBRANCH  28  29
ENDBRANCH   4  28
TORSDOF 11
ENDMDL
MODEL 4
REMARK VINA RESULT: -6.451011032      2.382      3.877
REMARK  11 active torsions:
REMARK  status: ('A' for Active; 'I' for Inactive)
REMARK    1  A    between atoms: C2_2  and  N1_3 
REMARK    2  A    between atoms: N1_3  and  C3_4 
REMARK    3  A    between atoms: C3_4  and  C4_5 
REMARK    4  A    between atoms: C4_5  and  C5_6 
REMARK    5  A    between atoms: C5_6  and  C6_7 
REMARK    6  A    between atoms: C7_10  and  C8_11 
REMARK    7  A    between atoms: C8_11  and  C9_12 
REMARK    8  A    between atoms: C9_12  and  C10_13 
REMARK    9  A    between atoms: C10_13  and  C11_14 
REMARK   10  A    between atoms: C12_15  and  C13_16 
REMARK   11  A    between atoms: C13_16  and  N3_17 
ROOT
HETATM    1  C6  UNL     1      20.962  44.523  -1.722  1.00  0.00    -0.016 C 
HETATM    2  N2  UNL     1      21.832  43.628  -1.554  1.00  0.00    -0.375 N 
ATOM      3  H2  UNL     1      22.305  43.354  -2.416  1.00  0.00     0.161 HD
HETATM    4  C7  UNL     1      22.286  42.927  -0.415  1.00  0.00     0.183 C 
HETATM    5  N4  UNL     1      21.780  41.536  -0.496  1.00  0.00    -0.340 N 
ATOM      6  H4  UNL     1      22.363  40.827  -0.942  1.00  0.00     0.164 HD
HETATM    7  C16 UNL     1      20.519  41.156   0.022  1.00  0.00     0.219 C 
HETATM    8  O2  UNL     1      19.915  40.199  -0.537  1.00  0.00    -0.274 OA
HETATM    9  C17 UNL     1      19.892  41.835   1.184  1.00  0.00     0.103 C 
HETATM   10  C18 UNL     1      18.500  42.344   0.831  1.00  0.00     0.009 C 
HETATM   11  C19 UNL     1      18.480  43.869   0.857  1.00  0.00     0.001 C 
HETATM   12  C20 UNL     1      18.801  44.386  -0.526  1.00  0.00     0.006 C 
HETATM   13  C21 UNL     1      20.189  45.029  -0.563  1.00  0.00     0.052 C 
ENDROOT
BRANCH   1  14
HETATM   14  C5  UNL     1      20.792  45.002  -3.112  1.00  0.00     0.054 C 
BRANCH  14  15
HETATM   15  C4  UNL     1      21.870  45.771  -3.745  1.00  0.00     0.033 C 
BRANCH  15  16
HETATM   16  C3  UNL     1      21.532  46.958  -4.550  1.00  0.00     0.238 C 
BRANCH  16  17
HETATM   17  N1  UNL     1      22.411  47.071  -5.761  1.00  0.00    -0.065 N 
HETATM   18  C22 UNL     1      23.439  46.105  -5.542  1.00  0.00     0.257 C 
HETATM   19  C23 UNL     1      23.989  45.450  -6.781  1.00  0.00     0.150 C 
HETATM   20  N5  UNL     1      24.122  46.323  -7.905  1.00  0.00    -0.359 N 
HETATM   21  C24 UNL     1      23.120  47.054  -8.608  1.00  0.00     0.219 C 
ATOM     22  H5  UNL     1      25.073  46.439  -8.256  1.00  0.00     0.162 HD
HETATM   23  O3  UNL     1      23.409  47.629  -9.684  1.00  0.00    -0.274 OA
HETATM   24  C25 UNL     1      21.712  47.193  -8.154  1.00  0.00     0.130 C 
HETATM   25  C26 UNL     1      21.462  46.675  -6.789  1.00  0.00     0.246 C 
BRANCH  17  26
HETATM   26  C2  UNL     1      22.767  48.436  -5.804  1.00  0.00     0.233 C 
HETATM   27  C1  UNL     1      22.255  49.407  -4.841  1.00  0.00     0.035 C 
ENDBRANCH  17  26
ENDBRANCH  16  17
ENDBRANCH  15  16
ENDBRANCH  14  15
ENDBRANCH   1  14
BRANCH   4  28
HETATM   28  C8  UNL     1      23.789  42.862  -0.528  1.00  0.00     0.047 C 
BRANCH  28  29
HETATM   29  C9  UNL     1      24.589  43.767   0.302  1.00  0.00     0.016 C 
BRANCH  29  30
HETATM   30  C10 UNL     1      24.267  45.223   0.300  1.00  0.00     0.094 C 
BRANCH  30  31
HETATM   31  C11 UNL     1      24.873  45.813   1.527  1.00  0.00    -0.104 C 
HETATM   32  C12 UNL     1      25.382  46.280   2.511  1.00  0.00    -0.070 C 
BRANCH  32  33
HETATM   33  C13 UNL     1      25.996  46.831   3.730  1.00  0.00     0.404 C 
BRANCH  33  34
HETATM   34  N3  UNL     1      25.711  45.877   4.794  1.00  0.00     0.015 N 
HETATM   35  C14 UNL     1      26.066  44.525   4.394  1.00  0.00     0.357 C 
HETATM   36  C15 UNL     1      24.297  45.908   5.042  1.00  0.00     0.357 C 
HETATM   37  O1  UNL     1      26.448  46.212   5.862  1.00  0.00    -0.064 OA
ENDBRANCH  33  34
ENDBRANCH  32  33
ENDBRANCH  30  31
ENDBRANCH  29  30
ENDBRANCH  28  29
ENDBRANCH   4  28
TORSDOF 11
ENDMDL
MODEL 5
REMARK VINA RESULT: -6.436601608      3.946      7.585
REMARK  11 active torsions:
REMARK  status: ('A' for Active; 'I' for Inactive)
REMARK    1  A    between atoms: C2_2  and  N1_3 
REMARK    2  A    between atoms: N1_3  and  C3_4 
REMARK    3  A    between atoms: C3_4  and  C4_5 
REMARK    4  A    between atoms: C4_5  and  C5_6 
REMARK    5  A    between atoms: C5_6  and  C6_7 
REMARK    6  A    between atoms: C7_10  and  C8_11 
REMARK    7  A    between atoms: C8_11  and  C9_12 
REMARK    8  A    between atoms: C9_12  and  C10_13 
REMARK    9  A    between atoms: C10_13  and  C11_14 
REMARK   10  A    between atoms: C12_15  and  C13_16 
REMARK   11  A    between atoms: C13_16  and  N3_17 
ROOT
HETATM    1  C6  UNL     1      21.956  43.913   0.408  1.00  0.00    -0.016 C 
HETATM    2  N2  UNL     1      20.745  43.798   0.081  1.00  0.00    -0.375 N 
ATOM      3  H2  UNL     1      20.254  43.063   0.590  1.00  0.00     0.161 HD
HETATM    4  C7  UNL     1      19.929  44.482  -0.847  1.00  0.00     0.183 C 
HETATM    5  N4  UNL     1      19.670  43.575  -1.991  1.00  0.00    -0.340 N 
ATOM      6  H4  UNL     1      18.839  42.983  -1.970  1.00  0.00     0.164 HD
HETATM    7  C16 UNL     1      20.533  43.501  -3.111  1.00  0.00     0.219 C 
HETATM    8  O2  UNL     1      20.608  42.402  -3.727  1.00  0.00    -0.274 OA
HETATM    9  C17 UNL     1      21.341  44.656  -3.577  1.00  0.00     0.103 C 
HETATM   10  C18 UNL     1      22.819  44.293  -3.645  1.00  0.00     0.009 C 
HETATM   11  C19 UNL     1      23.603  45.097  -2.613  1.00  0.00     0.001 C 
HETATM   12  C20 UNL     1      23.673  44.305  -1.328  1.00  0.00     0.006 C 
HETATM   13  C21 UNL     1      22.803  44.941  -0.242  1.00  0.00     0.052 C 
ENDROOT
BRANCH   1  14
HETATM   14  C5  UNL     1      22.431  42.976   1.451  1.00  0.00     0.054 C 
BRANCH  14  15
HETATM   15  C4  UNL     1      23.156  43.502   2.614  1.00  0.00     0.033 C 
BRANCH  15  16
HETATM   16  C3  UNL     1      24.613  43.301   2.707  1.00  0.00     0.238 C 
BRANCH  16  17
HETATM   17  N1  UNL     1      25.317  44.560   3.120  1.00  0.00    -0.065 N 
HETATM   18  C22 UNL     1      25.648  45.200   1.888  1.00  0.00     0.257 C 
HETATM   19  C23 UNL     1      25.652  46.705   1.919  1.00  0.00     0.150 C 
HETATM   20  N5  UNL     1      26.166  47.274   3.125  1.00  0.00    -0.359 N 
HETATM   21  C24 UNL     1      25.691  47.142   4.463  1.00  0.00     0.219 C 
ATOM     22  H5  UNL     1      26.993  47.860   3.012  1.00  0.00     0.162 HD
HETATM   23  O3  UNL     1      26.173  47.863   5.368  1.00  0.00    -0.274 OA
HETATM   24  C25 UNL     1      24.635  46.187   4.885  1.00  0.00     0.130 C 
HETATM   25  C26 UNL     1      24.237  45.219   3.836  1.00  0.00     0.246 C 
BRANCH  17  26
HETATM   26  C2  UNL     1      26.367  44.112   3.951  1.00  0.00     0.233 C 
HETATM   27  C1  UNL     1      27.442  43.255   3.457  1.00  0.00     0.035 C 
ENDBRANCH  17  26
ENDBRANCH  16  17
ENDBRANCH  15  16
ENDBRANCH  14  15
ENDBRANCH   1  14
BRANCH   4  28
HETATM   28  C8  UNL     1      18.607  44.718  -0.157  1.00  0.00     0.047 C 
BRANCH  28  29
HETATM   29  C9  UNL     1      17.745  43.563   0.107  1.00  0.00     0.016 C 
BRANCH  29  30
HETATM   30  C10 UNL     1      17.010  43.492   1.402  1.00  0.00     0.094 C 
BRANCH  30  31
HETATM   31  C11 UNL     1      18.029  43.496   2.490  1.00  0.00    -0.104 C 
HETATM   32  C12 UNL     1      18.862  43.485   3.357  1.00  0.00    -0.070 C 
BRANCH  32  33
HETATM   33  C13 UNL     1      19.868  43.454   4.432  1.00  0.00     0.404 C 
BRANCH  33  34
HETATM   34  N3  UNL     1      20.061  44.838   4.846  1.00  0.00     0.015 N 
HETATM   35  C14 UNL     1      21.101  44.942   5.857  1.00  0.00     0.357 C 
HETATM   36  C15 UNL     1      18.830  45.297   5.427  1.00  0.00     0.357 C 
HETATM   37  O1  UNL     1      20.440  45.543   3.771  1.00  0.00    -0.064 OA
ENDBRANCH  33  34
ENDBRANCH  32  33
ENDBRANCH  30  31
ENDBRANCH  29  30
ENDBRANCH  28  29
ENDBRANCH   4  28
TORSDOF 11
ENDMDL
