MODEL 1
REMARK VINA RESULT: -6.868987449      0.000      0.000
REMARK  11 active torsions:
REMARK  status: ('A' for Active; 'I' for Inactive)
REMARK    1  A    between atoms: C3_5  and  C4_6 
REMARK    2  A    between atoms: C4_6  and  C5_7 
REMARK    3  A    between atoms: C6_8  and  O1_9 
REMARK    4  A    between atoms: C10_16  and  C11_17 
REMARK    5  A    between atoms: C11_17  and  C12_18 
REMARK    6  A    between atoms: C12_18  and  N3_19 
REMARK    7  A    between atoms: C15_22  and  O2_23 
REMARK    8  A    between atoms: O2_23  and  C16_24 
REMARK    9  A    between atoms: C19_28  and  C20_29 
REMARK   10  A    between atoms: C27_38  and  C28_39 
REMARK   11  A    between atoms: C28_39  and  C29_40 
ROOT
HETATM    1  C5  UNL     1      78.602  61.796  13.372  1.00  0.00     0.031 A 
HETATM    2  C6  UNL     1      77.465  61.198  13.829  1.00  0.00     0.153 A 
HETATM    3  N2  UNL     1      77.422  59.923  13.506  1.00  0.00    -0.322 N 
ATOM      4  H2  UNL     1      76.661  59.287  13.746  1.00  0.00     0.169 HD
HETATM    5  C7  UNL     1      78.536  59.574  12.804  1.00  0.00     0.120 A 
HETATM    6  C8  UNL     1      79.285  60.747  12.714  1.00  0.00     0.023 A 
HETATM    7  C9  UNL     1      80.474  60.751  12.052  1.00  0.00     0.024 A 
HETATM    8  C10 UNL     1      80.912  59.527  11.474  1.00  0.00    -0.040 A 
HETATM    9  C23 UNL     1      80.180  58.423  11.580  1.00  0.00     0.099 A 
HETATM   10  N4  UNL     1      78.984  58.433  12.247  1.00  0.00    -0.346 N 
HETATM   11  C24 UNL     1      78.235  57.221  12.328  1.00  0.00     0.157 C 
ENDROOT
BRANCH   8  12
HETATM   12  C11 UNL     1      82.220  59.689  10.768  1.00  0.00     0.068 C 
BRANCH  12  13
HETATM   13  C12 UNL     1      83.351  59.040  11.470  1.00  0.00     0.242 C 
BRANCH  13  14
HETATM   14  N3  UNL     1      84.195  59.864  12.252  1.00  0.00    -0.063 N 
HETATM   15  C13 UNL     1      84.988  60.778  11.426  1.00  0.00     0.240 C 
HETATM   16  C14 UNL     1      86.089  61.245  12.369  1.00  0.00     0.069 C 
HETATM   17  C15 UNL     1      86.075  60.158  13.428  1.00  0.00     0.108 C 
HETATM   18  C18 UNL     1      85.344  59.036  12.721  1.00  0.00     0.276 C 
HETATM   19  C19 UNL     1      85.004  60.555  14.398  1.00  0.00     0.118 C 
HETATM   20  C22 UNL     1      83.767  60.440  13.483  1.00  0.00     0.252 C 
BRANCH  17  21
HETATM   21  O2  UNL     1      87.304  59.797  13.898  1.00  0.00    -0.308 OA
BRANCH  21  22
HETATM   22  C16 UNL     1      88.453  59.810  13.169  1.00  0.00     0.255 C 
HETATM   23  C17 UNL     1      88.959  58.791  12.230  1.00  0.00     0.126 C 
HETATM   24  O3  UNL     1      89.227  60.829  13.301  1.00  0.00    -0.266 OA
ENDBRANCH  21  22
ENDBRANCH  17  21
BRANCH  19  25
HETATM   25  C20 UNL     1      85.142  61.965  14.855  1.00  0.00     0.131 C 
HETATM   26  C21 UNL     1      85.890  62.160  16.169  1.00  0.00     0.091 C 
HETATM   27  O4  UNL     1      84.748  62.938  14.323  1.00  0.00    -0.298 OA
ENDBRANCH  19  25
ENDBRANCH  13  14
ENDBRANCH  12  13
ENDBRANCH   8  12
BRANCH   1  28
HETATM   28  C4  UNL     1      79.134  63.125  13.499  1.00  0.00     0.046 C 
BRANCH  28  29
HETATM   29  C3  UNL     1      78.921  64.288  13.442  1.00  0.00     0.040 A 
HETATM   30  N1  UNL     1      78.210  65.340  13.550  1.00  0.00    -0.356 N 
HETATM   31  C2  UNL     1      78.565  66.570  13.102  1.00  0.00     0.030 A 
ATOM     32  H1  UNL     1      77.305  65.250  14.009  1.00  0.00     0.166 HD
HETATM   33  C1  UNL     1      77.774  67.517  13.273  1.00  0.00     0.043 C 
HETATM   34  C27 UNL     1      79.795  66.308  12.560  1.00  0.00    -0.024 A 
HETATM   35  C25 UNL     1      80.090  65.017  12.712  1.00  0.00    -0.027 A 
HETATM   36  C26 UNL     1      81.319  64.370  12.244  1.00  0.00     0.051 C 
BRANCH  34  37
HETATM   37  C28 UNL     1      80.586  67.353  11.809  1.00  0.00     0.041 C 
BRANCH  37  38
HETATM   38  C29 UNL     1      80.037  67.416  10.388  1.00  0.00     0.000 C 
HETATM   39  C30 UNL     1      80.431  68.667   9.677  1.00  0.00     0.005 C 
ENDBRANCH  37  38
ENDBRANCH  34  37
ENDBRANCH  28  29
ENDBRANCH   1  28
BRANCH   2  40
HETATM   40  O1  UNL     1      76.510  61.964  14.556  1.00  0.00    -0.345 OA
ATOM     41  H1  UNL     1      75.582  61.802  14.429  1.00  0.00     0.219 HD
ENDBRANCH   2  40
TORSDOF 11
ENDMDL
MODEL 2
REMARK VINA RESULT: -6.863202330      4.840     10.598
REMARK  11 active torsions:
REMARK  status: ('A' for Active; 'I' for Inactive)
REMARK    1  A    between atoms: C3_5  and  C4_6 
REMARK    2  A    between atoms: C4_6  and  C5_7 
REMARK    3  A    between atoms: C6_8  and  O1_9 
REMARK    4  A    between atoms: C10_16  and  C11_17 
REMARK    5  A    between atoms: C11_17  and  C12_18 
REMARK    6  A    between atoms: C12_18  and  N3_19 
REMARK    7  A    between atoms: C15_22  and  O2_23 
REMARK    8  A    between atoms: O2_23  and  C16_24 
REMARK    9  A    between atoms: C19_28  and  C20_29 
REMARK   10  A    between atoms: C27_38  and  C28_39 
REMARK   11  A    between atoms: C28_39  and  C29_40 
ROOT
HETATM    1  C5  UNL     1      80.345  63.200  13.294  1.00  0.00     0.031 A 
HETATM    2  C6  UNL     1      80.204  63.931  12.153  1.00  0.00     0.153 A 
HETATM    3  N2  UNL     1      79.071  64.601  12.141  1.00  0.00    -0.322 N 
ATOM      4  H2  UNL     1      78.763  65.211  11.383  1.00  0.00     0.169 HD
HETATM    5  C7  UNL     1      78.369  64.364  13.283  1.00  0.00     0.120 A 
HETATM    6  C8  UNL     1      79.163  63.482  14.016  1.00  0.00     0.023 A 
HETATM    7  C9  UNL     1      78.742  63.025  15.227  1.00  0.00     0.024 A 
HETATM    8  C10 UNL     1      77.482  63.484  15.704  1.00  0.00    -0.040 A 
HETATM    9  C23 UNL     1      76.748  64.329  14.987  1.00  0.00     0.099 A 
HETATM   10  N4  UNL     1      77.183  64.780  13.768  1.00  0.00    -0.346 N 
HETATM   11  C24 UNL     1      76.355  65.683  13.037  1.00  0.00     0.157 C 
ENDROOT
BRANCH   8  12
HETATM   12  C11 UNL     1      77.146  62.887  17.032  1.00  0.00     0.068 C 
BRANCH  12  13
HETATM   13  C12 UNL     1      76.466  63.832  17.947  1.00  0.00     0.242 C 
BRANCH  13  14
HETATM   14  N3  UNL     1      75.072  63.674  18.133  1.00  0.00    -0.063 N 
HETATM   15  C13 UNL     1      74.314  64.800  17.579  1.00  0.00     0.240 C 
HETATM   16  C14 UNL     1      72.945  64.662  18.233  1.00  0.00     0.069 C 
HETATM   17  C15 UNL     1      73.261  63.797  19.440  1.00  0.00     0.108 C 
HETATM   18  C18 UNL     1      74.761  63.961  19.564  1.00  0.00     0.276 C 
HETATM   19  C19 UNL     1      73.224  62.384  18.944  1.00  0.00     0.118 C 
HETATM   20  C22 UNL     1      74.420  62.418  17.970  1.00  0.00     0.252 C 
BRANCH  17  21
HETATM   21  O2  UNL     1      72.581  64.126  20.576  1.00  0.00    -0.308 OA
BRANCH  21  22
HETATM   22  C16 UNL     1      73.002  63.859  21.842  1.00  0.00     0.255 C 
HETATM   23  C17 UNL     1      73.134  62.551  22.512  1.00  0.00     0.126 C 
HETATM   24  O3  UNL     1      73.325  64.860  22.583  1.00  0.00    -0.266 OA
ENDBRANCH  21  22
ENDBRANCH  17  21
BRANCH  19  25
HETATM   25  C20 UNL     1      71.983  62.080  18.179  1.00  0.00     0.131 C 
HETATM   26  C21 UNL     1      72.194  61.611  16.744  1.00  0.00     0.091 C 
HETATM   27  O4  UNL     1      70.868  62.155  18.551  1.00  0.00    -0.298 OA
ENDBRANCH  19  25
ENDBRANCH  13  14
ENDBRANCH  12  13
ENDBRANCH   8  12
BRANCH   1  28
HETATM   28  C4  UNL     1      81.396  62.360  13.800  1.00  0.00     0.046 C 
BRANCH  28  29
HETATM   29  C3  UNL     1      82.469  62.303  14.297  1.00  0.00     0.040 A 
HETATM   30  N1  UNL     1      83.346  62.558  15.185  1.00  0.00    -0.356 N 
HETATM   31  C2  UNL     1      84.670  62.281  15.075  1.00  0.00     0.030 A 
ATOM     32  H1  UNL     1      83.028  63.004  16.045  1.00  0.00     0.166 HD
HETATM   33  C1  UNL     1      85.421  62.584  16.021  1.00  0.00     0.043 C 
HETATM   34  C27 UNL     1      84.717  61.711  13.831  1.00  0.00    -0.024 A 
HETATM   35  C25 UNL     1      83.493  61.675  13.304  1.00  0.00    -0.027 A 
HETATM   36  C26 UNL     1      83.159  61.146  11.979  1.00  0.00     0.051 C 
BRANCH  34  37
HETATM   37  C28 UNL     1      86.018  61.317  13.172  1.00  0.00     0.041 C 
BRANCH  37  38
HETATM   38  C29 UNL     1      86.441  59.972  13.753  1.00  0.00     0.000 C 
HETATM   39  C30 UNL     1      86.110  58.831  12.851  1.00  0.00     0.005 C 
ENDBRANCH  37  38
ENDBRANCH  34  37
ENDBRANCH  28  29
ENDBRANCH   1  28
BRANCH   2  40
HETATM   40  O1  UNL     1      81.225  63.894  11.161  1.00  0.00    -0.345 OA
ATOM     41  H1  UNL     1      81.084  64.323  10.324  1.00  0.00     0.219 HD
ENDBRANCH   2  40
TORSDOF 11
ENDMDL
MODEL 3
REMARK VINA RESULT: -6.798051746      4.913     10.484
REMARK  11 active torsions:
REMARK  status: ('A' for Active; 'I' for Inactive)
REMARK    1  A    between atoms: C3_5  and  C4_6 
REMARK    2  A    between atoms: C4_6  and  C5_7 
REMARK    3  A    between atoms: C6_8  and  O1_9 
REMARK    4  A    between atoms: C10_16  and  C11_17 
REMARK    5  A    between atoms: C11_17  and  C12_18 
REMARK    6  A    between atoms: C12_18  and  N3_19 
REMARK    7  A    between atoms: C15_22  and  O2_23 
REMARK    8  A    between atoms: O2_23  and  C16_24 
REMARK    9  A    between atoms: C19_28  and  C20_29 
REMARK   10  A    between atoms: C27_38  and  C28_39 
REMARK   11  A    between atoms: C28_39  and  C29_40 
ROOT
HETATM    1  C5  UNL     1      80.230  63.236  13.261  1.00  0.00     0.031 A 
HETATM    2  C6  UNL     1      80.048  64.010  12.154  1.00  0.00     0.153 A 
HETATM    3  N2  UNL     1      78.909  64.669  12.204  1.00  0.00    -0.322 N 
ATOM      4  H2  UNL     1      78.573  65.306  11.481  1.00  0.00     0.169 HD
HETATM    5  C7  UNL     1      78.245  64.381  13.357  1.00  0.00     0.120 A 
HETATM    6  C8  UNL     1      79.068  63.478  14.030  1.00  0.00     0.023 A 
HETATM    7  C9  UNL     1      78.688  62.969  15.233  1.00  0.00     0.024 A 
HETATM    8  C10 UNL     1      77.440  63.398  15.766  1.00  0.00    -0.040 A 
HETATM    9  C23 UNL     1      76.678  64.264  15.107  1.00  0.00     0.099 A 
HETATM   10  N4  UNL     1      77.071  64.766  13.894  1.00  0.00    -0.346 N 
HETATM   11  C24 UNL     1      76.214  65.690  13.225  1.00  0.00     0.157 C 
ENDROOT
BRANCH   8  12
HETATM   12  C11 UNL     1      77.150  62.745  17.079  1.00  0.00     0.068 C 
BRANCH  12  13
HETATM   13  C12 UNL     1      76.926  63.710  18.180  1.00  0.00     0.242 C 
BRANCH  13  14
HETATM   14  N3  UNL     1      75.722  63.597  18.915  1.00  0.00    -0.063 N 
HETATM   15  C13 UNL     1      74.914  62.458  18.471  1.00  0.00     0.240 C 
HETATM   16  C14 UNL     1      73.537  62.752  19.052  1.00  0.00     0.069 C 
HETATM   17  C15 UNL     1      73.618  64.246  19.308  1.00  0.00     0.108 C 
HETATM   18  C18 UNL     1      74.785  64.653  18.434  1.00  0.00     0.276 C 
HETATM   19  C19 UNL     1      74.271  64.390  20.648  1.00  0.00     0.118 C 
HETATM   20  C22 UNL     1      75.666  63.817  20.321  1.00  0.00     0.252 C 
BRANCH  17  21
HETATM   21  O2  UNL     1      72.472  64.937  19.043  1.00  0.00    -0.308 OA
BRANCH  21  22
HETATM   22  C16 UNL     1      72.231  65.642  17.905  1.00  0.00     0.255 C 
HETATM   23  C17 UNL     1      71.735  65.152  16.605  1.00  0.00     0.126 C 
HETATM   24  O3  UNL     1      72.466  66.907  17.930  1.00  0.00    -0.266 OA
ENDBRANCH  21  22
ENDBRANCH  17  21
BRANCH  19  25
HETATM   25  C20 UNL     1      73.629  63.542  21.690  1.00  0.00     0.131 C 
HETATM   26  C21 UNL     1      72.162  63.846  21.972  1.00  0.00     0.091 C 
HETATM   27  O4  UNL     1      74.116  62.671  22.314  1.00  0.00    -0.298 OA
ENDBRANCH  19  25
ENDBRANCH  13  14
ENDBRANCH  12  13
ENDBRANCH   8  12
BRANCH   1  28
HETATM   28  C4  UNL     1      81.302  62.386  13.700  1.00  0.00     0.046 C 
BRANCH  28  29
HETATM   29  C3  UNL     1      82.384  62.319  14.178  1.00  0.00     0.040 A 
HETATM   30  N1  UNL     1      83.270  62.535  15.067  1.00  0.00    -0.356 N 
HETATM   31  C2  UNL     1      84.597  62.291  14.921  1.00  0.00     0.030 A 
ATOM     32  H1  UNL     1      82.958  62.920  15.957  1.00  0.00     0.166 HD
HETATM   33  C1  UNL     1      85.357  62.548  15.873  1.00  0.00     0.043 C 
HETATM   34  C27 UNL     1      84.635  61.800  13.643  1.00  0.00    -0.024 A 
HETATM   35  C25 UNL     1      83.403  61.774  13.132  1.00  0.00    -0.027 A 
HETATM   36  C26 UNL     1      83.059  61.321  11.781  1.00  0.00     0.051 C 
BRANCH  34  37
HETATM   37  C28 UNL     1      85.932  61.473  12.942  1.00  0.00     0.041 C 
BRANCH  37  38
HETATM   38  C29 UNL     1      86.173  59.975  13.092  1.00  0.00     0.000 C 
HETATM   39  C30 UNL     1      87.448  59.670  13.805  1.00  0.00     0.005 C 
ENDBRANCH  37  38
ENDBRANCH  34  37
ENDBRANCH  28  29
ENDBRANCH   1  28
BRANCH   2  40
HETATM   40  O1  UNL     1      81.037  64.021  11.131  1.00  0.00    -0.345 OA
ATOM     41  H1  UNL     1      81.116  64.778  10.561  1.00  0.00     0.219 HD
ENDBRANCH   2  40
TORSDOF 11
ENDMDL
MODEL 4
REMARK VINA RESULT: -6.704235519      3.136      6.993
REMARK  11 active torsions:
REMARK  status: ('A' for Active; 'I' for Inactive)
REMARK    1  A    between atoms: C3_5  and  C4_6 
REMARK    2  A    between atoms: C4_6  and  C5_7 
REMARK    3  A    between atoms: C6_8  and  O1_9 
REMARK    4  A    between atoms: C10_16  and  C11_17 
REMARK    5  A    between atoms: C11_17  and  C12_18 
REMARK    6  A    between atoms: C12_18  and  N3_19 
REMARK    7  A    between atoms: C15_22  and  O2_23 
REMARK    8  A    between atoms: O2_23  and  C16_24 
REMARK    9  A    between atoms: C19_28  and  C20_29 
REMARK   10  A    between atoms: C27_38  and  C28_39 
REMARK   11  A    between atoms: C28_39  and  C29_40 
ROOT
HETATM    1  C5  UNL     1      76.351  67.837  12.868  1.00  0.00     0.031 A 
HETATM    2  C6  UNL     1      75.891  69.034  12.405  1.00  0.00     0.153 A 
HETATM    3  N2  UNL     1      76.809  69.671  11.709  1.00  0.00    -0.322 N 
ATOM      4  H2  UNL     1      76.679  70.584  11.271  1.00  0.00     0.169 HD
HETATM    5  C7  UNL     1      77.957  68.940  11.657  1.00  0.00     0.120 A 
HETATM    6  C8  UNL     1      77.679  67.783  12.385  1.00  0.00     0.023 A 
HETATM    7  C9  UNL     1      78.634  66.827  12.544  1.00  0.00     0.024 A 
HETATM    8  C10 UNL     1      79.902  67.054  11.939  1.00  0.00    -0.040 A 
HETATM    9  C23 UNL     1      80.138  68.163  11.246  1.00  0.00     0.099 A 
HETATM   10  N4  UNL     1      79.169  69.119  11.097  1.00  0.00    -0.346 N 
HETATM   11  C24 UNL     1      79.475  70.293  10.346  1.00  0.00     0.157 C 
ENDROOT
BRANCH   8  12
HETATM   12  C11 UNL     1      80.850  65.931  12.212  1.00  0.00     0.068 C 
BRANCH  12  13
HETATM   13  C12 UNL     1      80.481  64.670  11.530  1.00  0.00     0.242 C 
BRANCH  13  14
HETATM   14  N3  UNL     1      80.574  63.471  12.275  1.00  0.00    -0.063 N 
HETATM   15  C13 UNL     1      80.452  63.710  13.716  1.00  0.00     0.240 C 
HETATM   16  C14 UNL     1      80.989  62.426  14.336  1.00  0.00     0.069 C 
HETATM   17  C15 UNL     1      81.808  61.848  13.196  1.00  0.00     0.108 C 
HETATM   18  C18 UNL     1      82.007  63.056  12.305  1.00  0.00     0.276 C 
HETATM   19  C19 UNL     1      80.836  61.091  12.345  1.00  0.00     0.118 C 
HETATM   20  C22 UNL     1      79.959  62.260  11.848  1.00  0.00     0.252 C 
BRANCH  17  21
HETATM   21  O2  UNL     1      82.975  61.251  13.573  1.00  0.00    -0.308 OA
BRANCH  21  22
HETATM   22  C16 UNL     1      84.144  61.904  13.815  1.00  0.00     0.255 C 
HETATM   23  C17 UNL     1      84.551  62.646  15.024  1.00  0.00     0.126 C 
HETATM   24  O3  UNL     1      85.029  61.902  12.882  1.00  0.00    -0.266 OA
ENDBRANCH  21  22
ENDBRANCH  17  21
BRANCH  19  25
HETATM   25  C20 UNL     1      79.993  60.154  13.137  1.00  0.00     0.131 C 
HETATM   26  C21 UNL     1      78.489  60.394  13.056  1.00  0.00     0.091 C 
HETATM   27  O4  UNL     1      80.348  59.256  13.811  1.00  0.00    -0.298 OA
ENDBRANCH  19  25
ENDBRANCH  13  14
ENDBRANCH  12  13
ENDBRANCH   8  12
BRANCH   1  28
HETATM   28  C4  UNL     1      75.741  66.773  13.617  1.00  0.00     0.046 C 
BRANCH  28  29
HETATM   29  C3  UNL     1      75.471  66.339  14.685  1.00  0.00     0.040 A 
HETATM   30  N1  UNL     1      75.122  66.413  15.907  1.00  0.00    -0.356 N 
HETATM   31  C2  UNL     1      75.155  65.383  16.792  1.00  0.00     0.030 A 
ATOM     32  H1  UNL     1      74.790  67.315  16.248  1.00  0.00     0.166 HD
HETATM   33  C1  UNL     1      74.783  65.592  17.962  1.00  0.00     0.043 C 
HETATM   34  C27 UNL     1      75.640  64.375  16.003  1.00  0.00    -0.024 A 
HETATM   35  C25 UNL     1      75.850  64.829  14.766  1.00  0.00    -0.027 A 
HETATM   36  C26 UNL     1      76.378  64.036  13.654  1.00  0.00     0.051 C 
BRANCH  34  37
HETATM   37  C28 UNL     1      75.978  63.010  16.554  1.00  0.00     0.041 C 
BRANCH  37  38
HETATM   38  C29 UNL     1      77.374  63.090  17.163  1.00  0.00     0.000 C 
HETATM   39  C30 UNL     1      77.348  63.080  18.655  1.00  0.00     0.005 C 
ENDBRANCH  37  38
ENDBRANCH  34  37
ENDBRANCH  28  29
ENDBRANCH   1  28
BRANCH   2  40
HETATM   40  O1  UNL     1      74.560  69.441  12.703  1.00  0.00    -0.345 OA
ATOM     41  H1  UNL     1      74.384  70.349  12.922  1.00  0.00     0.219 HD
ENDBRANCH   2  40
TORSDOF 11
ENDMDL
MODEL 5
REMARK VINA RESULT: -6.671262080      0.985      2.411
REMARK  11 active torsions:
REMARK  status: ('A' for Active; 'I' for Inactive)
REMARK    1  A    between atoms: C3_5  and  C4_6 
REMARK    2  A    between atoms: C4_6  and  C5_7 
REMARK    3  A    between atoms: C6_8  and  O1_9 
REMARK    4  A    between atoms: C10_16  and  C11_17 
REMARK    5  A    between atoms: C11_17  and  C12_18 
REMARK    6  A    between atoms: C12_18  and  N3_19 
REMARK    7  A    between atoms: C15_22  and  O2_23 
REMARK    8  A    between atoms: O2_23  and  C16_24 
REMARK    9  A    between atoms: C19_28  and  C20_29 
REMARK   10  A    between atoms: C27_38  and  C28_39 
REMARK   11  A    between atoms: C28_39  and  C29_40 
ROOT
HETATM    1  C5  UNL     1      78.566  62.040  13.391  1.00  0.00     0.031 A 
HETATM    2  C6  UNL     1      77.511  61.365  13.930  1.00  0.00     0.153 A 
HETATM    3  N2  UNL     1      77.462  60.119  13.508  1.00  0.00    -0.322 N 
ATOM      4  H2  UNL     1      76.755  59.438  13.784  1.00  0.00     0.169 HD
HETATM    5  C7  UNL     1      78.491  59.870  12.650  1.00  0.00     0.120 A 
HETATM    6  C8  UNL     1      79.191  61.074  12.569  1.00  0.00     0.023 A 
HETATM    7  C9  UNL     1      80.288  61.176  11.772  1.00  0.00     0.024 A 
HETATM    8  C10 UNL     1      80.685  60.020  11.043  1.00  0.00    -0.040 A 
HETATM    9  C23 UNL     1      80.002  58.884  11.143  1.00  0.00     0.099 A 
HETATM   10  N4  UNL     1      78.897  58.795  11.948  1.00  0.00    -0.346 N 
HETATM   11  C24 UNL     1      78.198  57.554  12.016  1.00  0.00     0.157 C 
ENDROOT
BRANCH   8  12
HETATM   12  C11 UNL     1      81.890  60.287  10.202  1.00  0.00     0.068 C 
BRANCH  12  13
HETATM   13  C12 UNL     1      82.940  59.249  10.330  1.00  0.00     0.242 C 
BRANCH  13  14
HETATM   14  N3  UNL     1      83.988  59.489  11.249  1.00  0.00    -0.063 N 
HETATM   15  C13 UNL     1      83.679  58.964  12.582  1.00  0.00     0.240 C 
HETATM   16  C14 UNL     1      84.684  59.670  13.483  1.00  0.00     0.069 C 
HETATM   17  C15 UNL     1      85.080  60.865  12.634  1.00  0.00     0.108 C 
HETATM   18  C18 UNL     1      83.947  60.930  11.632  1.00  0.00     0.276 C 
HETATM   19  C19 UNL     1      86.163  60.371  11.725  1.00  0.00     0.118 C 
HETATM   20  C22 UNL     1      85.360  59.352  10.891  1.00  0.00     0.252 C 
BRANCH  17  21
HETATM   21  O2  UNL     1      85.263  62.026  13.326  1.00  0.00    -0.308 OA
BRANCH  21  22
HETATM   22  C16 UNL     1      84.721  62.304  14.543  1.00  0.00     0.255 C 
HETATM   23  C17 UNL     1      85.381  62.324  15.862  1.00  0.00     0.126 C 
HETATM   24  O3  UNL     1      83.465  62.580  14.583  1.00  0.00    -0.266 OA
ENDBRANCH  21  22
ENDBRANCH  17  21
BRANCH  19  25
HETATM   25  C20 UNL     1      87.242  59.656  12.460  1.00  0.00     0.131 C 
HETATM   26  C21 UNL     1      88.181  60.539  13.274  1.00  0.00     0.091 C 
HETATM   27  O4  UNL     1      87.452  58.497  12.488  1.00  0.00    -0.298 OA
ENDBRANCH  19  25
ENDBRANCH  13  14
ENDBRANCH  12  13
ENDBRANCH   8  12
BRANCH   1  28
HETATM   28  C4  UNL     1      79.072  63.373  13.565  1.00  0.00     0.046 C 
BRANCH  28  29
HETATM   29  C3  UNL     1      78.869  64.534  13.454  1.00  0.00     0.040 A 
HETATM   30  N1  UNL     1      78.169  65.596  13.518  1.00  0.00    -0.356 N 
HETATM   31  C2  UNL     1      78.529  66.800  13.005  1.00  0.00     0.030 A 
ATOM     32  H1  UNL     1      77.268  65.538  13.991  1.00  0.00     0.166 HD
HETATM   33  C1  UNL     1      77.749  67.762  13.138  1.00  0.00     0.043 C 
HETATM   34  C27 UNL     1      79.750  66.500  12.462  1.00  0.00    -0.024 A 
HETATM   35  C25 UNL     1      80.035  65.215  12.675  1.00  0.00    -0.027 A 
HETATM   36  C26 UNL     1      81.253  64.534  12.225  1.00  0.00     0.051 C 
BRANCH  34  37
HETATM   37  C28 UNL     1      80.541  67.499  11.652  1.00  0.00     0.041 C 
BRANCH  37  38
HETATM   38  C29 UNL     1      79.778  67.750  10.355  1.00  0.00     0.000 C 
HETATM   39  C30 UNL     1      79.827  66.582   9.428  1.00  0.00     0.005 C 
ENDBRANCH  37  38
ENDBRANCH  34  37
ENDBRANCH  28  29
ENDBRANCH   1  28
BRANCH   2  40
HETATM   40  O1  UNL     1      76.632  62.034  14.829  1.00  0.00    -0.345 OA
ATOM     41  H1  UNL     1      76.985  62.464  15.600  1.00  0.00     0.219 HD
ENDBRANCH   2  40
TORSDOF 11
ENDMDL
