MODEL 1
REMARK VINA RESULT: -6.714434869      0.000      0.000
REMARK  12 active torsions:
REMARK  status: ('A' for Active; 'I' for Inactive)
REMARK    1  A    between atoms: C3_3  and  C4_4 
REMARK    2  A    between atoms: C4_4  and  C5_5 
REMARK    3  A    between atoms: C5_5  and  C6_6 
REMARK    4  A    between atoms: C6_6  and  C7_7 
REMARK    5  A    between atoms: C10_10  and  C11_11 
REMARK    6  A    between atoms: C11_11  and  C12_12 
REMARK    7  A    between atoms: C17_19  and  O1_20 
REMARK    8  A    between atoms: O1_20  and  C18_21 
REMARK    9  A    between atoms: C18_21  and  C19_22 
REMARK   10  A    between atoms: C19_22  and  C20_23 
REMARK   11  A    between atoms: N2_27  and  O2_28 
REMARK   12  A    between atoms: C24_30  and  O3_31 
ROOT
HETATM    1  C1  UNL     1      81.179  64.294  11.823  1.00  0.00     0.012 C 
HETATM    2  C2  UNL     1      80.863  65.433  12.062  1.00  0.00    -0.117 C 
HETATM    3  C3  UNL     1      80.471  66.805  12.373  1.00  0.00     0.093 C 
ENDROOT
BRANCH   3   4
HETATM    4  C4  UNL     1      79.444  67.327  11.390  1.00  0.00     0.016 C 
BRANCH   4   5
HETATM    5  C5  UNL     1      78.258  67.940  12.125  1.00  0.00     0.030 C 
BRANCH   5   6
HETATM    6  C6  UNL     1      77.233  66.924  12.295  1.00  0.00     0.003 C 
BRANCH   6   7
HETATM    7  C7  UNL     1      76.932  66.085  13.269  1.00  0.00     0.031 A 
HETATM    8  C8  UNL     1      77.232  64.719  13.051  1.00  0.00     0.045 A 
HETATM    9  C9  UNL     1      76.836  64.009  14.138  1.00  0.00     0.021 A 
HETATM   10  C10 UNL     1      76.883  62.641  14.454  1.00  0.00     0.046 A 
HETATM   11  C31 UNL     1      76.276  64.986  15.045  1.00  0.00     0.059 A 
HETATM   12  N3  UNL     1      76.378  62.306  15.647  1.00  0.00    -0.355 N 
HETATM   13  C25 UNL     1      75.844  63.204  16.508  1.00  0.00     0.045 A 
ATOM     14  H3  UNL     1      76.395  61.323  15.922  1.00  0.00     0.166 HD
HETATM   15  C26 UNL     1      75.340  62.700  17.693  1.00  0.00     0.030 A 
HETATM   16  C30 UNL     1      75.764  64.560  16.262  1.00  0.00     0.018 A 
HETATM   17  C27 UNL     1      74.767  63.563  18.603  1.00  0.00     0.002 A 
HETATM   18  C28 UNL     1      74.681  64.910  18.365  1.00  0.00     0.001 A 
HETATM   19  C29 UNL     1      75.189  65.410  17.174  1.00  0.00     0.016 A 
HETATM   20  N4  UNL     1      76.365  66.210  14.471  1.00  0.00    -0.350 N 
HETATM   21  C32 UNL     1      75.989  67.456  15.070  1.00  0.00     0.156 C 
BRANCH  10  22
HETATM   22  C11 UNL     1      77.529  61.870  13.626  1.00  0.00     0.047 C 
BRANCH  22  23
HETATM   23  C12 UNL     1      78.812  61.242  13.582  1.00  0.00     0.035 C 
HETATM   24  C13 UNL     1      78.797  59.967  13.100  1.00  0.00     0.104 C 
HETATM   25  N1  UNL     1      79.886  59.055  12.904  1.00  0.00    -0.363 N 
HETATM   26  C14 UNL     1      81.209  59.535  12.549  1.00  0.00     0.061 A 
ATOM     27  H1  UNL     1      79.728  58.054  13.017  1.00  0.00     0.165 HD
HETATM   28  C15 UNL     1      81.865  58.712  11.665  1.00  0.00     0.035 A 
HETATM   29  C23 UNL     1      81.800  60.721  13.002  1.00  0.00     0.094 A 
HETATM   30  C16 UNL     1      83.117  59.090  11.238  1.00  0.00     0.039 A 
HETATM   31  C17 UNL     1      83.692  60.266  11.689  1.00  0.00     0.071 A 
HETATM   32  C22 UNL     1      83.047  61.099  12.577  1.00  0.00     0.071 A 
HETATM   33  N2  UNL     1      81.224  61.595  13.981  1.00  0.00    -0.199 N 
HETATM   34  C24 UNL     1      79.982  61.808  14.228  1.00  0.00     0.179 C 
BRANCH  31  35
HETATM   35  O1  UNL     1      84.959  60.637  11.249  1.00  0.00    -0.351 OA
BRANCH  35  36
HETATM   36  C18 UNL     1      86.077  59.962  11.746  1.00  0.00     0.175 C 
BRANCH  36  37
HETATM   37  C19 UNL     1      86.717  60.806  12.803  1.00  0.00     0.026 C 
BRANCH  37  38
HETATM   38  C20 UNL     1      86.491  60.218  14.183  1.00  0.00    -0.002 C 
HETATM   39  C21 UNL     1      85.739  61.181  15.070  1.00  0.00     0.005 C 
ENDBRANCH  37  38
ENDBRANCH  36  37
ENDBRANCH  35  36
ENDBRANCH  31  35
BRANCH  33  40
HETATM   40  O2  UNL     1      82.156  62.305  14.729  1.00  0.00    -0.280 OA
ATOM     41  H2  UNL     1      82.188  63.234  14.531  1.00  0.00     0.245 HD
ENDBRANCH  33  40
BRANCH  34  42
HETATM   42  O3  UNL     1      79.760  62.707  15.304  1.00  0.00    -0.344 OA
ATOM     43  H3  UNL     1      80.525  63.059  15.742  1.00  0.00     0.219 HD
ENDBRANCH  34  42
ENDBRANCH  22  23
ENDBRANCH  10  22
ENDBRANCH   6   7
ENDBRANCH   5   6
ENDBRANCH   4   5
ENDBRANCH   3   4
TORSDOF 12
ENDMDL
MODEL 2
REMARK VINA RESULT: -6.669372543      1.695      2.076
REMARK  12 active torsions:
REMARK  status: ('A' for Active; 'I' for Inactive)
REMARK    1  A    between atoms: C3_3  and  C4_4 
REMARK    2  A    between atoms: C4_4  and  C5_5 
REMARK    3  A    between atoms: C5_5  and  C6_6 
REMARK    4  A    between atoms: C6_6  and  C7_7 
REMARK    5  A    between atoms: C10_10  and  C11_11 
REMARK    6  A    between atoms: C11_11  and  C12_12 
REMARK    7  A    between atoms: C17_19  and  O1_20 
REMARK    8  A    between atoms: O1_20  and  C18_21 
REMARK    9  A    between atoms: C18_21  and  C19_22 
REMARK   10  A    between atoms: C19_22  and  C20_23 
REMARK   11  A    between atoms: N2_27  and  O2_28 
REMARK   12  A    between atoms: C24_30  and  O3_31 
ROOT
HETATM    1  C1  UNL     1      80.452  63.499  13.878  1.00  0.00     0.012 C 
HETATM    2  C2  UNL     1      80.634  64.265  12.965  1.00  0.00    -0.117 C 
HETATM    3  C3  UNL     1      80.879  65.190  11.861  1.00  0.00     0.093 C 
ENDROOT
BRANCH   3   4
HETATM    4  C4  UNL     1      80.490  66.607  12.224  1.00  0.00     0.016 C 
BRANCH   4   5
HETATM    5  C5  UNL     1      79.565  67.199  11.168  1.00  0.00     0.030 C 
BRANCH   5   6
HETATM    6  C6  UNL     1      78.200  67.171  11.667  1.00  0.00     0.003 C 
BRANCH   6   7
HETATM    7  C7  UNL     1      77.564  66.416  12.544  1.00  0.00     0.031 A 
HETATM    8  C8  UNL     1      77.374  65.057  12.197  1.00  0.00     0.045 A 
HETATM    9  C9  UNL     1      76.688  64.446  13.196  1.00  0.00     0.021 A 
HETATM   10  C10 UNL     1      76.230  63.131  13.373  1.00  0.00     0.046 A 
HETATM   11  C31 UNL     1      76.458  65.478  14.183  1.00  0.00     0.059 A 
HETATM   12  N3  UNL     1      75.568  62.897  14.514  1.00  0.00    -0.355 N 
HETATM   13  C25 UNL     1      75.337  63.850  15.448  1.00  0.00     0.045 A 
ATOM     14  H3  UNL     1      75.220  61.954  14.688  1.00  0.00     0.166 HD
HETATM   15  C26 UNL     1      74.618  63.461  16.563  1.00  0.00     0.030 A 
HETATM   16  C30 UNL     1      75.758  65.161  15.337  1.00  0.00     0.018 A 
HETATM   17  C27 UNL     1      74.335  64.391  17.540  1.00  0.00     0.002 A 
HETATM   18  C28 UNL     1      74.746  65.695  17.438  1.00  0.00     0.001 A 
HETATM   19  C29 UNL     1      75.468  66.079  16.316  1.00  0.00     0.016 A 
HETATM   20  N4  UNL     1      77.008  66.632  13.738  1.00  0.00    -0.350 N 
HETATM   21  C32 UNL     1      77.063  67.875  14.450  1.00  0.00     0.156 C 
BRANCH  10  22
HETATM   22  C11 UNL     1      76.608  62.252  12.488  1.00  0.00     0.047 C 
BRANCH  22  23
HETATM   23  C12 UNL     1      77.810  61.544  12.180  1.00  0.00     0.035 C 
HETATM   24  C13 UNL     1      78.385  61.901  10.997  1.00  0.00     0.104 C 
HETATM   25  N1  UNL     1      79.588  61.416  10.387  1.00  0.00    -0.363 N 
HETATM   26  C14 UNL     1      80.716  60.987  11.194  1.00  0.00     0.061 A 
ATOM     27  H1  UNL     1      79.652  61.372   9.370  1.00  0.00     0.165 HD
HETATM   28  C15 UNL     1      81.932  61.317  10.645  1.00  0.00     0.035 A 
HETATM   29  C23 UNL     1      80.638  60.327  12.426  1.00  0.00     0.094 A 
HETATM   30  C16 UNL     1      83.068  60.983  11.345  1.00  0.00     0.039 A 
HETATM   31  C17 UNL     1      82.981  60.333  12.564  1.00  0.00     0.071 A 
HETATM   32  C22 UNL     1      81.769  59.994  13.125  1.00  0.00     0.071 A 
HETATM   33  N2  UNL     1      79.420  59.875  13.032  1.00  0.00    -0.199 N 
HETATM   34  C24 UNL     1      78.242  60.376  12.925  1.00  0.00     0.179 C 
BRANCH  31  35
HETATM   35  O1  UNL     1      84.138  60.001  13.262  1.00  0.00    -0.351 OA
BRANCH  35  36
HETATM   36  C18 UNL     1      85.149  60.956  13.398  1.00  0.00     0.175 C 
BRANCH  36  37
HETATM   37  C19 UNL     1      84.706  61.988  14.386  1.00  0.00     0.026 C 
BRANCH  37  38
HETATM   38  C20 UNL     1      85.406  61.803  15.720  1.00  0.00    -0.002 C 
HETATM   39  C21 UNL     1      85.482  63.105  16.481  1.00  0.00     0.005 C 
ENDBRANCH  37  38
ENDBRANCH  36  37
ENDBRANCH  35  36
ENDBRANCH  31  35
BRANCH  33  40
HETATM   40  O2  UNL     1      79.570  58.762  13.851  1.00  0.00    -0.280 OA
ATOM     41  H2  UNL     1      78.766  58.282  14.008  1.00  0.00     0.245 HD
ENDBRANCH  33  40
BRANCH  34  42
HETATM   42  O3  UNL     1      77.246  59.646  13.626  1.00  0.00    -0.344 OA
ATOM     43  H3  UNL     1      77.036  59.932  14.507  1.00  0.00     0.219 HD
ENDBRANCH  34  42
ENDBRANCH  22  23
ENDBRANCH  10  22
ENDBRANCH   6   7
ENDBRANCH   5   6
ENDBRANCH   4   5
ENDBRANCH   3   4
TORSDOF 12
ENDMDL
MODEL 3
REMARK VINA RESULT: -6.637524022      2.393      3.887
REMARK  12 active torsions:
REMARK  status: ('A' for Active; 'I' for Inactive)
REMARK    1  A    between atoms: C3_3  and  C4_4 
REMARK    2  A    between atoms: C4_4  and  C5_5 
REMARK    3  A    between atoms: C5_5  and  C6_6 
REMARK    4  A    between atoms: C6_6  and  C7_7 
REMARK    5  A    between atoms: C10_10  and  C11_11 
REMARK    6  A    between atoms: C11_11  and  C12_12 
REMARK    7  A    between atoms: C17_19  and  O1_20 
REMARK    8  A    between atoms: O1_20  and  C18_21 
REMARK    9  A    between atoms: C18_21  and  C19_22 
REMARK   10  A    between atoms: C19_22  and  C20_23 
REMARK   11  A    between atoms: N2_27  and  O2_28 
REMARK   12  A    between atoms: C24_30  and  O3_31 
ROOT
HETATM    1  C1  UNL     1      79.437  64.652   8.608  1.00  0.00     0.012 C 
HETATM    2  C2  UNL     1      79.786  65.772   8.331  1.00  0.00    -0.117 C 
HETATM    3  C3  UNL     1      80.232  67.124   8.001  1.00  0.00     0.093 C 
ENDROOT
BRANCH   3   4
HETATM    4  C4  UNL     1      79.635  68.151   8.939  1.00  0.00     0.016 C 
BRANCH   4   5
HETATM    5  C5  UNL     1      80.647  68.563  10.002  1.00  0.00     0.030 C 
BRANCH   5   6
HETATM    6  C6  UNL     1      80.098  68.269  11.315  1.00  0.00     0.003 C 
BRANCH   6   7
HETATM    7  C7  UNL     1      79.744  67.154  11.928  1.00  0.00     0.031 A 
HETATM    8  C8  UNL     1      80.639  66.061  11.830  1.00  0.00     0.045 A 
HETATM    9  C9  UNL     1      80.105  65.004  12.494  1.00  0.00     0.021 A 
HETATM   10  C10 UNL     1      80.550  63.690  12.710  1.00  0.00     0.046 A 
HETATM   11  C31 UNL     1      78.841  65.480  13.011  1.00  0.00     0.059 A 
HETATM   12  N3  UNL     1      79.728  62.911  13.425  1.00  0.00    -0.355 N 
HETATM   13  C25 UNL     1      78.539  63.336  13.913  1.00  0.00     0.045 A 
ATOM     14  H3  UNL     1      80.013  61.949  13.612  1.00  0.00     0.166 HD
HETATM   15  C26 UNL     1      77.791  62.407  14.613  1.00  0.00     0.030 A 
HETATM   16  C30 UNL     1      78.041  64.612  13.737  1.00  0.00     0.018 A 
HETATM   17  C27 UNL     1      76.562  62.774  15.119  1.00  0.00     0.002 A 
HETATM   18  C28 UNL     1      76.059  64.038  14.947  1.00  0.00     0.001 A 
HETATM   19  C29 UNL     1      76.815  64.965  14.244  1.00  0.00     0.016 A 
HETATM   20  N4  UNL     1      78.684  66.774  12.643  1.00  0.00    -0.350 N 
HETATM   21  C32 UNL     1      77.600  67.634  13.014  1.00  0.00     0.156 C 
BRANCH  10  22
HETATM   22  C11 UNL     1      81.760  63.407  12.317  1.00  0.00     0.047 C 
BRANCH  22  23
HETATM   23  C12 UNL     1      82.681  62.330  12.496  1.00  0.00     0.035 C 
HETATM   24  C13 UNL     1      82.775  61.487  11.429  1.00  0.00     0.104 C 
HETATM   25  N1  UNL     1      83.598  60.326  11.256  1.00  0.00    -0.363 N 
HETATM   26  C14 UNL     1      84.911  60.241  11.870  1.00  0.00     0.061 A 
ATOM     27  H1  UNL     1      83.256  59.548  10.694  1.00  0.00     0.165 HD
HETATM   28  C15 UNL     1      85.840  59.606  11.079  1.00  0.00     0.035 A 
HETATM   29  C23 UNL     1      85.266  60.760  13.121  1.00  0.00     0.094 A 
HETATM   30  C16 UNL     1      87.126  59.499  11.553  1.00  0.00     0.039 A 
HETATM   31  C17 UNL     1      87.469  60.017  12.791  1.00  0.00     0.071 A 
HETATM   32  C22 UNL     1      86.548  60.654  13.595  1.00  0.00     0.071 A 
HETATM   33  N2  UNL     1      84.349  61.364  14.042  1.00  0.00    -0.199 N 
HETATM   34  C24 UNL     1      83.270  62.011  13.784  1.00  0.00     0.179 C 
BRANCH  31  35
HETATM   35  O1  UNL     1      88.774  59.901  13.259  1.00  0.00    -0.351 OA
BRANCH  35  36
HETATM   36  C18 UNL     1      89.790  60.619  12.624  1.00  0.00     0.175 C 
BRANCH  36  37
HETATM   37  C19 UNL     1      90.823  59.655  12.129  1.00  0.00     0.026 C 
BRANCH  37  38
HETATM   38  C20 UNL     1      90.744  58.338  12.878  1.00  0.00    -0.002 C 
HETATM   39  C21 UNL     1      90.501  57.186  11.933  1.00  0.00     0.005 C 
ENDBRANCH  37  38
ENDBRANCH  36  37
ENDBRANCH  35  36
ENDBRANCH  31  35
BRANCH  33  40
HETATM   40  O2  UNL     1      84.712  61.232  15.377  1.00  0.00    -0.280 OA
ATOM     41  H2  UNL     1      83.984  61.270  15.985  1.00  0.00     0.245 HD
ENDBRANCH  33  40
BRANCH  34  42
HETATM   42  O3  UNL     1      82.569  62.437  14.944  1.00  0.00    -0.344 OA
ATOM     43  H3  UNL     1      82.602  61.870  15.705  1.00  0.00     0.219 HD
ENDBRANCH  34  42
ENDBRANCH  22  23
ENDBRANCH  10  22
ENDBRANCH   6   7
ENDBRANCH   5   6
ENDBRANCH   4   5
ENDBRANCH   3   4
TORSDOF 12
ENDMDL
MODEL 4
REMARK VINA RESULT: -6.556165518      1.500      1.916
REMARK  12 active torsions:
REMARK  status: ('A' for Active; 'I' for Inactive)
REMARK    1  A    between atoms: C3_3  and  C4_4 
REMARK    2  A    between atoms: C4_4  and  C5_5 
REMARK    3  A    between atoms: C5_5  and  C6_6 
REMARK    4  A    between atoms: C6_6  and  C7_7 
REMARK    5  A    between atoms: C10_10  and  C11_11 
REMARK    6  A    between atoms: C11_11  and  C12_12 
REMARK    7  A    between atoms: C17_19  and  O1_20 
REMARK    8  A    between atoms: O1_20  and  C18_21 
REMARK    9  A    between atoms: C18_21  and  C19_22 
REMARK   10  A    between atoms: C19_22  and  C20_23 
REMARK   11  A    between atoms: N2_27  and  O2_28 
REMARK   12  A    between atoms: C24_30  and  O3_31 
ROOT
HETATM    1  C1  UNL     1      80.862  65.063  12.549  1.00  0.00     0.012 C 
HETATM    2  C2  UNL     1      80.443  65.993  11.906  1.00  0.00    -0.117 C 
HETATM    3  C3  UNL     1      79.958  67.131  11.128  1.00  0.00     0.093 C 
ENDROOT
BRANCH   3   4
HETATM    4  C4  UNL     1      78.920  67.925  11.892  1.00  0.00     0.016 C 
BRANCH   4   5
HETATM    5  C5  UNL     1      77.515  67.441  11.554  1.00  0.00     0.030 C 
BRANCH   5   6
HETATM    6  C6  UNL     1      76.736  67.363  12.780  1.00  0.00     0.003 C 
BRANCH   6   7
HETATM    7  C7  UNL     1      76.476  66.393  13.636  1.00  0.00     0.031 A 
HETATM    8  C8  UNL     1      76.587  65.067  13.151  1.00  0.00     0.045 A 
HETATM    9  C9  UNL     1      76.263  64.210  14.153  1.00  0.00     0.021 A 
HETATM   10  C10 UNL     1      76.196  62.810  14.227  1.00  0.00     0.046 A 
HETATM   11  C31 UNL     1      75.946  65.054  15.284  1.00  0.00     0.059 A 
HETATM   12  N3  UNL     1      75.822  62.310  15.411  1.00  0.00    -0.355 N 
HETATM   13  C25 UNL     1      75.516  63.082  16.481  1.00  0.00     0.045 A 
ATOM     14  H3  UNL     1      75.764  61.297  15.513  1.00  0.00     0.166 HD
HETATM   15  C26 UNL     1      75.122  62.420  17.629  1.00  0.00     0.030 A 
HETATM   16  C30 UNL     1      75.558  64.462  16.477  1.00  0.00     0.018 A 
HETATM   17  C27 UNL     1      74.780  63.152  18.746  1.00  0.00     0.002 A 
HETATM   18  C28 UNL     1      74.817  64.522  18.750  1.00  0.00     0.001 A 
HETATM   19  C29 UNL     1      75.213  65.181  17.595  1.00  0.00     0.016 A 
HETATM   20  N4  UNL     1      76.096  66.348  14.914  1.00  0.00    -0.350 N 
HETATM   21  C32 UNL     1      75.949  67.494  15.761  1.00  0.00     0.156 C 
BRANCH  10  22
HETATM   22  C11 UNL     1      76.631  62.146  13.194  1.00  0.00     0.047 C 
BRANCH  22  23
HETATM   23  C12 UNL     1      77.882  61.607  12.761  1.00  0.00     0.035 C 
HETATM   24  C13 UNL     1      78.427  62.244  11.686  1.00  0.00     0.104 C 
HETATM   25  N1  UNL     1      79.661  61.985  11.005  1.00  0.00    -0.363 N 
HETATM   26  C14 UNL     1      80.819  61.479  11.720  1.00  0.00     0.061 A 
ATOM     27  H1  UNL     1      79.727  62.159  10.002  1.00  0.00     0.165 HD
HETATM   28  C15 UNL     1      82.007  62.004  11.269  1.00  0.00     0.035 A 
HETATM   29  C23 UNL     1      80.792  60.573  12.787  1.00  0.00     0.094 A 
HETATM   30  C16 UNL     1      83.166  61.614  11.899  1.00  0.00     0.039 A 
HETATM   31  C17 UNL     1      83.129  60.719  12.955  1.00  0.00     0.071 A 
HETATM   32  C22 UNL     1      81.946  60.183  13.416  1.00  0.00     0.071 A 
HETATM   33  N2  UNL     1      79.612  59.917  13.269  1.00  0.00    -0.199 N 
HETATM   34  C24 UNL     1      78.400  60.343  13.252  1.00  0.00     0.179 C 
BRANCH  31  35
HETATM   35  O1  UNL     1      84.309  60.333  13.584  1.00  0.00    -0.351 OA
BRANCH  35  36
HETATM   36  C18 UNL     1      85.202  61.316  14.018  1.00  0.00     0.175 C 
BRANCH  36  37
HETATM   37  C19 UNL     1      85.946  60.798  15.208  1.00  0.00     0.026 C 
BRANCH  37  38
HETATM   38  C20 UNL     1      85.731  61.689  16.417  1.00  0.00    -0.002 C 
HETATM   39  C21 UNL     1      85.337  63.086  16.002  1.00  0.00     0.005 C 
ENDBRANCH  37  38
ENDBRANCH  36  37
ENDBRANCH  35  36
ENDBRANCH  31  35
BRANCH  33  40
HETATM   40  O2  UNL     1      79.845  58.671  13.839  1.00  0.00    -0.280 OA
ATOM     41  H2  UNL     1      79.936  58.686  14.784  1.00  0.00     0.245 HD
ENDBRANCH  33  40
BRANCH  34  42
HETATM   42  O3  UNL     1      77.462  59.412  13.772  1.00  0.00    -0.344 OA
ATOM     43  H3  UNL     1      76.701  59.217  13.237  1.00  0.00     0.219 HD
ENDBRANCH  34  42
ENDBRANCH  22  23
ENDBRANCH  10  22
ENDBRANCH   6   7
ENDBRANCH   5   6
ENDBRANCH   4   5
ENDBRANCH   3   4
TORSDOF 12
ENDMDL
MODEL 5
REMARK VINA RESULT: -6.424162762      2.842      4.615
REMARK  12 active torsions:
REMARK  status: ('A' for Active; 'I' for Inactive)
REMARK    1  A    between atoms: C3_3  and  C4_4 
REMARK    2  A    between atoms: C4_4  and  C5_5 
REMARK    3  A    between atoms: C5_5  and  C6_6 
REMARK    4  A    between atoms: C6_6  and  C7_7 
REMARK    5  A    between atoms: C10_10  and  C11_11 
REMARK    6  A    between atoms: C11_11  and  C12_12 
REMARK    7  A    between atoms: C17_19  and  O1_20 
REMARK    8  A    between atoms: O1_20  and  C18_21 
REMARK    9  A    between atoms: C18_21  and  C19_22 
REMARK   10  A    between atoms: C19_22  and  C20_23 
REMARK   11  A    between atoms: N2_27  and  O2_28 
REMARK   12  A    between atoms: C24_30  and  O3_31 
ROOT
HETATM    1  C1  UNL     1      83.961  67.806   5.789  1.00  0.00     0.012 C 
HETATM    2  C2  UNL     1      83.913  68.600   6.695  1.00  0.00    -0.117 C 
HETATM    3  C3  UNL     1      83.858  69.544   7.809  1.00  0.00     0.093 C 
ENDROOT
BRANCH   3   4
HETATM    4  C4  UNL     1      82.499  70.201   7.916  1.00  0.00     0.016 C 
BRANCH   4   5
HETATM    5  C5  UNL     1      81.399  69.151   8.015  1.00  0.00     0.030 C 
BRANCH   5   6
HETATM    6  C6  UNL     1      80.329  69.666   8.853  1.00  0.00     0.003 C 
BRANCH   6   7
HETATM    7  C7  UNL     1      79.714  69.214   9.929  1.00  0.00     0.031 A 
HETATM    8  C8  UNL     1      80.243  68.040  10.521  1.00  0.00     0.045 A 
HETATM    9  C9  UNL     1      79.476  67.712  11.592  1.00  0.00     0.021 A 
HETATM   10  C10 UNL     1      79.536  66.661  12.521  1.00  0.00     0.046 A 
HETATM   11  C31 UNL     1      78.448  68.727  11.647  1.00  0.00     0.059 A 
HETATM   12  N3  UNL     1      78.579  66.662  13.458  1.00  0.00    -0.355 N 
HETATM   13  C25 UNL     1      77.605  67.599  13.524  1.00  0.00     0.045 A 
ATOM     14  H3  UNL     1      78.586  65.920  14.158  1.00  0.00     0.166 HD
HETATM   15  C26 UNL     1      76.673  67.452  14.535  1.00  0.00     0.030 A 
HETATM   16  C30 UNL     1      77.486  68.657  12.644  1.00  0.00     0.018 A 
HETATM   17  C27 UNL     1      75.645  68.365  14.643  1.00  0.00     0.002 A 
HETATM   18  C28 UNL     1      75.519  69.416  13.773  1.00  0.00     0.001 A 
HETATM   19  C29 UNL     1      76.456  69.558  12.760  1.00  0.00     0.016 A 
HETATM   20  N4  UNL     1      78.645  69.598  10.630  1.00  0.00    -0.350 N 
HETATM   21  C32 UNL     1      77.888  70.788  10.374  1.00  0.00     0.156 C 
BRANCH  10  22
HETATM   22  C11 UNL     1      80.579  65.882  12.461  1.00  0.00     0.047 C 
BRANCH  22  23
HETATM   23  C12 UNL     1      80.817  64.481  12.309  1.00  0.00     0.035 C 
HETATM   24  C13 UNL     1      80.964  64.074  11.016  1.00  0.00     0.104 C 
HETATM   25  N1  UNL     1      81.225  62.762  10.500  1.00  0.00    -0.363 N 
HETATM   26  C14 UNL     1      82.026  61.809  11.247  1.00  0.00     0.061 A 
ATOM     27  H1  UNL     1      80.842  62.494   9.594  1.00  0.00     0.165 HD
HETATM   28  C15 UNL     1      82.834  61.036  10.448  1.00  0.00     0.035 A 
HETATM   29  C23 UNL     1      82.041  61.665  12.640  1.00  0.00     0.094 A 
HETATM   30  C16 UNL     1      83.659  60.120  11.059  1.00  0.00     0.039 A 
HETATM   31  C17 UNL     1      83.669  59.986  12.437  1.00  0.00     0.071 A 
HETATM   32  C22 UNL     1      82.862  60.753  13.250  1.00  0.00     0.071 A 
HETATM   33  N2  UNL     1      81.177  62.370  13.541  1.00  0.00    -0.199 N 
HETATM   34  C24 UNL     1      80.661  63.538  13.401  1.00  0.00     0.179 C 
BRANCH  31  35
HETATM   35  O1  UNL     1      84.508  59.055  13.042  1.00  0.00    -0.351 OA
BRANCH  35  36
HETATM   36  C18 UNL     1      85.822  58.928  12.588  1.00  0.00     0.175 C 
BRANCH  36  37
HETATM   37  C19 UNL     1      86.740  59.554  13.591  1.00  0.00     0.026 C 
BRANCH  37  38
HETATM   38  C20 UNL     1      87.838  60.347  12.907  1.00  0.00    -0.002 C 
HETATM   39  C21 UNL     1      87.278  61.218  11.807  1.00  0.00     0.005 C 
ENDBRANCH  37  38
ENDBRANCH  36  37
ENDBRANCH  35  36
ENDBRANCH  31  35
BRANCH  33  40
HETATM   40  O2  UNL     1      80.896  61.683  14.716  1.00  0.00    -0.280 OA
ATOM     41  H2  UNL     1      81.460  61.911  15.445  1.00  0.00     0.245 HD
ENDBRANCH  33  40
BRANCH  34  42
HETATM   42  O3  UNL     1      79.808  63.917  14.471  1.00  0.00    -0.344 OA
ATOM     43  H3  UNL     1      78.922  63.576  14.462  1.00  0.00     0.219 HD
ENDBRANCH  34  42
ENDBRANCH  22  23
ENDBRANCH  10  22
ENDBRANCH   6   7
ENDBRANCH   5   6
ENDBRANCH   4   5
ENDBRANCH   3   4
TORSDOF 12
ENDMDL
