MODEL 1
REMARK VINA RESULT: -7.458809626      0.000      0.000
REMARK  10 active torsions:
REMARK  status: ('A' for Active; 'I' for Inactive)
REMARK    1  A    between atoms: C2_2  and  C3_3 
REMARK    2  A    between atoms: N1_8  and  C8_9 
REMARK    3  A    between atoms: C8_9  and  C9_10 
REMARK    4  A    between atoms: C12_16  and  C13_17 
REMARK    5  A    between atoms: C16_20  and  C17_21 
REMARK    6  A    between atoms: C17_21  and  N3_22 
REMARK    7  A    between atoms: C20_25  and  C21_26 
REMARK    8  A    between atoms: C21_26  and  N4_27 
REMARK    9  A    between atoms: C24_30  and  C25_31 
REMARK   10  A    between atoms: N6_33  and  O2_35 
ROOT
HETATM    1  C13 UNL     1      80.484  65.277  11.687  1.00  0.00    -0.020 A 
HETATM    2  C14 UNL     1      79.952  65.302  10.417  1.00  0.00     0.013 A 
HETATM    3  C15 UNL     1      79.673  66.500   9.788  1.00  0.00     0.010 A 
HETATM    4  C16 UNL     1      79.913  67.714  10.397  1.00  0.00    -0.040 A 
HETATM    5  C30 UNL     1      80.447  67.683  11.669  1.00  0.00     0.010 A 
HETATM    6  C31 UNL     1      80.726  66.489  12.299  1.00  0.00     0.013 A 
ENDROOT
BRANCH   4   7
HETATM    7  C17 UNL     1      79.613  69.008   9.718  1.00  0.00     0.166 C 
BRANCH   7   8
HETATM    8  N3  UNL     1      78.618  69.781  10.457  1.00  0.00    -0.362 N 
HETATM    9  C18 UNL     1      78.918  70.962  11.027  1.00  0.00     0.091 A 
HETATM   10  C19 UNL     1      78.006  71.719  11.733  1.00  0.00     0.026 A 
HETATM   11  C20 UNL     1      76.712  71.264  11.878  1.00  0.00    -0.037 A 
HETATM   12  C28 UNL     1      76.397  70.052  11.296  1.00  0.00     0.026 A 
HETATM   13  C29 UNL     1      77.351  69.338  10.602  1.00  0.00     0.091 A 
BRANCH  11  14
HETATM   14  C21 UNL     1      75.693  72.055  12.637  1.00  0.00     0.166 C 
BRANCH  14  15
HETATM   15  N4  UNL     1      74.948  71.177  13.532  1.00  0.00    -0.362 N 
HETATM   16  C22 UNL     1      73.691  70.819  13.329  1.00  0.00     0.091 A 
HETATM   17  C23 UNL     1      73.044  69.975  14.229  1.00  0.00     0.032 A 
HETATM   18  C24 UNL     1      73.661  69.485  15.347  1.00  0.00     0.009 A 
HETATM   19  C26 UNL     1      74.987  69.888  15.523  1.00  0.00     0.032 A 
HETATM   20  C27 UNL     1      75.581  70.714  14.618  1.00  0.00     0.091 A 
BRANCH  18  21
HETATM   21  C25 UNL     1      73.028  68.606  16.308  1.00  0.00     0.146 C 
HETATM   22  N5  UNL     1      72.199  69.235  17.326  1.00  0.00    -0.080 NA
HETATM   23  N6  UNL     1      73.107  67.368  16.369  1.00  0.00    -0.255 N 
ATOM     24  H6  UNL     1      72.566  66.978  17.141  1.00  0.00     0.195 HD
BRANCH  23  25
HETATM   25  O2  UNL     1      73.740  66.424  15.654  1.00  0.00    -0.288 OA
ATOM     26  H2  UNL     1      73.615  65.493  15.516  1.00  0.00     0.244 HD
ENDBRANCH  23  25
ENDBRANCH  18  21
ENDBRANCH  14  15
ENDBRANCH  11  14
ENDBRANCH   7   8
ENDBRANCH   4   7
BRANCH   1  27
HETATM   27  C12 UNL     1      80.797  64.019  12.398  1.00  0.00     0.043 A 
HETATM   28  C11 UNL     1      79.849  63.401  13.185  1.00  0.00     0.256 A 
HETATM   29  N2  UNL     1      80.098  62.260  13.840  1.00  0.00    -0.332 N 
HETATM   30  O1  UNL     1      78.718  63.936  13.284  1.00  0.00    -0.267 OA
HETATM   31  C10 UNL     1      81.300  61.687  13.737  1.00  0.00     0.100 A 
ATOM     32  H2  UNL     1      79.373  61.830  14.414  1.00  0.00     0.168 HD
HETATM   33  C9  UNL     1      82.307  62.256  12.958  1.00  0.00    -0.024 A 
HETATM   34  C32 UNL     1      82.037  63.448  12.278  1.00  0.00     0.028 A 
BRANCH  33  35
HETATM   35  C8  UNL     1      83.637  61.662  12.889  1.00  0.00     0.168 C 
BRANCH  35  36
HETATM   36  N1  UNL     1      84.460  61.716  14.066  1.00  0.00    -0.356 N 
HETATM   37  C3  UNL     1      85.422  60.832  14.322  1.00  0.00     0.011 A 
HETATM   38  C4  UNL     1      86.217  60.970  15.476  1.00  0.00     0.025 A 
HETATM   39  C5  UNL     1      86.017  61.997  16.341  1.00  0.00     0.003 A 
HETATM   40  C6  UNL     1      85.023  62.892  16.054  1.00  0.00     0.017 A 
HETATM   41  C7  UNL     1      84.248  62.768  14.940  1.00  0.00     0.091 A 
BRANCH  37  42
HETATM   42  C2  UNL     1      85.751  59.687  13.403  1.00  0.00     0.053 C 
HETATM   43  C1  UNL     1      87.213  59.383  13.352  1.00  0.00     0.011 C 
ENDBRANCH  37  42
ENDBRANCH  35  36
ENDBRANCH  33  35
ENDBRANCH   1  27
TORSDOF 10
ENDMDL
MODEL 2
REMARK VINA RESULT: -7.419073911      3.896      5.274
REMARK  10 active torsions:
REMARK  status: ('A' for Active; 'I' for Inactive)
REMARK    1  A    between atoms: C2_2  and  C3_3 
REMARK    2  A    between atoms: N1_8  and  C8_9 
REMARK    3  A    between atoms: C8_9  and  C9_10 
REMARK    4  A    between atoms: C12_16  and  C13_17 
REMARK    5  A    between atoms: C16_20  and  C17_21 
REMARK    6  A    between atoms: C17_21  and  N3_22 
REMARK    7  A    between atoms: C20_25  and  C21_26 
REMARK    8  A    between atoms: C21_26  and  N4_27 
REMARK    9  A    between atoms: C24_30  and  C25_31 
REMARK   10  A    between atoms: N6_33  and  O2_35 
ROOT
HETATM    1  C13 UNL     1      82.376  62.040  11.741  1.00  0.00    -0.020 A 
HETATM    2  C14 UNL     1      82.356  63.043  12.686  1.00  0.00     0.013 A 
HETATM    3  C15 UNL     1      81.593  64.179  12.499  1.00  0.00     0.010 A 
HETATM    4  C16 UNL     1      80.823  64.360  11.368  1.00  0.00    -0.040 A 
HETATM    5  C30 UNL     1      80.847  63.353  10.426  1.00  0.00     0.010 A 
HETATM    6  C31 UNL     1      81.609  62.218  10.610  1.00  0.00     0.013 A 
ENDROOT
BRANCH   4   7
HETATM    7  C17 UNL     1      79.999  65.587  11.167  1.00  0.00     0.166 C 
BRANCH   7   8
HETATM    8  N3  UNL     1      78.730  65.501  11.885  1.00  0.00    -0.362 N 
HETATM    9  C18 UNL     1      77.846  64.514  11.647  1.00  0.00     0.091 A 
HETATM   10  C19 UNL     1      76.639  64.401  12.305  1.00  0.00     0.026 A 
HETATM   11  C20 UNL     1      76.294  65.335  13.259  1.00  0.00    -0.037 A 
HETATM   12  C28 UNL     1      77.196  66.351  13.508  1.00  0.00     0.026 A 
HETATM   13  C29 UNL     1      78.388  66.413  12.820  1.00  0.00     0.091 A 
BRANCH  11  14
HETATM   14  C21 UNL     1      74.993  65.247  13.994  1.00  0.00     0.166 C 
BRANCH  14  15
HETATM   15  N4  UNL     1      75.237  64.961  15.403  1.00  0.00    -0.362 N 
HETATM   16  C22 UNL     1      75.845  63.868  15.835  1.00  0.00     0.091 A 
HETATM   17  C23 UNL     1      76.042  63.663  17.199  1.00  0.00     0.032 A 
HETATM   18  C24 UNL     1      75.626  64.561  18.143  1.00  0.00     0.009 A 
HETATM   19  C26 UNL     1      74.990  65.699  17.644  1.00  0.00     0.032 A 
HETATM   20  C27 UNL     1      74.817  65.860  16.303  1.00  0.00     0.091 A 
BRANCH  18  21
HETATM   21  C25 UNL     1      75.810  64.389  19.569  1.00  0.00     0.146 C 
HETATM   22  N5  UNL     1      74.638  64.578  20.410  1.00  0.00    -0.080 NA
HETATM   23  N6  UNL     1      76.859  64.094  20.166  1.00  0.00    -0.255 N 
ATOM     24  H6  UNL     1      76.731  64.031  21.176  1.00  0.00     0.195 HD
BRANCH  23  25
HETATM   25  O2  UNL     1      78.123  63.841  19.790  1.00  0.00    -0.288 OA
ATOM     26  H2  UNL     1      78.673  63.067  19.772  1.00  0.00     0.244 HD
ENDBRANCH  23  25
ENDBRANCH  18  21
ENDBRANCH  14  15
ENDBRANCH  11  14
ENDBRANCH   7   8
ENDBRANCH   4   7
BRANCH   1  27
HETATM   27  C12 UNL     1      83.179  60.809  11.900  1.00  0.00     0.043 A 
HETATM   28  C11 UNL     1      82.782  59.817  12.771  1.00  0.00     0.256 A 
HETATM   29  N2  UNL     1      83.483  58.689  12.937  1.00  0.00    -0.332 N 
HETATM   30  O1  UNL     1      81.726  59.990  13.427  1.00  0.00    -0.267 OA
HETATM   31  C10 UNL     1      84.608  58.501  12.241  1.00  0.00     0.100 A 
ATOM     32  H2  UNL     1      83.160  57.977  13.591  1.00  0.00     0.168 HD
HETATM   33  C9  UNL     1      85.069  59.461  11.341  1.00  0.00    -0.024 A 
HETATM   34  C32 UNL     1      84.330  60.637  11.176  1.00  0.00     0.028 A 
BRANCH  33  35
HETATM   35  C8  UNL     1      86.325  59.282  10.621  1.00  0.00     0.168 C 
BRANCH  35  36
HETATM   36  N1  UNL     1      87.550  59.511  11.339  1.00  0.00    -0.356 N 
HETATM   37  C3  UNL     1      88.343  58.525  11.755  1.00  0.00     0.011 A 
HETATM   38  C4  UNL     1      89.548  58.825  12.418  1.00  0.00     0.025 A 
HETATM   39  C5  UNL     1      89.919  60.111  12.643  1.00  0.00     0.003 A 
HETATM   40  C6  UNL     1      89.087  61.104  12.205  1.00  0.00     0.017 A 
HETATM   41  C7  UNL     1      87.918  60.826  11.562  1.00  0.00     0.091 A 
BRANCH  37  42
HETATM   42  C2  UNL     1      88.043  57.071  11.513  1.00  0.00     0.053 C 
HETATM   43  C1  UNL     1      89.271  56.255  11.279  1.00  0.00     0.011 C 
ENDBRANCH  37  42
ENDBRANCH  35  36
ENDBRANCH  33  35
ENDBRANCH   1  27
TORSDOF 10
ENDMDL
MODEL 3
REMARK VINA RESULT: -7.363123207      4.103      5.790
REMARK  10 active torsions:
REMARK  status: ('A' for Active; 'I' for Inactive)
REMARK    1  A    between atoms: C2_2  and  C3_3 
REMARK    2  A    between atoms: N1_8  and  C8_9 
REMARK    3  A    between atoms: C8_9  and  C9_10 
REMARK    4  A    between atoms: C12_16  and  C13_17 
REMARK    5  A    between atoms: C16_20  and  C17_21 
REMARK    6  A    between atoms: C17_21  and  N3_22 
REMARK    7  A    between atoms: C20_25  and  C21_26 
REMARK    8  A    between atoms: C21_26  and  N4_27 
REMARK    9  A    between atoms: C24_30  and  C25_31 
REMARK   10  A    between atoms: N6_33  and  O2_35 
ROOT
HETATM    1  C13 UNL     1      82.728  62.097  12.231  1.00  0.00    -0.020 A 
HETATM    2  C14 UNL     1      82.366  63.141  13.052  1.00  0.00     0.013 A 
HETATM    3  C15 UNL     1      81.402  64.050  12.660  1.00  0.00     0.010 A 
HETATM    4  C16 UNL     1      80.766  63.955  11.439  1.00  0.00    -0.040 A 
HETATM    5  C30 UNL     1      81.133  62.908  10.621  1.00  0.00     0.010 A 
HETATM    6  C31 UNL     1      82.095  61.999  11.010  1.00  0.00     0.013 A 
ENDROOT
BRANCH   4   7
HETATM    7  C17 UNL     1      79.726  64.938  11.017  1.00  0.00     0.166 C 
BRANCH   7   8
HETATM    8  N3  UNL     1      78.485  64.757  11.766  1.00  0.00    -0.362 N 
HETATM    9  C18 UNL     1      77.740  63.643  11.645  1.00  0.00     0.091 A 
HETATM   10  C19 UNL     1      76.563  63.437  12.336  1.00  0.00     0.026 A 
HETATM   11  C20 UNL     1      76.104  64.408  13.200  1.00  0.00    -0.037 A 
HETATM   12  C28 UNL     1      76.863  65.554  13.329  1.00  0.00     0.026 A 
HETATM   13  C29 UNL     1      78.032  65.705  12.613  1.00  0.00     0.091 A 
BRANCH  11  14
HETATM   14  C21 UNL     1      74.832  64.224  13.967  1.00  0.00     0.166 C 
BRANCH  14  15
HETATM   15  N4  UNL     1      75.118  64.155  15.396  1.00  0.00    -0.362 N 
HETATM   16  C22 UNL     1      75.731  63.134  15.973  1.00  0.00     0.091 A 
HETATM   17  C23 UNL     1      75.971  63.140  17.345  1.00  0.00     0.032 A 
HETATM   18  C24 UNL     1      75.593  64.180  18.151  1.00  0.00     0.009 A 
HETATM   19  C26 UNL     1      74.950  65.235  17.501  1.00  0.00     0.032 A 
HETATM   20  C27 UNL     1      74.735  65.189  16.157  1.00  0.00     0.091 A 
BRANCH  18  21
HETATM   21  C25 UNL     1      75.822  64.228  19.580  1.00  0.00     0.146 C 
HETATM   22  N5  UNL     1      74.667  64.504  20.421  1.00  0.00    -0.080 NA
HETATM   23  N6  UNL     1      76.896  64.059  20.180  1.00  0.00    -0.255 N 
ATOM     24  H6  UNL     1      76.797  64.143  21.192  1.00  0.00     0.195 HD
BRANCH  23  25
HETATM   25  O2  UNL     1      78.157  63.792  19.806  1.00  0.00    -0.288 OA
ATOM     26  H2  UNL     1      78.556  63.343  19.070  1.00  0.00     0.244 HD
ENDBRANCH  23  25
ENDBRANCH  18  21
ENDBRANCH  14  15
ENDBRANCH  11  14
ENDBRANCH   7   8
ENDBRANCH   4   7
BRANCH   1  27
HETATM   27  C12 UNL     1      83.754  61.101  12.609  1.00  0.00     0.043 A 
HETATM   28  C11 UNL     1      83.389  59.851  13.060  1.00  0.00     0.256 A 
HETATM   29  N2  UNL     1      84.291  58.925  13.408  1.00  0.00    -0.332 N 
HETATM   30  O1  UNL     1      82.166  59.583  13.143  1.00  0.00    -0.267 OA
HETATM   31  C10 UNL     1      85.594  59.206  13.321  1.00  0.00     0.100 A 
ATOM     32  H2  UNL     1      83.985  58.010  13.739  1.00  0.00     0.168 HD
HETATM   33  C9  UNL     1      86.036  60.451  12.872  1.00  0.00    -0.024 A 
HETATM   34  C32 UNL     1      85.085  61.411  12.511  1.00  0.00     0.028 A 
BRANCH  33  35
HETATM   35  C8  UNL     1      87.456  60.778  12.828  1.00  0.00     0.168 C 
BRANCH  35  36
HETATM   36  N1  UNL     1      88.339  59.857  12.163  1.00  0.00    -0.356 N 
HETATM   37  C3  UNL     1      88.340  59.678  10.843  1.00  0.00     0.011 A 
HETATM   38  C4  UNL     1      89.260  58.788  10.255  1.00  0.00     0.025 A 
HETATM   39  C5  UNL     1      90.151  58.104  11.016  1.00  0.00     0.003 A 
HETATM   40  C6  UNL     1      90.128  58.307  12.369  1.00  0.00     0.017 A 
HETATM   41  C7  UNL     1      89.243  59.165  12.948  1.00  0.00     0.091 A 
BRANCH  37  42
HETATM   42  C2  UNL     1      87.425  60.424   9.911  1.00  0.00     0.053 C 
HETATM   43  C1  UNL     1      86.339  59.564   9.351  1.00  0.00     0.011 C 
ENDBRANCH  37  42
ENDBRANCH  35  36
ENDBRANCH  33  35
ENDBRANCH   1  27
TORSDOF 10
ENDMDL
MODEL 4
REMARK VINA RESULT: -7.345935852      3.773      5.352
REMARK  10 active torsions:
REMARK  status: ('A' for Active; 'I' for Inactive)
REMARK    1  A    between atoms: C2_2  and  C3_3 
REMARK    2  A    between atoms: N1_8  and  C8_9 
REMARK    3  A    between atoms: C8_9  and  C9_10 
REMARK    4  A    between atoms: C12_16  and  C13_17 
REMARK    5  A    between atoms: C16_20  and  C17_21 
REMARK    6  A    between atoms: C17_21  and  N3_22 
REMARK    7  A    between atoms: C20_25  and  C21_26 
REMARK    8  A    between atoms: C21_26  and  N4_27 
REMARK    9  A    between atoms: C24_30  and  C25_31 
REMARK   10  A    between atoms: N6_33  and  O2_35 
ROOT
HETATM    1  C13 UNL     1      82.359  62.375  12.185  1.00  0.00    -0.020 A 
HETATM    2  C14 UNL     1      81.699  62.310  10.978  1.00  0.00     0.013 A 
HETATM    3  C15 UNL     1      80.790  63.284  10.613  1.00  0.00     0.010 A 
HETATM    4  C16 UNL     1      80.504  64.356  11.433  1.00  0.00    -0.040 A 
HETATM    5  C30 UNL     1      81.167  64.417  12.640  1.00  0.00     0.010 A 
HETATM    6  C31 UNL     1      82.075  63.446  13.007  1.00  0.00     0.013 A 
ENDROOT
BRANCH   4   7
HETATM    7  C17 UNL     1      79.522  65.408  11.038  1.00  0.00     0.166 C 
BRANCH   7   8
HETATM    8  N3  UNL     1      78.291  65.309  11.818  1.00  0.00    -0.362 N 
HETATM    9  C18 UNL     1      77.922  66.269  12.685  1.00  0.00     0.091 A 
HETATM   10  C19 UNL     1      76.768  66.210  13.439  1.00  0.00     0.026 A 
HETATM   11  C20 UNL     1      75.932  65.121  13.317  1.00  0.00    -0.037 A 
HETATM   12  C28 UNL     1      76.304  64.130  12.430  1.00  0.00     0.026 A 
HETATM   13  C29 UNL     1      77.470  64.243  11.703  1.00  0.00     0.091 A 
BRANCH  11  14
HETATM   14  C21 UNL     1      74.671  65.018  14.117  1.00  0.00     0.166 C 
BRANCH  14  15
HETATM   15  N4  UNL     1      74.991  64.777  15.520  1.00  0.00    -0.362 N 
HETATM   16  C22 UNL     1      75.569  63.672  15.961  1.00  0.00     0.091 A 
HETATM   17  C23 UNL     1      75.844  63.513  17.318  1.00  0.00     0.032 A 
HETATM   18  C24 UNL     1      75.537  64.471  18.245  1.00  0.00     0.009 A 
HETATM   19  C26 UNL     1      74.928  65.621  17.737  1.00  0.00     0.032 A 
HETATM   20  C27 UNL     1      74.677  65.735  16.403  1.00  0.00     0.091 A 
BRANCH  18  21
HETATM   21  C25 UNL     1      75.804  64.348  19.662  1.00  0.00     0.146 C 
HETATM   22  N5  UNL     1      74.678  64.543  20.563  1.00  0.00    -0.080 NA
HETATM   23  N6  UNL     1      76.891  64.093  20.208  1.00  0.00    -0.255 N 
ATOM     24  H6  UNL     1      76.820  64.059  21.225  1.00  0.00     0.195 HD
BRANCH  23  25
HETATM   25  O2  UNL     1      78.136  63.850  19.769  1.00  0.00    -0.288 OA
ATOM     26  H2  UNL     1      78.615  63.071  19.513  1.00  0.00     0.244 HD
ENDBRANCH  23  25
ENDBRANCH  18  21
ENDBRANCH  14  15
ENDBRANCH  11  14
ENDBRANCH   7   8
ENDBRANCH   4   7
BRANCH   1  27
HETATM   27  C12 UNL     1      83.338  61.356  12.617  1.00  0.00     0.043 A 
HETATM   28  C11 UNL     1      82.917  60.164  13.168  1.00  0.00     0.256 A 
HETATM   29  N2  UNL     1      83.777  59.219  13.567  1.00  0.00    -0.332 N 
HETATM   30  O1  UNL     1      81.684  59.971  13.297  1.00  0.00    -0.267 OA
HETATM   31  C10 UNL     1      85.091  59.420  13.432  1.00  0.00     0.100 A 
ATOM     32  H2  UNL     1      83.431  58.349  13.972  1.00  0.00     0.168 HD
HETATM   33  C9  UNL     1      85.588  60.601  12.882  1.00  0.00    -0.024 A 
HETATM   34  C32 UNL     1      84.682  61.583  12.469  1.00  0.00     0.028 A 
BRANCH  33  35
HETATM   35  C8  UNL     1      87.022  60.845  12.785  1.00  0.00     0.168 C 
BRANCH  35  36
HETATM   36  N1  UNL     1      87.808  59.934  11.996  1.00  0.00    -0.356 N 
HETATM   37  C3  UNL     1      87.762  59.900  10.665  1.00  0.00     0.011 A 
HETATM   38  C4  UNL     1      88.589  59.008   9.956  1.00  0.00     0.025 A 
HETATM   39  C5  UNL     1      89.438  58.175  10.609  1.00  0.00     0.003 A 
HETATM   40  C6  UNL     1      89.466  58.231  11.976  1.00  0.00     0.017 A 
HETATM   41  C7  UNL     1      88.670  59.090  12.673  1.00  0.00     0.091 A 
BRANCH  37  42
HETATM   42  C2  UNL     1      86.889  60.813   9.849  1.00  0.00     0.053 C 
HETATM   43  C1  UNL     1      85.746  60.101   9.202  1.00  0.00     0.011 C 
ENDBRANCH  37  42
ENDBRANCH  35  36
ENDBRANCH  33  35
ENDBRANCH   1  27
TORSDOF 10
ENDMDL
MODEL 5
REMARK VINA RESULT: -7.316478886      3.838      5.446
REMARK  10 active torsions:
REMARK  status: ('A' for Active; 'I' for Inactive)
REMARK    1  A    between atoms: C2_2  and  C3_3 
REMARK    2  A    between atoms: N1_8  and  C8_9 
REMARK    3  A    between atoms: C8_9  and  C9_10 
REMARK    4  A    between atoms: C12_16  and  C13_17 
REMARK    5  A    between atoms: C16_20  and  C17_21 
REMARK    6  A    between atoms: C17_21  and  N3_22 
REMARK    7  A    between atoms: C20_25  and  C21_26 
REMARK    8  A    between atoms: C21_26  and  N4_27 
REMARK    9  A    between atoms: C24_30  and  C25_31 
REMARK   10  A    between atoms: N6_33  and  O2_35 
ROOT
HETATM    1  C13 UNL     1      82.364  62.369  12.145  1.00  0.00    -0.020 A 
HETATM    2  C14 UNL     1      81.697  62.291  10.943  1.00  0.00     0.013 A 
HETATM    3  C15 UNL     1      80.768  63.249  10.582  1.00  0.00     0.010 A 
HETATM    4  C16 UNL     1      80.469  64.316  11.403  1.00  0.00    -0.040 A 
HETATM    5  C30 UNL     1      81.140  64.390  12.606  1.00  0.00     0.010 A 
HETATM    6  C31 UNL     1      82.067  63.435  12.968  1.00  0.00     0.013 A 
ENDROOT
BRANCH   4   7
HETATM    7  C17 UNL     1      79.467  65.350  11.013  1.00  0.00     0.166 C 
BRANCH   7   8
HETATM    8  N3  UNL     1      78.242  65.229  11.800  1.00  0.00    -0.362 N 
HETATM    9  C18 UNL     1      77.403  64.188  11.649  1.00  0.00     0.091 A 
HETATM   10  C19 UNL     1      76.238  64.041  12.374  1.00  0.00     0.026 A 
HETATM   11  C20 UNL     1      75.891  64.996  13.307  1.00  0.00    -0.037 A 
HETATM   12  C28 UNL     1      76.748  66.067  13.466  1.00  0.00     0.026 A 
HETATM   13  C29 UNL     1      77.899  66.162  12.713  1.00  0.00     0.091 A 
BRANCH  11  14
HETATM   14  C21 UNL     1      74.636  64.873  14.112  1.00  0.00     0.166 C 
BRANCH  14  15
HETATM   15  N4  UNL     1      74.966  64.666  15.518  1.00  0.00    -0.362 N 
HETATM   16  C22 UNL     1      75.567  63.581  15.978  1.00  0.00     0.091 A 
HETATM   17  C23 UNL     1      75.851  63.455  17.337  1.00  0.00     0.032 A 
HETATM   18  C24 UNL     1      75.528  64.426  18.246  1.00  0.00     0.009 A 
HETATM   19  C26 UNL     1      74.895  65.552  17.718  1.00  0.00     0.032 A 
HETATM   20  C27 UNL     1      74.637  65.635  16.383  1.00  0.00     0.091 A 
BRANCH  18  21
HETATM   21  C25 UNL     1      75.804  64.337  19.664  1.00  0.00     0.146 C 
HETATM   22  N5  UNL     1      74.681  64.550  20.566  1.00  0.00    -0.080 NA
HETATM   23  N6  UNL     1      76.894  64.096  20.210  1.00  0.00    -0.255 N 
ATOM     24  H6  UNL     1      76.829  64.087  21.228  1.00  0.00     0.195 HD
BRANCH  23  25
HETATM   25  O2  UNL     1      78.137  63.847  19.770  1.00  0.00    -0.288 OA
ATOM     26  H2  UNL     1      78.888  63.378  20.116  1.00  0.00     0.244 HD
ENDBRANCH  23  25
ENDBRANCH  18  21
ENDBRANCH  14  15
ENDBRANCH  11  14
ENDBRANCH   7   8
ENDBRANCH   4   7
BRANCH   1  27
HETATM   27  C12 UNL     1      83.363  61.367  12.571  1.00  0.00     0.043 A 
HETATM   28  C11 UNL     1      82.971  60.202  13.195  1.00  0.00     0.256 A 
HETATM   29  N2  UNL     1      83.850  59.273  13.590  1.00  0.00    -0.332 N 
HETATM   30  O1  UNL     1      81.746  60.018  13.393  1.00  0.00    -0.267 OA
HETATM   31  C10 UNL     1      85.155  59.465  13.382  1.00  0.00     0.100 A 
ATOM     32  H2  UNL     1      83.524  58.422  14.050  1.00  0.00     0.168 HD
HETATM   33  C9  UNL     1      85.624  60.620  12.756  1.00  0.00    -0.024 A 
HETATM   34  C32 UNL     1      84.698  61.585  12.347  1.00  0.00     0.028 A 
BRANCH  33  35
HETATM   35  C8  UNL     1      87.051  60.856  12.577  1.00  0.00     0.168 C 
BRANCH  35  36
HETATM   36  N1  UNL     1      87.699  60.240  11.449  1.00  0.00    -0.356 N 
HETATM   37  C3  UNL     1      88.741  59.420  11.570  1.00  0.00     0.011 A 
HETATM   38  C4  UNL     1      89.300  58.821  10.424  1.00  0.00     0.025 A 
HETATM   39  C5  UNL     1      88.792  59.067   9.190  1.00  0.00     0.003 A 
HETATM   40  C6  UNL     1      87.721  59.913   9.095  1.00  0.00     0.017 A 
HETATM   41  C7  UNL     1      87.172  60.499  10.197  1.00  0.00     0.091 A 
BRANCH  37  42
HETATM   42  C2  UNL     1      89.346  59.048  12.896  1.00  0.00     0.053 C 
HETATM   43  C1  UNL     1      90.711  58.455  12.767  1.00  0.00     0.011 C 
ENDBRANCH  37  42
ENDBRANCH  35  36
ENDBRANCH  33  35
ENDBRANCH   1  27
TORSDOF 10
ENDMDL
