MODEL 1
REMARK VINA RESULT: -6.770164636      0.000      0.000
REMARK  10 active torsions:
REMARK  status: ('A' for Active; 'I' for Inactive)
REMARK    1  A    between atoms: C2_2  and  C3_3 
REMARK    2  A    between atoms: C3_3  and  N1_4 
REMARK    3  A    between atoms: C5_6  and  C6_7 
REMARK    4  A    between atoms: C6_7  and  C7_8 
REMARK    5  A    between atoms: C7_8  and  C8_9 
REMARK    6  A    between atoms: C8_9  and  C9_10 
REMARK    7  A    between atoms: C12_16  and  N4_17 
REMARK    8  A    between atoms: N4_17  and  C13_19 
REMARK    9  A    between atoms: C13_19  and  C14_20 
REMARK       I    between atoms: N5_23  and  C17_24 
REMARK   10  A    between atoms: N8_31  and  O1_32 
ROOT
HETATM    1  C9  UNL     1      81.175  64.338  11.835  1.00  0.00    -0.054 A 
HETATM    2  C10 UNL     1      81.000  63.421  10.777  1.00  0.00     0.026 A 
HETATM    3  C11 UNL     1      81.630  62.206  10.817  1.00  0.00     0.118 A 
HETATM    4  N2  UNL     1      82.431  61.829  11.844  1.00  0.00    -0.252 N 
HETATM    5  N3  UNL     1      83.030  60.656  11.856  1.00  0.00    -0.123 N 
ATOM      6  H3  UNL     1      82.884  60.013  11.078  1.00  0.00     0.206 HD
HETATM    7  C12 UNL     1      83.845  60.278  12.890  1.00  0.00     0.723 A 
HETATM    8  N8  UNL     1      84.037  61.119  13.914  1.00  0.00    -0.060 N 
HETATM    9  C20 UNL     1      83.438  62.325  13.933  1.00  0.00     0.173 A 
HETATM   10  C21 UNL     1      82.627  62.667  12.873  1.00  0.00     0.075 A 
HETATM   11  C22 UNL     1      81.984  63.905  12.829  1.00  0.00     0.040 A 
ENDROOT
BRANCH   1  12
HETATM   12  C8  UNL     1      80.509  65.660  11.774  1.00  0.00     0.039 C 
BRANCH  12  13
HETATM   13  C7  UNL     1      79.684  66.026  12.933  1.00  0.00     0.005 C 
BRANCH  13  14
HETATM   14  C6  UNL     1      78.258  65.727  12.977  1.00  0.00     0.012 C 
BRANCH  14  15
HETATM   15  C5  UNL     1      77.754  64.427  13.462  1.00  0.00    -0.012 C 
HETATM   16  C4  UNL     1      77.465  63.598  12.181  1.00  0.00     0.136 C 
HETATM   17  N1  UNL     1      77.804  62.236  12.516  1.00  0.00    -0.348 N 
HETATM   18  C28 UNL     1      78.736  62.219  13.573  1.00  0.00     0.225 C 
HETATM   19  C27 UNL     1      78.541  63.536  14.300  1.00  0.00     0.088 C 
HETATM   20  O2  UNL     1      79.557  61.312  13.861  1.00  0.00    -0.273 OA
HETATM   21  C26 UNL     1      77.800  63.200  15.628  1.00  0.00     0.015 C 
HETATM   22  C25 UNL     1      76.507  62.497  15.334  1.00  0.00     0.001 C 
HETATM   23  C24 UNL     1      75.688  63.385  14.438  1.00  0.00     0.001 C 
HETATM   24  C23 UNL     1      76.364  64.663  14.089  1.00  0.00     0.012 C 
BRANCH  17  25
HETATM   25  C3  UNL     1      77.261  61.072  11.856  1.00  0.00     0.152 C 
BRANCH  25  26
HETATM   26  C2  UNL     1      76.457  60.197  12.739  1.00  0.00    -0.017 C 
HETATM   27  C1  UNL     1      76.922  59.006  13.118  1.00  0.00     0.008 C 
ENDBRANCH  25  26
ENDBRANCH  17  25
ENDBRANCH  14  15
ENDBRANCH  13  14
ENDBRANCH  12  13
ENDBRANCH   1  12
BRANCH   8  28
HETATM   28  O1  UNL     1      84.867  60.753  14.980  1.00  0.00    -0.270 OA
ATOM     29  H1  UNL     1      84.681  61.062  15.859  1.00  0.00     0.245 HD
ENDBRANCH   8  28
BRANCH   7  30
HETATM   30  N4  UNL     1      84.397  59.125  12.841  1.00  0.00    -0.202 N 
ATOM     31  H4  UNL     1      84.237  58.535  13.657  1.00  0.00     0.183 HD
BRANCH  30  32
HETATM   32  C13 UNL     1      85.191  58.547  11.836  1.00  0.00     0.083 C 
BRANCH  32  33
HETATM   33  C14 UNL     1      86.575  58.138  12.333  1.00  0.00     0.028 C 
HETATM   34  C15 UNL     1      87.548  58.315  11.201  1.00  0.00     0.030 C 
HETATM   35  C16 UNL     1      87.939  59.764  11.052  1.00  0.00     0.126 C 
HETATM   36  N5  UNL     1      88.747  60.068  12.238  1.00  0.00    -0.356 N 
HETATM   37  C17 UNL     1      89.863  60.917  12.080  1.00  0.00     0.183 C 
HETATM   38  C18 UNL     1      88.373  59.487  13.498  1.00  0.00     0.126 C 
HETATM   39  N6  UNL     1      90.603  61.173  13.095  1.00  0.00    -0.374 N 
HETATM   40  N7  UNL     1      90.199  61.499  10.834  1.00  0.00    -0.064 NA
ATOM     41  H62 UNL     1      90.361  60.754  13.993  1.00  0.00     0.158 HD
ATOM     42  H61 UNL     1      91.410  61.787  12.981  1.00  0.00     0.158 HD
HETATM   43  C19 UNL     1      86.979  58.950  13.505  1.00  0.00     0.030 C 
ENDBRANCH  32  33
ENDBRANCH  30  32
ENDBRANCH   7  30
TORSDOF 10
ENDMDL
MODEL 2
REMARK VINA RESULT: -6.580329386      2.111      3.256
REMARK  10 active torsions:
REMARK  status: ('A' for Active; 'I' for Inactive)
REMARK    1  A    between atoms: C2_2  and  C3_3 
REMARK    2  A    between atoms: C3_3  and  N1_4 
REMARK    3  A    between atoms: C5_6  and  C6_7 
REMARK    4  A    between atoms: C6_7  and  C7_8 
REMARK    5  A    between atoms: C7_8  and  C8_9 
REMARK    6  A    between atoms: C8_9  and  C9_10 
REMARK    7  A    between atoms: C12_16  and  N4_17 
REMARK    8  A    between atoms: N4_17  and  C13_19 
REMARK    9  A    between atoms: C13_19  and  C14_20 
REMARK       I    between atoms: N5_23  and  C17_24 
REMARK   10  A    between atoms: N8_31  and  O1_32 
ROOT
HETATM    1  C9  UNL     1      81.768  63.011  12.040  1.00  0.00    -0.054 A 
HETATM    2  C10 UNL     1      81.990  61.906  11.191  1.00  0.00     0.026 A 
HETATM    3  C11 UNL     1      83.004  61.028  11.469  1.00  0.00     0.118 A 
HETATM    4  N2  UNL     1      83.823  61.167  12.540  1.00  0.00    -0.252 N 
HETATM    5  N3  UNL     1      84.795  60.311  12.781  1.00  0.00    -0.123 N 
ATOM      6  H3  UNL     1      84.930  59.521  12.150  1.00  0.00     0.206 HD
HETATM    7  C12 UNL     1      85.627  60.457  13.859  1.00  0.00     0.723 A 
HETATM    8  N8  UNL     1      85.449  61.493  14.688  1.00  0.00    -0.060 N 
HETATM    9  C20 UNL     1      84.465  62.385  14.470  1.00  0.00     0.173 A 
HETATM   10  C21 UNL     1      83.650  62.202  13.374  1.00  0.00     0.075 A 
HETATM   11  C22 UNL     1      82.616  63.097  13.090  1.00  0.00     0.040 A 
ENDROOT
BRANCH   1  12
HETATM   12  C8  UNL     1      80.684  63.971  11.721  1.00  0.00     0.039 C 
BRANCH  12  13
HETATM   13  C7  UNL     1      79.361  63.666  12.283  1.00  0.00     0.005 C 
BRANCH  13  14
HETATM   14  C6  UNL     1      79.034  63.972  13.670  1.00  0.00     0.012 C 
BRANCH  14  15
HETATM   15  C5  UNL     1      77.722  63.625  14.250  1.00  0.00    -0.012 C 
HETATM   16  C4  UNL     1      78.037  63.059  15.661  1.00  0.00     0.136 C 
HETATM   17  N1  UNL     1      76.952  63.496  16.506  1.00  0.00    -0.348 N 
HETATM   18  C28 UNL     1      76.356  64.652  15.963  1.00  0.00     0.225 C 
HETATM   19  C27 UNL     1      76.673  64.607  14.481  1.00  0.00     0.088 C 
HETATM   20  O2  UNL     1      75.700  65.536  16.568  1.00  0.00    -0.273 OA
HETATM   21  C26 UNL     1      75.351  64.209  13.759  1.00  0.00     0.015 C 
HETATM   22  C25 UNL     1      74.849  62.898  14.290  1.00  0.00     0.001 C 
HETATM   23  C24 UNL     1      75.931  61.871  14.096  1.00  0.00     0.001 C 
HETATM   24  C23 UNL     1      77.163  62.418  13.468  1.00  0.00     0.012 C 
BRANCH  17  25
HETATM   25  C3  UNL     1      76.549  62.837  17.726  1.00  0.00     0.152 C 
BRANCH  25  26
HETATM   26  C2  UNL     1      77.181  63.387  18.947  1.00  0.00    -0.017 C 
HETATM   27  C1  UNL     1      76.477  64.141  19.793  1.00  0.00     0.008 C 
ENDBRANCH  25  26
ENDBRANCH  17  25
ENDBRANCH  14  15
ENDBRANCH  13  14
ENDBRANCH  12  13
ENDBRANCH   1  12
BRANCH   8  28
HETATM   28  O1  UNL     1      86.290  61.660  15.795  1.00  0.00    -0.270 OA
ATOM     29  H1  UNL     1      86.356  60.978  16.453  1.00  0.00     0.245 HD
ENDBRANCH   8  28
BRANCH   7  30
HETATM   30  N4  UNL     1      86.551  59.591  14.036  1.00  0.00    -0.202 N 
ATOM     31  H4  UNL     1      86.241  58.704  14.434  1.00  0.00     0.183 HD
BRANCH  30  32
HETATM   32  C13 UNL     1      87.929  59.673  13.769  1.00  0.00     0.083 C 
BRANCH  32  33
HETATM   33  C14 UNL     1      88.276  59.308  12.327  1.00  0.00     0.028 C 
HETATM   34  C15 UNL     1      88.314  60.578  11.523  1.00  0.00     0.030 C 
HETATM   35  C16 UNL     1      89.615  61.310  11.739  1.00  0.00     0.126 C 
HETATM   36  N5  UNL     1      90.636  60.476  11.096  1.00  0.00    -0.356 N 
HETATM   37  C17 UNL     1      91.686  61.123  10.410  1.00  0.00     0.183 C 
HETATM   38  C18 UNL     1      90.522  59.046  11.189  1.00  0.00     0.126 C 
HETATM   39  N6  UNL     1      92.574  60.417   9.814  1.00  0.00    -0.374 N 
HETATM   40  N7  UNL     1      91.793  62.534  10.352  1.00  0.00    -0.064 NA
ATOM     41  H62 UNL     1      92.496  59.400   9.856  1.00  0.00     0.158 HD
ATOM     42  H61 UNL     1      93.332  60.885   9.317  1.00  0.00     0.158 HD
HETATM   43  C19 UNL     1      89.577  58.603  12.258  1.00  0.00     0.030 C 
ENDBRANCH  32  33
ENDBRANCH  30  32
ENDBRANCH   7  30
TORSDOF 10
ENDMDL
MODEL 3
REMARK VINA RESULT: -6.568944031      1.271      2.148
REMARK  10 active torsions:
REMARK  status: ('A' for Active; 'I' for Inactive)
REMARK    1  A    between atoms: C2_2  and  C3_3 
REMARK    2  A    between atoms: C3_3  and  N1_4 
REMARK    3  A    between atoms: C5_6  and  C6_7 
REMARK    4  A    between atoms: C6_7  and  C7_8 
REMARK    5  A    between atoms: C7_8  and  C8_9 
REMARK    6  A    between atoms: C8_9  and  C9_10 
REMARK    7  A    between atoms: C12_16  and  N4_17 
REMARK    8  A    between atoms: N4_17  and  C13_19 
REMARK    9  A    between atoms: C13_19  and  C14_20 
REMARK       I    between atoms: N5_23  and  C17_24 
REMARK   10  A    between atoms: N8_31  and  O1_32 
ROOT
HETATM    1  C9  UNL     1      81.049  64.189  11.538  1.00  0.00    -0.054 A 
HETATM    2  C10 UNL     1      80.959  63.250  10.489  1.00  0.00     0.026 A 
HETATM    3  C11 UNL     1      81.638  62.064  10.577  1.00  0.00     0.118 A 
HETATM    4  N2  UNL     1      82.409  61.737  11.643  1.00  0.00    -0.252 N 
HETATM    5  N3  UNL     1      83.056  60.591  11.701  1.00  0.00    -0.123 N 
ATOM      6  H3  UNL     1      82.971  59.932  10.928  1.00  0.00     0.206 HD
HETATM    7  C12 UNL     1      83.842  60.265  12.774  1.00  0.00     0.723 A 
HETATM    8  N8  UNL     1      83.953  61.129  13.790  1.00  0.00    -0.060 N 
HETATM    9  C20 UNL     1      83.303  62.308  13.763  1.00  0.00     0.173 A 
HETATM   10  C21 UNL     1      82.525  62.598  12.665  1.00  0.00     0.075 A 
HETATM   11  C22 UNL     1      81.832  63.807  12.573  1.00  0.00     0.040 A 
ENDROOT
BRANCH   1  12
HETATM   12  C8  UNL     1      80.331  65.481  11.427  1.00  0.00     0.039 C 
BRANCH  12  13
HETATM   13  C7  UNL     1      79.765  66.019  12.671  1.00  0.00     0.005 C 
BRANCH  13  14
HETATM   14  C6  UNL     1      78.356  65.845  13.004  1.00  0.00     0.012 C 
BRANCH  14  15
HETATM   15  C5  UNL     1      77.813  64.534  13.411  1.00  0.00    -0.012 C 
HETATM   16  C4  UNL     1      76.646  64.860  14.381  1.00  0.00     0.136 C 
HETATM   17  N1  UNL     1      75.642  63.853  14.131  1.00  0.00    -0.348 N 
HETATM   18  C28 UNL     1      75.794  63.336  12.829  1.00  0.00     0.225 C 
HETATM   19  C27 UNL     1      77.245  63.584  12.467  1.00  0.00     0.088 C 
HETATM   20  O2  UNL     1      74.921  62.785  12.114  1.00  0.00    -0.273 OA
HETATM   21  C26 UNL     1      77.961  62.203  12.547  1.00  0.00     0.015 C 
HETATM   22  C25 UNL     1      77.793  61.614  13.917  1.00  0.00     0.001 C 
HETATM   23  C24 UNL     1      78.342  62.594  14.917  1.00  0.00     0.001 C 
HETATM   24  C23 UNL     1      78.868  63.841  14.299  1.00  0.00     0.012 C 
BRANCH  17  25
HETATM   25  C3  UNL     1      74.636  63.448  15.085  1.00  0.00     0.152 C 
BRANCH  25  26
HETATM   26  C2  UNL     1      74.993  63.726  16.495  1.00  0.00    -0.017 C 
HETATM   27  C1  UNL     1      75.435  62.748  17.288  1.00  0.00     0.008 C 
ENDBRANCH  25  26
ENDBRANCH  17  25
ENDBRANCH  14  15
ENDBRANCH  13  14
ENDBRANCH  12  13
ENDBRANCH   1  12
BRANCH   8  28
HETATM   28  O1  UNL     1      84.752  60.815  14.897  1.00  0.00    -0.270 OA
ATOM     29  H1  UNL     1      84.451  60.183  15.539  1.00  0.00     0.245 HD
ENDBRANCH   8  28
BRANCH   7  30
HETATM   30  N4  UNL     1      84.443  59.137  12.768  1.00  0.00    -0.202 N 
ATOM     31  H4  UNL     1      84.318  58.576  13.611  1.00  0.00     0.183 HD
BRANCH  30  32
HETATM   32  C13 UNL     1      85.252  58.550  11.779  1.00  0.00     0.083 C 
BRANCH  32  33
HETATM   33  C14 UNL     1      86.631  58.152  12.297  1.00  0.00     0.028 C 
HETATM   34  C15 UNL     1      87.620  58.338  11.180  1.00  0.00     0.030 C 
HETATM   35  C16 UNL     1      88.001  59.790  11.038  1.00  0.00     0.126 C 
HETATM   36  N5  UNL     1      88.789  60.099  12.236  1.00  0.00    -0.356 N 
HETATM   37  C17 UNL     1      89.900  60.958  12.097  1.00  0.00     0.183 C 
HETATM   38  C18 UNL     1      88.400  59.514  13.490  1.00  0.00     0.126 C 
HETATM   39  N6  UNL     1      90.622  61.219  13.123  1.00  0.00    -0.374 N 
HETATM   40  N7  UNL     1      90.251  61.543  10.856  1.00  0.00    -0.064 NA
ATOM     41  H62 UNL     1      90.370  60.797  14.017  1.00  0.00     0.158 HD
ATOM     42  H61 UNL     1      91.426  61.839  13.022  1.00  0.00     0.158 HD
HETATM   43  C19 UNL     1      87.010  58.967  13.475  1.00  0.00     0.030 C 
ENDBRANCH  32  33
ENDBRANCH  30  32
ENDBRANCH   7  30
TORSDOF 10
ENDMDL
MODEL 4
REMARK VINA RESULT: -6.473537325      2.843      4.348
REMARK  10 active torsions:
REMARK  status: ('A' for Active; 'I' for Inactive)
REMARK    1  A    between atoms: C2_2  and  C3_3 
REMARK    2  A    between atoms: C3_3  and  N1_4 
REMARK    3  A    between atoms: C5_6  and  C6_7 
REMARK    4  A    between atoms: C6_7  and  C7_8 
REMARK    5  A    between atoms: C7_8  and  C8_9 
REMARK    6  A    between atoms: C8_9  and  C9_10 
REMARK    7  A    between atoms: C12_16  and  N4_17 
REMARK    8  A    between atoms: N4_17  and  C13_19 
REMARK    9  A    between atoms: C13_19  and  C14_20 
REMARK       I    between atoms: N5_23  and  C17_24 
REMARK   10  A    between atoms: N8_31  and  O1_32 
ROOT
HETATM    1  C9  UNL     1      78.256  66.479  12.730  1.00  0.00    -0.054 A 
HETATM    2  C10 UNL     1      79.327  66.883  11.905  1.00  0.00     0.026 A 
HETATM    3  C11 UNL     1      80.449  66.103  11.816  1.00  0.00     0.118 A 
HETATM    4  N2  UNL     1      80.588  64.937  12.493  1.00  0.00    -0.252 N 
HETATM    5  N3  UNL     1      81.681  64.208  12.394  1.00  0.00    -0.123 N 
ATOM      6  H3  UNL     1      82.438  64.525  11.789  1.00  0.00     0.206 HD
HETATM    7  C12 UNL     1      81.825  63.034  13.085  1.00  0.00     0.723 A 
HETATM    8  N8  UNL     1      80.831  62.616  13.878  1.00  0.00    -0.060 N 
HETATM    9  C20 UNL     1      79.700  63.337  14.001  1.00  0.00     0.173 A 
HETATM   10  C21 UNL     1      79.597  64.512  13.290  1.00  0.00     0.075 A 
HETATM   11  C22 UNL     1      78.453  65.309  13.380  1.00  0.00     0.040 A 
ENDROOT
BRANCH   1  12
HETATM   12  C8  UNL     1      77.054  67.338  12.841  1.00  0.00     0.039 C 
BRANCH  12  13
HETATM   13  C7  UNL     1      75.783  66.648  13.102  1.00  0.00     0.005 C 
BRANCH  13  14
HETATM   14  C6  UNL     1      75.048  66.852  14.343  1.00  0.00     0.012 C 
BRANCH  14  15
HETATM   15  C5  UNL     1      74.678  65.722  15.219  1.00  0.00    -0.012 C 
HETATM   16  C4  UNL     1      75.711  65.750  16.378  1.00  0.00     0.136 C 
HETATM   17  N1  UNL     1      74.984  65.340  17.555  1.00  0.00    -0.348 N 
HETATM   18  C28 UNL     1      73.609  65.600  17.386  1.00  0.00     0.225 C 
HETATM   19  C27 UNL     1      73.389  65.626  15.886  1.00  0.00     0.088 C 
HETATM   20  O2  UNL     1      72.744  65.775  18.280  1.00  0.00    -0.273 OA
HETATM   21  C26 UNL     1      72.659  64.298  15.526  1.00  0.00     0.015 C 
HETATM   22  C25 UNL     1      73.475  63.122  15.976  1.00  0.00     0.001 C 
HETATM   23  C24 UNL     1      74.828  63.218  15.328  1.00  0.00     0.001 C 
HETATM   24  C23 UNL     1      74.988  64.415  14.460  1.00  0.00     0.012 C 
BRANCH  17  25
HETATM   25  C3  UNL     1      75.591  64.752  18.727  1.00  0.00     0.152 C 
BRANCH  25  26
HETATM   26  C2  UNL     1      75.947  63.324  18.569  1.00  0.00    -0.017 C 
HETATM   27  C1  UNL     1      77.189  62.968  18.237  1.00  0.00     0.008 C 
ENDBRANCH  25  26
ENDBRANCH  17  25
ENDBRANCH  14  15
ENDBRANCH  13  14
ENDBRANCH  12  13
ENDBRANCH   1  12
BRANCH   8  28
HETATM   28  O1  UNL     1      80.958  61.419  14.594  1.00  0.00    -0.270 OA
ATOM     29  H1  UNL     1      80.362  60.699  14.430  1.00  0.00     0.245 HD
ENDBRANCH   8  28
BRANCH   7  30
HETATM   30  N4  UNL     1      82.911  62.374  12.945  1.00  0.00    -0.202 N 
ATOM     31  H4  UNL     1      83.678  62.671  13.547  1.00  0.00     0.183 HD
BRANCH  30  32
HETATM   32  C13 UNL     1      83.210  61.301  12.087  1.00  0.00     0.083 C 
BRANCH  32  33
HETATM   33  C14 UNL     1      84.186  60.302  12.704  1.00  0.00     0.028 C 
HETATM   34  C15 UNL     1      85.105  59.818  11.618  1.00  0.00     0.030 C 
HETATM   35  C16 UNL     1      86.188  60.831  11.341  1.00  0.00     0.126 C 
HETATM   36  N5  UNL     1      87.042  60.815  12.534  1.00  0.00    -0.356 N 
HETATM   37  C17 UNL     1      88.435  60.945  12.354  1.00  0.00     0.183 C 
HETATM   38  C18 UNL     1      86.427  60.663  13.824  1.00  0.00     0.126 C 
HETATM   39  N6  UNL     1      89.206  60.903  13.378  1.00  0.00    -0.374 N 
HETATM   40  N7  UNL     1      89.019  61.119  11.075  1.00  0.00    -0.064 NA
ATOM     41  H62 UNL     1      88.785  60.778  14.299  1.00  0.00     0.158 HD
ATOM     42  H61 UNL     1      90.213  60.997  13.247  1.00  0.00     0.158 HD
HETATM   43  C19 UNL     1      84.956  60.924  13.806  1.00  0.00     0.030 C 
ENDBRANCH  32  33
ENDBRANCH  30  32
ENDBRANCH   7  30
TORSDOF 10
ENDMDL
MODEL 5
REMARK VINA RESULT: -6.448015502      2.026      3.134
REMARK  10 active torsions:
REMARK  status: ('A' for Active; 'I' for Inactive)
REMARK    1  A    between atoms: C2_2  and  C3_3 
REMARK    2  A    between atoms: C3_3  and  N1_4 
REMARK    3  A    between atoms: C5_6  and  C6_7 
REMARK    4  A    between atoms: C6_7  and  C7_8 
REMARK    5  A    between atoms: C7_8  and  C8_9 
REMARK    6  A    between atoms: C8_9  and  C9_10 
REMARK    7  A    between atoms: C12_16  and  N4_17 
REMARK    8  A    between atoms: N4_17  and  C13_19 
REMARK    9  A    between atoms: C13_19  and  C14_20 
REMARK       I    between atoms: N5_23  and  C17_24 
REMARK   10  A    between atoms: N8_31  and  O1_32 
ROOT
HETATM    1  C9  UNL     1      81.734  63.078  12.167  1.00  0.00    -0.054 A 
HETATM    2  C10 UNL     1      81.770  61.981  11.280  1.00  0.00     0.026 A 
HETATM    3  C11 UNL     1      82.730  61.016  11.429  1.00  0.00     0.118 A 
HETATM    4  N2  UNL     1      83.669  61.060  12.407  1.00  0.00    -0.252 N 
HETATM    5  N3  UNL     1      84.585  60.121  12.525  1.00  0.00    -0.123 N 
ATOM      6  H3  UNL     1      84.585  59.339  11.870  1.00  0.00     0.206 HD
HETATM    7  C12 UNL     1      85.538  60.169  13.508  1.00  0.00     0.723 A 
HETATM    8  N8  UNL     1      85.537  61.193  14.370  1.00  0.00    -0.060 N 
HETATM    9  C20 UNL     1      84.614  62.168  14.277  1.00  0.00     0.173 A 
HETATM   10  C21 UNL     1      83.674  62.083  13.274  1.00  0.00     0.075 A 
HETATM   11  C22 UNL     1      82.694  63.066  13.120  1.00  0.00     0.040 A 
ENDROOT
BRANCH   1  12
HETATM   12  C8  UNL     1      80.707  64.131  11.986  1.00  0.00     0.039 C 
BRANCH  12  13
HETATM   13  C7  UNL     1      79.994  64.558  13.197  1.00  0.00     0.005 C 
BRANCH  13  14
HETATM   14  C6  UNL     1      79.449  63.590  14.141  1.00  0.00     0.012 C 
BRANCH  14  15
HETATM   15  C5  UNL     1      77.993  63.434  14.336  1.00  0.00    -0.012 C 
HETATM   16  C4  UNL     1      77.823  63.026  15.824  1.00  0.00     0.136 C 
HETATM   17  N1  UNL     1      76.604  63.659  16.263  1.00  0.00    -0.348 N 
HETATM   18  C28 UNL     1      76.330  64.785  15.460  1.00  0.00     0.225 C 
HETATM   19  C27 UNL     1      77.049  64.525  14.150  1.00  0.00     0.088 C 
HETATM   20  O2  UNL     1      75.641  65.792  15.756  1.00  0.00    -0.273 OA
HETATM   21  C26 UNL     1      75.949  64.155  13.111  1.00  0.00     0.015 C 
HETATM   22  C25 UNL     1      75.163  62.971  13.591  1.00  0.00     0.001 C 
HETATM   23  C24 UNL     1      76.123  61.837  13.826  1.00  0.00     0.001 C 
HETATM   24  C23 UNL     1      77.540  62.191  13.542  1.00  0.00     0.012 C 
BRANCH  17  25
HETATM   25  C3  UNL     1      75.793  63.197  17.366  1.00  0.00     0.152 C 
BRANCH  25  26
HETATM   26  C2  UNL     1      76.570  62.819  18.569  1.00  0.00    -0.017 C 
HETATM   27  C1  UNL     1      77.053  63.756  19.386  1.00  0.00     0.008 C 
ENDBRANCH  25  26
ENDBRANCH  17  25
ENDBRANCH  14  15
ENDBRANCH  13  14
ENDBRANCH  12  13
ENDBRANCH   1  12
BRANCH   8  28
HETATM   28  O1  UNL     1      86.503  61.262  15.381  1.00  0.00    -0.270 OA
ATOM     29  H1  UNL     1      86.958  62.078  15.553  1.00  0.00     0.245 HD
ENDBRANCH   8  28
BRANCH   7  30
HETATM   30  N4  UNL     1      86.399  59.226  13.568  1.00  0.00    -0.202 N 
ATOM     31  H4  UNL     1      86.349  58.649  14.408  1.00  0.00     0.183 HD
BRANCH  30  32
HETATM   32  C13 UNL     1      87.404  58.862  12.655  1.00  0.00     0.083 C 
BRANCH  32  33
HETATM   33  C14 UNL     1      88.788  59.357  13.067  1.00  0.00     0.028 C 
HETATM   34  C15 UNL     1      89.812  58.545  12.324  1.00  0.00     0.030 C 
HETATM   35  C16 UNL     1      89.965  59.041  10.908  1.00  0.00     0.126 C 
HETATM   36  N5  UNL     1      90.604  60.356  11.029  1.00  0.00    -0.356 N 
HETATM   37  C17 UNL     1      91.570  60.715  10.065  1.00  0.00     0.183 C 
HETATM   38  C18 UNL     1      90.225  61.213  12.119  1.00  0.00     0.126 C 
HETATM   39  N6  UNL     1      92.165  61.846  10.167  1.00  0.00    -0.374 N 
HETATM   40  N7  UNL     1      91.911  59.865   8.985  1.00  0.00    -0.064 NA
ATOM     41  H62 UNL     1      91.919  62.458  10.945  1.00  0.00     0.158 HD
ATOM     42  H61 UNL     1      92.864  62.106   9.470  1.00  0.00     0.158 HD
HETATM   43  C19 UNL     1      88.945  60.800  12.771  1.00  0.00     0.030 C 
ENDBRANCH  32  33
ENDBRANCH  30  32
ENDBRANCH   7  30
TORSDOF 10
ENDMDL
