MODEL 1
REMARK VINA RESULT: -8.072735546      0.000      0.000
REMARK  9 active torsions:
REMARK  status: ('A' for Active; 'I' for Inactive)
REMARK    1  A    between atoms: C3_3  and  C4_4 
REMARK    2  A    between atoms: C4_4  and  C5_5 
REMARK    3  A    between atoms: C6_8  and  C7_9 
REMARK    4  A    between atoms: C7_9  and  C8_10 
REMARK    5  A    between atoms: C8_10  and  C9_11 
REMARK    6  A    between atoms: C9_11  and  C10_12 
REMARK    7  A    between atoms: C10_12  and  C11_13 
REMARK    8  A    between atoms: C13_15  and  C14_16 
REMARK    9  A    between atoms: N2_17  and  C15_19 
ROOT
HETATM    1  C11 UNL     1      78.436  62.743  13.192  1.00  0.00     0.012 A 
HETATM    2  C12 UNL     1      77.673  62.696  14.340  1.00  0.00     0.040 A 
HETATM    3  C13 UNL     1      77.072  63.825  14.884  1.00  0.00     0.010 A 
HETATM    4  C21 UNL     1      77.286  65.023  14.199  1.00  0.00     0.071 A 
HETATM    5  N4  UNL     1      76.886  66.269  14.408  1.00  0.00    -0.357 N 
ATOM      6  H4  UNL     1      76.300  66.560  15.190  1.00  0.00     0.166 HD
HETATM    7  C22 UNL     1      77.354  67.114  13.449  1.00  0.00     0.008 A 
HETATM    8  C23 UNL     1      77.075  68.591  13.407  1.00  0.00     0.068 C 
HETATM    9  C24 UNL     1      78.092  66.349  12.589  1.00  0.00     0.056 A 
HETATM   10  C25 UNL     1      78.057  65.029  13.050  1.00  0.00     0.064 A 
HETATM   11  N5  UNL     1      78.627  63.907  12.550  1.00  0.00    -0.353 N 
HETATM   12  C26 UNL     1      79.415  64.052  11.344  1.00  0.00     0.156 C 
ENDROOT
BRANCH   1  13
HETATM   13  C10 UNL     1      79.066  61.515  12.661  1.00  0.00     0.057 C 
BRANCH  13  14
HETATM   14  C9  UNL     1      80.372  61.164  13.316  1.00  0.00     0.006 C 
BRANCH  14  15
HETATM   15  C8  UNL     1      81.485  61.033  12.282  1.00  0.00     0.006 C 
BRANCH  15  16
HETATM   16  C7  UNL     1      82.365  62.244  12.431  1.00  0.00     0.057 C 
BRANCH  16  17
HETATM   17  C6  UNL     1      83.507  62.031  13.357  1.00  0.00     0.010 A 
HETATM   18  N1  UNL     1      84.504  61.166  13.238  1.00  0.00    -0.359 N 
HETATM   19  C5  UNL     1      85.367  61.275  14.291  1.00  0.00     0.040 A 
ATOM     20  H1  UNL     1      84.612  60.508  12.466  1.00  0.00     0.166 HD
HETATM   21  C28 UNL     1      84.836  62.281  15.087  1.00  0.00    -0.033 A 
HETATM   22  C27 UNL     1      83.679  62.755  14.512  1.00  0.00     0.034 A 
HETATM   23  C29 UNL     1      85.414  62.768  16.351  1.00  0.00     0.050 C 
BRANCH  19  24
HETATM   24  C4  UNL     1      86.571  60.515  14.463  1.00  0.00     0.062 C 
BRANCH  24  25
HETATM   25  C3  UNL     1      87.562  60.264  13.638  1.00  0.00     0.064 A 
HETATM   26  C2  UNL     1      87.692  59.353  12.622  1.00  0.00     0.056 A 
HETATM   27  C1  UNL     1      86.826  58.465  12.171  1.00  0.00     0.045 C 
HETATM   28  N7  UNL     1      88.931  59.471  12.057  1.00  0.00    -0.303 N 
HETATM   29  C30 UNL     1      89.549  60.440  12.718  1.00  0.00     0.327 A 
HETATM   30  C31 UNL     1      89.466  58.670  10.936  1.00  0.00     0.161 C 
HETATM   31  N6  UNL     1      88.763  60.938  13.671  1.00  0.00    -0.306 N 
HETATM   32  O1  UNL     1      90.723  60.880  12.521  1.00  0.00    -0.246 OA
ATOM     33  H6  UNL     1      89.008  61.690  14.315  1.00  0.00     0.171 HD
ENDBRANCH  24  25
ENDBRANCH  19  24
ENDBRANCH  16  17
ENDBRANCH  15  16
ENDBRANCH  14  15
ENDBRANCH  13  14
ENDBRANCH   1  13
BRANCH   3  34
HETATM   34  C14 UNL     1      76.278  63.756  16.096  1.00  0.00     0.102 C 
HETATM   35  N2  UNL     1      76.741  63.789  17.285  1.00  0.00    -0.365 N 
ATOM     36  H2  UNL     1      77.751  63.869  17.401  1.00  0.00     0.165 HD
BRANCH  35  37
HETATM   37  C15 UNL     1      75.945  63.721  18.452  1.00  0.00     0.034 A 
HETATM   38  C16 UNL     1      76.346  64.258  19.652  1.00  0.00     0.046 A 
HETATM   39  C17 UNL     1      75.533  64.166  20.756  1.00  0.00     0.092 A 
HETATM   40  N3  UNL     1      74.352  63.566  20.706  1.00  0.00    -0.371 N 
HETATM   41  C18 UNL     1      73.530  63.496  21.907  1.00  0.00     0.154 C 
HETATM   42  C19 UNL     1      73.935  63.026  19.525  1.00  0.00     0.092 A 
HETATM   43  C20 UNL     1      74.721  63.097  18.396  1.00  0.00     0.046 A 
ENDBRANCH  35  37
ENDBRANCH   3  34
TORSDOF 9
ENDMDL
MODEL 2
REMARK VINA RESULT: -7.954508370      2.417      6.216
REMARK  9 active torsions:
REMARK  status: ('A' for Active; 'I' for Inactive)
REMARK    1  A    between atoms: C3_3  and  C4_4 
REMARK    2  A    between atoms: C4_4  and  C5_5 
REMARK    3  A    between atoms: C6_8  and  C7_9 
REMARK    4  A    between atoms: C7_9  and  C8_10 
REMARK    5  A    between atoms: C8_10  and  C9_11 
REMARK    6  A    between atoms: C9_11  and  C10_12 
REMARK    7  A    between atoms: C10_12  and  C11_13 
REMARK    8  A    between atoms: C13_15  and  C14_16 
REMARK    9  A    between atoms: N2_17  and  C15_19 
ROOT
HETATM    1  C11 UNL     1      76.981  65.555  13.494  1.00  0.00     0.012 A 
HETATM    2  C12 UNL     1      77.567  64.350  13.167  1.00  0.00     0.040 A 
HETATM    3  C13 UNL     1      77.593  63.270  14.042  1.00  0.00     0.010 A 
HETATM    4  C21 UNL     1      76.988  63.473  15.283  1.00  0.00     0.071 A 
HETATM    5  N4  UNL     1      76.819  62.699  16.346  1.00  0.00    -0.357 N 
ATOM      6  H4  UNL     1      77.148  61.736  16.412  1.00  0.00     0.166 HD
HETATM    7  C22 UNL     1      76.152  63.348  17.339  1.00  0.00     0.008 A 
HETATM    8  C23 UNL     1      75.807  62.740  18.670  1.00  0.00     0.068 C 
HETATM    9  C24 UNL     1      75.889  64.604  16.868  1.00  0.00     0.056 A 
HETATM   10  C25 UNL     1      76.410  64.696  15.574  1.00  0.00     0.064 A 
HETATM   11  N5  UNL     1      76.405  65.726  14.695  1.00  0.00    -0.353 N 
HETATM   12  C26 UNL     1      75.772  66.955  15.126  1.00  0.00     0.156 C 
ENDROOT
BRANCH   1  13
HETATM   13  C10 UNL     1      76.993  66.679  12.533  1.00  0.00     0.057 C 
BRANCH  13  14
HETATM   14  C9  UNL     1      78.246  67.506  12.574  1.00  0.00     0.006 C 
BRANCH  14  15
HETATM   15  C8  UNL     1      79.188  67.130  11.435  1.00  0.00     0.006 C 
BRANCH  15  16
HETATM   16  C7  UNL     1      80.524  66.825  12.056  1.00  0.00     0.057 C 
BRANCH  16  17
HETATM   17  C6  UNL     1      80.874  65.382  12.020  1.00  0.00     0.010 A 
HETATM   18  N1  UNL     1      81.408  64.647  12.986  1.00  0.00    -0.359 N 
HETATM   19  C5  UNL     1      81.576  63.355  12.574  1.00  0.00     0.040 A 
ATOM     20  H1  UNL     1      81.659  64.998  13.910  1.00  0.00     0.166 HD
HETATM   21  C28 UNL     1      81.104  63.331  11.268  1.00  0.00    -0.033 A 
HETATM   22  C27 UNL     1      80.667  64.588  10.918  1.00  0.00     0.034 A 
HETATM   23  C29 UNL     1      81.075  62.150  10.390  1.00  0.00     0.050 C 
BRANCH  19  24
HETATM   24  C4  UNL     1      82.094  62.286  13.376  1.00  0.00     0.062 C 
BRANCH  24  25
HETATM   25  C3  UNL     1      83.323  61.986  13.731  1.00  0.00     0.064 A 
HETATM   26  C2  UNL     1      84.324  61.322  13.071  1.00  0.00     0.056 A 
HETATM   27  C1  UNL     1      84.333  60.802  11.859  1.00  0.00     0.045 C 
HETATM   28  N7  UNL     1      85.430  61.251  13.871  1.00  0.00    -0.303 N 
HETATM   29  C30 UNL     1      85.109  61.862  15.003  1.00  0.00     0.327 A 
HETATM   30  C31 UNL     1      86.720  60.612  13.533  1.00  0.00     0.161 C 
HETATM   31  N6  UNL     1      83.857  62.315  14.958  1.00  0.00    -0.306 N 
HETATM   32  O1  UNL     1      85.845  62.028  16.025  1.00  0.00    -0.246 OA
ATOM     33  H6  UNL     1      83.377  62.818  15.703  1.00  0.00     0.171 HD
ENDBRANCH  24  25
ENDBRANCH  19  24
ENDBRANCH  16  17
ENDBRANCH  15  16
ENDBRANCH  14  15
ENDBRANCH  13  14
ENDBRANCH   1  13
BRANCH   3  34
HETATM   34  C14 UNL     1      78.219  62.013  13.681  1.00  0.00     0.102 C 
HETATM   35  N2  UNL     1      77.633  60.881  13.639  1.00  0.00    -0.365 N 
ATOM     36  H2  UNL     1      76.642  60.848  13.879  1.00  0.00     0.165 HD
BRANCH  35  37
HETATM   37  C15 UNL     1      78.266  59.667  13.282  1.00  0.00     0.034 A 
HETATM   38  C16 UNL     1      77.628  58.452  13.358  1.00  0.00     0.046 A 
HETATM   39  C17 UNL     1      78.290  57.302  12.997  1.00  0.00     0.092 A 
HETATM   40  N3  UNL     1      79.544  57.322  12.569  1.00  0.00    -0.371 N 
HETATM   41  C18 UNL     1      80.199  56.074  12.200  1.00  0.00     0.154 C 
HETATM   42  C19 UNL     1      80.195  58.518  12.487  1.00  0.00     0.092 A 
HETATM   43  C20 UNL     1      79.568  59.693  12.840  1.00  0.00     0.046 A 
ENDBRANCH  35  37
ENDBRANCH   3  34
TORSDOF 9
ENDMDL
MODEL 3
REMARK VINA RESULT: -7.916761450      1.685      3.124
REMARK  9 active torsions:
REMARK  status: ('A' for Active; 'I' for Inactive)
REMARK    1  A    between atoms: C3_3  and  C4_4 
REMARK    2  A    between atoms: C4_4  and  C5_5 
REMARK    3  A    between atoms: C6_8  and  C7_9 
REMARK    4  A    between atoms: C7_9  and  C8_10 
REMARK    5  A    between atoms: C8_10  and  C9_11 
REMARK    6  A    between atoms: C9_11  and  C10_12 
REMARK    7  A    between atoms: C10_12  and  C11_13 
REMARK    8  A    between atoms: C13_15  and  C14_16 
REMARK    9  A    between atoms: N2_17  and  C15_19 
ROOT
HETATM    1  C11 UNL     1      78.779  63.088  12.293  1.00  0.00     0.012 A 
HETATM    2  C12 UNL     1      78.116  63.342  13.476  1.00  0.00     0.040 A 
HETATM    3  C13 UNL     1      77.248  62.425  14.058  1.00  0.00     0.010 A 
HETATM    4  C21 UNL     1      77.082  61.220  13.373  1.00  0.00     0.071 A 
HETATM    5  N4  UNL     1      76.359  60.135  13.612  1.00  0.00    -0.357 N 
ATOM      6  H4  UNL     1      75.751  60.018  14.423  1.00  0.00     0.166 HD
HETATM    7  C22 UNL     1      76.526  59.196  12.641  1.00  0.00     0.008 A 
HETATM    8  C23 UNL     1      75.842  57.857  12.626  1.00  0.00     0.068 C 
HETATM    9  C24 UNL     1      77.407  59.727  11.740  1.00  0.00     0.056 A 
HETATM   10  C25 UNL     1      77.765  61.002  12.190  1.00  0.00     0.064 A 
HETATM   11  N5  UNL     1      78.603  61.921  11.653  1.00  0.00    -0.353 N 
HETATM   12  C26 UNL     1      79.252  61.570  10.408  1.00  0.00     0.156 C 
ENDROOT
BRANCH   1  13
HETATM   13  C10 UNL     1      79.681  64.103  11.708  1.00  0.00     0.057 C 
BRANCH  13  14
HETATM   14  C9  UNL     1      80.927  64.349  12.509  1.00  0.00     0.006 C 
BRANCH  14  15
HETATM   15  C8  UNL     1      82.018  63.348  12.146  1.00  0.00     0.006 C 
BRANCH  15  16
HETATM   16  C7  UNL     1      81.972  62.256  13.180  1.00  0.00     0.057 C 
BRANCH  16  17
HETATM   17  C6  UNL     1      83.280  62.016  13.842  1.00  0.00     0.010 A 
HETATM   18  N1  UNL     1      84.216  61.139  13.506  1.00  0.00    -0.359 N 
HETATM   19  C5  UNL     1      85.283  61.222  14.354  1.00  0.00     0.040 A 
ATOM     20  H1  UNL     1      84.148  60.491  12.721  1.00  0.00     0.166 HD
HETATM   21  C28 UNL     1      84.947  62.224  15.256  1.00  0.00    -0.033 A 
HETATM   22  C27 UNL     1      83.703  62.721  14.943  1.00  0.00     0.034 A 
HETATM   23  C29 UNL     1      85.786  62.686  16.374  1.00  0.00     0.050 C 
BRANCH  19  24
HETATM   24  C4  UNL     1      86.484  60.445  14.260  1.00  0.00     0.062 C 
BRANCH  24  25
HETATM   25  C3  UNL     1      87.468  60.472  13.391  1.00  0.00     0.064 A 
HETATM   26  C2  UNL     1      87.522  60.118  12.067  1.00  0.00     0.056 A 
HETATM   27  C1  UNL     1      86.571  59.656  11.279  1.00  0.00     0.045 C 
HETATM   28  N7  UNL     1      88.787  60.319  11.592  1.00  0.00    -0.303 N 
HETATM   29  C30 UNL     1      89.495  60.789  12.609  1.00  0.00     0.327 A 
HETATM   30  C31 UNL     1      89.262  60.058  10.216  1.00  0.00     0.161 C 
HETATM   31  N6  UNL     1      88.741  60.894  13.702  1.00  0.00    -0.306 N 
HETATM   32  O1  UNL     1      90.723  61.114  12.609  1.00  0.00    -0.246 OA
ATOM     33  H6  UNL     1      89.053  61.229  14.613  1.00  0.00     0.171 HD
ENDBRANCH  24  25
ENDBRANCH  19  24
ENDBRANCH  16  17
ENDBRANCH  15  16
ENDBRANCH  14  15
ENDBRANCH  13  14
ENDBRANCH   1  13
BRANCH   3  34
HETATM   34  C14 UNL     1      76.556  62.714  15.299  1.00  0.00     0.102 C 
HETATM   35  N2  UNL     1      77.082  62.688  16.461  1.00  0.00    -0.365 N 
ATOM     36  H2  UNL     1      78.070  62.443  16.532  1.00  0.00     0.165 HD
BRANCH  35  37
HETATM   37  C15 UNL     1      76.385  62.975  17.658  1.00  0.00     0.034 A 
HETATM   38  C16 UNL     1      75.047  62.702  17.817  1.00  0.00     0.046 A 
HETATM   39  C17 UNL     1      74.418  63.001  19.003  1.00  0.00     0.092 A 
HETATM   40  N3  UNL     1      75.067  63.553  20.018  1.00  0.00    -0.371 N 
HETATM   41  C18 UNL     1      74.352  63.849  21.253  1.00  0.00     0.154 C 
HETATM   42  C19 UNL     1      76.395  63.832  19.881  1.00  0.00     0.092 A 
HETATM   43  C20 UNL     1      77.062  63.549  18.709  1.00  0.00     0.046 A 
ENDBRANCH  35  37
ENDBRANCH   3  34
TORSDOF 9
ENDMDL
MODEL 4
REMARK VINA RESULT: -7.912307506      3.485      9.265
REMARK  9 active torsions:
REMARK  status: ('A' for Active; 'I' for Inactive)
REMARK    1  A    between atoms: C3_3  and  C4_4 
REMARK    2  A    between atoms: C4_4  and  C5_5 
REMARK    3  A    between atoms: C6_8  and  C7_9 
REMARK    4  A    between atoms: C7_9  and  C8_10 
REMARK    5  A    between atoms: C8_10  and  C9_11 
REMARK    6  A    between atoms: C9_11  and  C10_12 
REMARK    7  A    between atoms: C10_12  and  C11_13 
REMARK    8  A    between atoms: C13_15  and  C14_16 
REMARK    9  A    between atoms: N2_17  and  C15_19 
ROOT
HETATM    1  C11 UNL     1      83.290  60.083  11.619  1.00  0.00     0.012 A 
HETATM    2  C12 UNL     1      82.523  61.229  11.596  1.00  0.00     0.040 A 
HETATM    3  C13 UNL     1      82.669  62.245  12.532  1.00  0.00     0.010 A 
HETATM    4  C21 UNL     1      83.645  62.042  13.509  1.00  0.00     0.071 A 
HETATM    5  N4  UNL     1      84.062  62.767  14.538  1.00  0.00    -0.357 N 
ATOM      6  H4  UNL     1      83.681  63.680  14.788  1.00  0.00     0.166 HD
HETATM    7  C22 UNL     1      85.060  62.142  15.220  1.00  0.00     0.008 A 
HETATM    8  C23 UNL     1      85.743  62.708  16.434  1.00  0.00     0.068 C 
HETATM    9  C24 UNL     1      85.280  60.955  14.579  1.00  0.00     0.056 A 
HETATM   10  C25 UNL     1      84.395  60.879  13.500  1.00  0.00     0.064 A 
HETATM   11  N5  UNL     1      84.224  59.910  12.569  1.00  0.00    -0.353 N 
HETATM   12  C26 UNL     1      85.070  58.741  12.675  1.00  0.00     0.156 C 
ENDROOT
BRANCH   1  13
HETATM   13  C10 UNL     1      83.086  59.023  10.608  1.00  0.00     0.057 C 
BRANCH  13  14
HETATM   14  C9  UNL     1      82.177  57.915  11.057  1.00  0.00     0.006 C 
BRANCH  14  15
HETATM   15  C8  UNL     1      80.729  58.208  10.680  1.00  0.00     0.006 C 
BRANCH  15  16
HETATM   16  C7  UNL     1      79.983  58.450  11.964  1.00  0.00     0.057 C 
BRANCH  16  17
HETATM   17  C6  UNL     1      79.355  59.794  12.035  1.00  0.00     0.010 A 
HETATM   18  N1  UNL     1      79.231  60.583  13.094  1.00  0.00    -0.359 N 
HETATM   19  C5  UNL     1      78.600  61.746  12.760  1.00  0.00     0.040 A 
ATOM     20  H1  UNL     1      79.562  60.351  14.031  1.00  0.00     0.166 HD
HETATM   21  C28 UNL     1      78.334  61.632  11.401  1.00  0.00    -0.033 A 
HETATM   22  C27 UNL     1      78.800  60.421  10.945  1.00  0.00     0.034 A 
HETATM   23  C29 UNL     1      77.657  62.645  10.573  1.00  0.00     0.050 C 
BRANCH  19  24
HETATM   24  C4  UNL     1      78.334  62.836  13.653  1.00  0.00     0.062 C 
BRANCH  24  25
HETATM   25  C3  UNL     1      77.635  62.896  14.763  1.00  0.00     0.064 A 
HETATM   26  C2  UNL     1      76.292  62.756  15.002  1.00  0.00     0.056 A 
HETATM   27  C1  UNL     1      75.309  62.502  14.161  1.00  0.00     0.045 C 
HETATM   28  N7  UNL     1      76.047  62.916  16.337  1.00  0.00    -0.303 N 
HETATM   29  C30 UNL     1      77.222  63.148  16.905  1.00  0.00     0.327 A 
HETATM   30  C31 UNL     1      74.728  62.845  17.003  1.00  0.00     0.161 C 
HETATM   31  N6  UNL     1      78.195  63.145  15.997  1.00  0.00    -0.306 N 
HETATM   32  O1  UNL     1      77.455  63.353  18.137  1.00  0.00    -0.246 OA
ATOM     33  H6  UNL     1      79.186  63.300  16.182  1.00  0.00     0.171 HD
ENDBRANCH  24  25
ENDBRANCH  19  24
ENDBRANCH  16  17
ENDBRANCH  15  16
ENDBRANCH  14  15
ENDBRANCH  13  14
ENDBRANCH   1  13
BRANCH   3  34
HETATM   34  C14 UNL     1      81.847  63.440  12.493  1.00  0.00     0.102 C 
HETATM   35  N2  UNL     1      81.319  63.939  11.444  1.00  0.00    -0.365 N 
ATOM     36  H2  UNL     1      81.484  63.466  10.556  1.00  0.00     0.165 HD
BRANCH  35  37
HETATM   37  C15 UNL     1      80.520  65.106  11.433  1.00  0.00     0.034 A 
HETATM   38  C16 UNL     1      80.244  65.823  12.572  1.00  0.00     0.046 A 
HETATM   39  C17 UNL     1      79.462  66.952  12.504  1.00  0.00     0.092 A 
HETATM   40  N3  UNL     1      78.954  67.383  11.359  1.00  0.00    -0.371 N 
HETATM   41  C18 UNL     1      78.131  68.585  11.344  1.00  0.00     0.154 C 
HETATM   42  C19 UNL     1      79.216  66.685  10.216  1.00  0.00     0.092 A 
HETATM   43  C20 UNL     1      79.994  65.549  10.242  1.00  0.00     0.046 A 
ENDBRANCH  35  37
ENDBRANCH   3  34
TORSDOF 9
ENDMDL
MODEL 5
REMARK VINA RESULT: -7.908809177      1.482      2.255
REMARK  9 active torsions:
REMARK  status: ('A' for Active; 'I' for Inactive)
REMARK    1  A    between atoms: C3_3  and  C4_4 
REMARK    2  A    between atoms: C4_4  and  C5_5 
REMARK    3  A    between atoms: C6_8  and  C7_9 
REMARK    4  A    between atoms: C7_9  and  C8_10 
REMARK    5  A    between atoms: C8_10  and  C9_11 
REMARK    6  A    between atoms: C9_11  and  C10_12 
REMARK    7  A    between atoms: C10_12  and  C11_13 
REMARK    8  A    between atoms: C13_15  and  C14_16 
REMARK    9  A    between atoms: N2_17  and  C15_19 
ROOT
HETATM    1  C11 UNL     1      79.262  65.858  11.712  1.00  0.00     0.012 A 
HETATM    2  C12 UNL     1      78.472  65.413  12.752  1.00  0.00     0.040 A 
HETATM    3  C13 UNL     1      77.556  66.235  13.398  1.00  0.00     0.010 A 
HETATM    4  C21 UNL     1      77.477  67.548  12.932  1.00  0.00     0.071 A 
HETATM    5  N4  UNL     1      76.741  68.592  13.287  1.00  0.00    -0.357 N 
ATOM      6  H4  UNL     1      76.052  68.579  14.039  1.00  0.00     0.166 HD
HETATM    7  C22 UNL     1      77.019  69.685  12.524  1.00  0.00     0.008 A 
HETATM    8  C23 UNL     1      76.352  71.023  12.681  1.00  0.00     0.068 C 
HETATM    9  C24 UNL     1      77.988  69.300  11.640  1.00  0.00     0.056 A 
HETATM   10  C25 UNL     1      78.285  67.957  11.886  1.00  0.00     0.064 A 
HETATM   11  N5  UNL     1      79.168  67.126  11.281  1.00  0.00    -0.353 N 
HETATM   12  C26 UNL     1      79.958  67.680  10.202  1.00  0.00     0.156 C 
ENDROOT
BRANCH   1  13
HETATM   13  C10 UNL     1      80.233  64.947  11.067  1.00  0.00     0.057 C 
BRANCH  13  14
HETATM   14  C9  UNL     1      80.476  63.674  11.827  1.00  0.00     0.006 C 
BRANCH  14  15
HETATM   15  C8  UNL     1      81.832  63.704  12.524  1.00  0.00     0.006 C 
BRANCH  15  16
HETATM   16  C7  UNL     1      82.421  62.326  12.394  1.00  0.00     0.057 C 
BRANCH  16  17
HETATM   17  C6  UNL     1      83.551  62.078  13.325  1.00  0.00     0.010 A 
HETATM   18  N1  UNL     1      84.539  61.203  13.197  1.00  0.00    -0.359 N 
HETATM   19  C5  UNL     1      85.393  61.277  14.260  1.00  0.00     0.040 A 
ATOM     20  H1  UNL     1      84.647  60.562  12.411  1.00  0.00     0.166 HD
HETATM   21  C28 UNL     1      84.865  62.271  15.074  1.00  0.00    -0.033 A 
HETATM   22  C27 UNL     1      83.720  62.773  14.499  1.00  0.00     0.034 A 
HETATM   23  C29 UNL     1      85.436  62.722  16.355  1.00  0.00     0.050 C 
BRANCH  19  24
HETATM   24  C4  UNL     1      86.586  60.500  14.427  1.00  0.00     0.062 C 
BRANCH  24  25
HETATM   25  C3  UNL     1      87.583  60.257  13.607  1.00  0.00     0.064 A 
HETATM   26  C2  UNL     1      87.722  59.352  12.586  1.00  0.00     0.056 A 
HETATM   27  C1  UNL     1      86.862  58.463  12.126  1.00  0.00     0.045 C 
HETATM   28  N7  UNL     1      88.963  59.477  12.030  1.00  0.00    -0.303 N 
HETATM   29  C30 UNL     1      89.574  60.444  12.700  1.00  0.00     0.327 A 
HETATM   30  C31 UNL     1      89.509  58.684  10.908  1.00  0.00     0.161 C 
HETATM   31  N6  UNL     1      88.781  60.935  13.651  1.00  0.00    -0.306 N 
HETATM   32  O1  UNL     1      90.749  60.889  12.512  1.00  0.00    -0.246 OA
ATOM     33  H6  UNL     1      89.020  61.683  14.301  1.00  0.00     0.171 HD
ENDBRANCH  24  25
ENDBRANCH  19  24
ENDBRANCH  16  17
ENDBRANCH  15  16
ENDBRANCH  14  15
ENDBRANCH  13  14
ENDBRANCH   1  13
BRANCH   3  34
HETATM   34  C14 UNL     1      76.739  65.750  14.494  1.00  0.00     0.102 C 
HETATM   35  N2  UNL     1      77.040  64.779  15.266  1.00  0.00    -0.365 N 
ATOM     36  H2  UNL     1      77.925  64.299  15.105  1.00  0.00     0.165 HD
BRANCH  35  37
HETATM   37  C15 UNL     1      76.226  64.326  16.330  1.00  0.00     0.034 A 
HETATM   38  C16 UNL     1      75.162  65.053  16.808  1.00  0.00     0.046 A 
HETATM   39  C17 UNL     1      74.401  64.565  17.844  1.00  0.00     0.092 A 
HETATM   40  N3  UNL     1      74.661  63.396  18.411  1.00  0.00    -0.371 N 
HETATM   41  C18 UNL     1      73.824  62.926  19.506  1.00  0.00     0.154 C 
HETATM   42  C19 UNL     1      75.713  62.658  17.952  1.00  0.00     0.092 A 
HETATM   43  C20 UNL     1      76.499  63.112  16.916  1.00  0.00     0.046 A 
ENDBRANCH  35  37
ENDBRANCH   3  34
TORSDOF 9
ENDMDL
