MODEL 1
REMARK VINA RESULT: -5.940066450      0.000      0.000
REMARK  7 active torsions:
REMARK  status: ('A' for Active; 'I' for Inactive)
REMARK    1  A    between atoms: C2_2  and  C3_3 
REMARK    2  A    between atoms: C4_4  and  O1_5 
REMARK    3  A    between atoms: C5_7  and  C6_8 
REMARK    4  A    between atoms: C6_8  and  O2_9 
REMARK    5  A    between atoms: O2_9  and  C7_10 
REMARK    6  A    between atoms: C7_10  and  C8_11 
REMARK    7  A    between atoms: C8_11  and  N1_12 
ROOT
HETATM    1  C6  UNL     1      23.977 -15.975   8.238  1.00  0.00     0.175 C 
ENDROOT
BRANCH   1   2
HETATM    2  C5  UNL     1      23.281 -16.518   6.997  1.00  0.00     0.049 A 
HETATM    3  C3  UNL     1      21.848 -16.093   6.781  1.00  0.00     0.045 A 
HETATM    4  C4  UNL     1      22.107 -17.475   7.237  1.00  0.00     0.133 A 
BRANCH   3   5
HETATM    5  C2  UNL     1      21.360 -15.915   5.384  1.00  0.00    -0.029 C 
HETATM    6  C1  UNL     1      22.198 -15.648   4.396  1.00  0.00     0.007 C 
ENDBRANCH   3   5
BRANCH   4   7
HETATM    7  O1  UNL     1      21.954 -18.534   6.334  1.00  0.00    -0.394 OA
ATOM      8  H1  UNL     1      22.508 -19.302   6.420  1.00  0.00     0.210 HD
ENDBRANCH   4   7
ENDBRANCH   1   2
BRANCH   1   9
HETATM    9  O2  UNL     1      25.138 -15.296   7.871  1.00  0.00    -0.389 OA
BRANCH   9  10
HETATM   10  C7  UNL     1      24.751 -14.200   7.126  1.00  0.00     0.188 C 
BRANCH  10  11
HETATM   11  C8  UNL     1      25.780 -13.097   7.106  1.00  0.00     0.165 C 
BRANCH  11  12
HETATM   12  N1  UNL     1      27.024 -13.648   7.568  1.00  0.00    -0.341 N 
HETATM   13  N2  UNL     1      27.646 -13.243   8.550  1.00  0.00    -0.349 N 
ATOM     14  H22 UNL     1      27.237 -12.460   9.060  1.00  0.00     0.176 HD
ATOM     15  H21 UNL     1      28.529 -13.634   8.878  1.00  0.00     0.176 HD
ATOM     16  H1  UNL     1      27.419 -14.429   7.046  1.00  0.00     0.179 HD
ENDBRANCH  11  12
ENDBRANCH  10  11
ENDBRANCH   9  10
ENDBRANCH   1   9
TORSDOF 7
ENDMDL
MODEL 2
REMARK VINA RESULT: -5.924779511      1.445      1.760
REMARK  7 active torsions:
REMARK  status: ('A' for Active; 'I' for Inactive)
REMARK    1  A    between atoms: C2_2  and  C3_3 
REMARK    2  A    between atoms: C4_4  and  O1_5 
REMARK    3  A    between atoms: C5_7  and  C6_8 
REMARK    4  A    between atoms: C6_8  and  O2_9 
REMARK    5  A    between atoms: O2_9  and  C7_10 
REMARK    6  A    between atoms: C7_10  and  C8_11 
REMARK    7  A    between atoms: C8_11  and  N1_12 
ROOT
HETATM    1  C6  UNL     1      24.143 -15.866   7.629  1.00  0.00     0.175 C 
ENDROOT
BRANCH   1   2
HETATM    2  C5  UNL     1      23.041 -15.401   6.688  1.00  0.00     0.049 A 
HETATM    3  C3  UNL     1      21.913 -16.372   6.431  1.00  0.00     0.045 A 
HETATM    4  C4  UNL     1      22.911 -16.160   5.362  1.00  0.00     0.133 A 
BRANCH   3   5
HETATM    5  C2  UNL     1      20.543 -15.828   6.204  1.00  0.00    -0.029 C 
HETATM    6  C1  UNL     1      19.956 -15.056   7.103  1.00  0.00     0.007 C 
ENDBRANCH   3   5
BRANCH   4   7
HETATM    7  O1  UNL     1      22.556 -15.411   4.232  1.00  0.00    -0.394 OA
ATOM      8  H1  UNL     1      23.130 -15.413   3.474  1.00  0.00     0.210 HD
ENDBRANCH   4   7
ENDBRANCH   1   2
BRANCH   1   9
HETATM    9  O2  UNL     1      24.890 -14.771   8.064  1.00  0.00    -0.389 OA
BRANCH   9  10
HETATM   10  C7  UNL     1      24.805 -13.805   7.081  1.00  0.00     0.188 C 
BRANCH  10  11
HETATM   11  C8  UNL     1      25.962 -12.836   7.093  1.00  0.00     0.165 C 
BRANCH  11  12
HETATM   12  N1  UNL     1      27.094 -13.512   7.666  1.00  0.00    -0.341 N 
HETATM   13  N2  UNL     1      27.660 -13.170   8.704  1.00  0.00    -0.349 N 
ATOM     14  H22 UNL     1      27.287 -12.348   9.179  1.00  0.00     0.176 HD
ATOM     15  H21 UNL     1      28.463 -13.649   9.110  1.00  0.00     0.176 HD
ATOM     16  H1  UNL     1      27.453 -14.331   7.177  1.00  0.00     0.179 HD
ENDBRANCH  11  12
ENDBRANCH  10  11
ENDBRANCH   9  10
ENDBRANCH   1   9
TORSDOF 7
ENDMDL
MODEL 3
REMARK VINA RESULT: -5.840245967      1.014      1.259
REMARK  7 active torsions:
REMARK  status: ('A' for Active; 'I' for Inactive)
REMARK    1  A    between atoms: C2_2  and  C3_3 
REMARK    2  A    between atoms: C4_4  and  O1_5 
REMARK    3  A    between atoms: C5_7  and  C6_8 
REMARK    4  A    between atoms: C6_8  and  O2_9 
REMARK    5  A    between atoms: O2_9  and  C7_10 
REMARK    6  A    between atoms: C7_10  and  C8_11 
REMARK    7  A    between atoms: C8_11  and  N1_12 
ROOT
HETATM    1  C6  UNL     1      23.998 -16.404   7.976  1.00  0.00     0.175 C 
ENDROOT
BRANCH   1   2
HETATM    2  C5  UNL     1      23.076 -16.271   6.771  1.00  0.00     0.049 A 
HETATM    3  C3  UNL     1      21.619 -16.602   6.990  1.00  0.00     0.045 A 
HETATM    4  C4  UNL     1      22.452 -17.568   6.243  1.00  0.00     0.133 A 
BRANCH   3   5
HETATM    5  C2  UNL     1      20.593 -15.845   6.218  1.00  0.00    -0.029 C 
HETATM    6  C1  UNL     1      19.677 -15.115   6.831  1.00  0.00     0.007 C 
ENDBRANCH   3   5
BRANCH   4   7
HETATM    7  O1  UNL     1      22.294 -17.679   4.856  1.00  0.00    -0.394 OA
ATOM      8  H1  UNL     1      22.034 -18.514   4.483  1.00  0.00     0.210 HD
ENDBRANCH   4   7
ENDBRANCH   1   2
BRANCH   1   9
HETATM    9  O2  UNL     1      25.074 -15.526   7.850  1.00  0.00    -0.389 OA
BRANCH   9  10
HETATM   10  C7  UNL     1      24.628 -14.436   7.131  1.00  0.00     0.188 C 
BRANCH  10  11
HETATM   11  C8  UNL     1      25.603 -13.283   7.126  1.00  0.00     0.165 C 
BRANCH  11  12
HETATM   12  N1  UNL     1      26.876 -13.784   7.565  1.00  0.00    -0.341 N 
HETATM   13  N2  UNL     1      27.556 -13.278   8.458  1.00  0.00    -0.349 N 
ATOM     14  H22 UNL     1      27.175 -12.446   8.908  1.00  0.00     0.176 HD
ATOM     15  H21 UNL     1      28.460 -13.633   8.769  1.00  0.00     0.176 HD
ATOM     16  H1  UNL     1      27.242 -14.617   7.104  1.00  0.00     0.179 HD
ENDBRANCH  11  12
ENDBRANCH  10  11
ENDBRANCH   9  10
ENDBRANCH   1   9
TORSDOF 7
ENDMDL
MODEL 4
REMARK VINA RESULT: -5.794006788      1.452      2.052
REMARK  7 active torsions:
REMARK  status: ('A' for Active; 'I' for Inactive)
REMARK    1  A    between atoms: C2_2  and  C3_3 
REMARK    2  A    between atoms: C4_4  and  O1_5 
REMARK    3  A    between atoms: C5_7  and  C6_8 
REMARK    4  A    between atoms: C6_8  and  O2_9 
REMARK    5  A    between atoms: O2_9  and  C7_10 
REMARK    6  A    between atoms: C7_10  and  C8_11 
REMARK    7  A    between atoms: C8_11  and  N1_12 
ROOT
HETATM    1  C6  UNL     1      23.793 -15.662   7.260  1.00  0.00     0.175 C 
ENDROOT
BRANCH   1   2
HETATM    2  C5  UNL     1      22.339 -15.831   6.842  1.00  0.00     0.049 A 
HETATM    3  C3  UNL     1      21.667 -17.128   7.226  1.00  0.00     0.045 A 
HETATM    4  C4  UNL     1      22.048 -16.930   5.812  1.00  0.00     0.133 A 
BRANCH   3   5
HETATM    5  C2  UNL     1      20.213 -17.108   7.551  1.00  0.00    -0.029 C 
HETATM    6  C1  UNL     1      19.602 -18.183   8.020  1.00  0.00     0.007 C 
ENDBRANCH   3   5
BRANCH   4   7
HETATM    7  O1  UNL     1      21.051 -16.667   4.865  1.00  0.00    -0.394 OA
ATOM      8  H1  UNL     1      20.582 -17.393   4.470  1.00  0.00     0.210 HD
ENDBRANCH   4   7
ENDBRANCH   1   2
BRANCH   1   9
HETATM    9  O2  UNL     1      24.074 -14.311   7.462  1.00  0.00    -0.389 OA
BRANCH   9  10
HETATM   10  C7  UNL     1      25.445 -14.165   7.392  1.00  0.00     0.188 C 
BRANCH  10  11
HETATM   11  C8  UNL     1      25.880 -12.767   7.030  1.00  0.00     0.165 C 
BRANCH  11  12
HETATM   12  N1  UNL     1      27.150 -12.526   7.657  1.00  0.00    -0.341 N 
HETATM   13  N2  UNL     1      27.705 -13.304   8.434  1.00  0.00    -0.349 N 
ATOM     14  H22 UNL     1      27.215 -14.176   8.636  1.00  0.00     0.176 HD
ATOM     15  H21 UNL     1      28.606 -13.133   8.879  1.00  0.00     0.176 HD
ATOM     16  H1  UNL     1      27.626 -11.650   7.444  1.00  0.00     0.179 HD
ENDBRANCH  11  12
ENDBRANCH  10  11
ENDBRANCH   9  10
ENDBRANCH   1   9
TORSDOF 7
ENDMDL
MODEL 5
REMARK VINA RESULT: -5.707688315      2.145      3.088
REMARK  7 active torsions:
REMARK  status: ('A' for Active; 'I' for Inactive)
REMARK    1  A    between atoms: C2_2  and  C3_3 
REMARK    2  A    between atoms: C4_4  and  O1_5 
REMARK    3  A    between atoms: C5_7  and  C6_8 
REMARK    4  A    between atoms: C6_8  and  O2_9 
REMARK    5  A    between atoms: O2_9  and  C7_10 
REMARK    6  A    between atoms: C7_10  and  C8_11 
REMARK    7  A    between atoms: C8_11  and  N1_12 
ROOT
HETATM    1  C6  UNL     1      24.175 -16.078   7.765  1.00  0.00     0.175 C 
ENDROOT
BRANCH   1   2
HETATM    2  C5  UNL     1      23.101 -15.761   8.797  1.00  0.00     0.049 A 
HETATM    3  C3  UNL     1      22.009 -16.789   8.977  1.00  0.00     0.045 A 
HETATM    4  C4  UNL     1      21.683 -15.539   8.259  1.00  0.00     0.133 A 
BRANCH   3   5
HETATM    5  C2  UNL     1      21.419 -16.970  10.334  1.00  0.00    -0.029 C 
HETATM    6  C1  UNL     1      22.152 -16.819  11.424  1.00  0.00     0.007 C 
ENDBRANCH   3   5
BRANCH   4   7
HETATM    7  O1  UNL     1      20.905 -14.565   8.897  1.00  0.00    -0.394 OA
ATOM      8  H1  UNL     1      20.703 -13.757   8.439  1.00  0.00     0.210 HD
ENDBRANCH   4   7
ENDBRANCH   1   2
BRANCH   1   9
HETATM    9  O2  UNL     1      25.225 -15.166   7.878  1.00  0.00    -0.389 OA
BRANCH   9  10
HETATM   10  C7  UNL     1      24.881 -14.055   7.133  1.00  0.00     0.188 C 
BRANCH  10  11
HETATM   11  C8  UNL     1      25.962 -13.003   7.095  1.00  0.00     0.165 C 
BRANCH  11  12
HETATM   12  N1  UNL     1      27.146 -13.569   7.680  1.00  0.00    -0.341 N 
HETATM   13  N2  UNL     1      27.678 -13.164   8.714  1.00  0.00    -0.349 N 
ATOM     14  H22 UNL     1      27.234 -12.370   9.176  1.00  0.00     0.176 HD
ATOM     15  H21 UNL     1      28.518 -13.565   9.128  1.00  0.00     0.176 HD
ATOM     16  H1  UNL     1      27.577 -14.361   7.205  1.00  0.00     0.179 HD
ENDBRANCH  11  12
ENDBRANCH  10  11
ENDBRANCH   9  10
ENDBRANCH   1   9
TORSDOF 7
ENDMDL
