MODEL 1
REMARK VINA RESULT: -5.291720108      0.000      0.000
REMARK  6 active torsions:
REMARK  status: ('A' for Active; 'I' for Inactive)
REMARK    1  A    between atoms: N1_2  and  C2_4 
REMARK    2  A    between atoms: C2_4  and  C3_5 
REMARK    3  A    between atoms: C3_5  and  N2_6 
REMARK    4  A    between atoms: N2_6  and  C4_9 
REMARK    5  A    between atoms: C4_9  and  C5_10 
REMARK    6  A    between atoms: C5_10  and  N3_11 
ROOT
HETATM    1  C4  UNL     1      22.438 -16.013   5.404  1.00  0.00     0.277 C 
ENDROOT
BRANCH   1   2
HETATM    2  N2  UNL     1      23.442 -15.064   5.808  1.00  0.00    -0.069 N 
ATOM      3  H22 UNL     1      23.276 -14.153   5.381  1.00  0.00     0.277 HD
ATOM      4  H21 UNL     1      24.343 -15.283   5.385  1.00  0.00     0.277 HD
BRANCH   2   5
HETATM    5  C3  UNL     1      23.559 -14.948   7.239  1.00  0.00     0.252 C 
BRANCH   5   6
HETATM    6  C2  UNL     1      25.015 -14.529   7.489  1.00  0.00     0.145 C 
BRANCH   6   7
HETATM    7  N1  UNL     1      25.143 -13.233   6.899  1.00  0.00    -0.406 N 
HETATM    8  C1  UNL     1      26.189 -12.529   7.103  1.00  0.00     0.112 C 
ATOM      9  H1  UNL     1      24.393 -12.867   6.312  1.00  0.00     0.158 HD
ENDBRANCH   6   7
ENDBRANCH   5   6
ENDBRANCH   2   5
ENDBRANCH   1   2
BRANCH   1  10
HETATM   10  C5  UNL     1      21.404 -16.287   6.473  1.00  0.00     0.090 C 
BRANCH  10  11
HETATM   11  N3  UNL     1      21.490 -17.618   6.897  1.00  0.00    -0.369 N 
HETATM   12  C6  UNL     1      20.942 -17.993   8.145  1.00  0.00     0.146 C 
HETATM   13  C7  UNL     1      20.309 -19.383   8.051  1.00  0.00     0.134 C 
HETATM   14  N4  UNL     1      21.296 -20.298   7.564  1.00  0.00    -0.415 N 
HETATM   15  C8  UNL     1      22.551 -19.722   7.203  1.00  0.00     0.158 C 
ATOM     16  H4  UNL     1      21.114 -21.298   7.480  1.00  0.00     0.153 HD
HETATM   17  C9  UNL     1      22.406 -18.505   6.309  1.00  0.00     0.082 C 
ENDBRANCH  10  11
ENDBRANCH   1  10
TORSDOF 6
ENDMDL
MODEL 2
REMARK VINA RESULT: -5.156760960      0.845      1.569
REMARK  6 active torsions:
REMARK  status: ('A' for Active; 'I' for Inactive)
REMARK    1  A    between atoms: N1_2  and  C2_4 
REMARK    2  A    between atoms: C2_4  and  C3_5 
REMARK    3  A    between atoms: C3_5  and  N2_6 
REMARK    4  A    between atoms: N2_6  and  C4_9 
REMARK    5  A    between atoms: C4_9  and  C5_10 
REMARK    6  A    between atoms: C5_10  and  N3_11 
ROOT
HETATM    1  C4  UNL     1      22.184 -15.893   5.512  1.00  0.00     0.277 C 
ENDROOT
BRANCH   1   2
HETATM    2  N2  UNL     1      23.422 -15.244   5.859  1.00  0.00    -0.069 N 
ATOM      3  H22 UNL     1      23.565 -14.406   5.297  1.00  0.00     0.277 HD
ATOM      4  H21 UNL     1      24.222 -15.793   5.545  1.00  0.00     0.277 HD
BRANCH   2   5
HETATM    5  C3  UNL     1      23.522 -14.945   7.264  1.00  0.00     0.252 C 
BRANCH   5   6
HETATM    6  C2  UNL     1      24.989 -14.549   7.485  1.00  0.00     0.145 C 
BRANCH   6   7
HETATM    7  N1  UNL     1      25.137 -13.275   6.854  1.00  0.00    -0.406 N 
HETATM    8  C1  UNL     1      26.140 -12.531   7.123  1.00  0.00     0.112 C 
ATOM      9  H1  UNL     1      24.436 -12.957   6.184  1.00  0.00     0.158 HD
ENDBRANCH   6   7
ENDBRANCH   5   6
ENDBRANCH   2   5
ENDBRANCH   1   2
BRANCH   1  10
HETATM   10  C5  UNL     1      22.339 -17.367   5.217  1.00  0.00     0.090 C 
BRANCH  10  11
HETATM   11  N3  UNL     1      22.175 -18.114   6.390  1.00  0.00    -0.369 N 
HETATM   12  C6  UNL     1      22.751 -19.401   6.488  1.00  0.00     0.146 C 
HETATM   13  C7  UNL     1      23.275 -19.642   7.905  1.00  0.00     0.134 C 
HETATM   14  N4  UNL     1      22.201 -19.426   8.827  1.00  0.00    -0.415 N 
HETATM   15  C8  UNL     1      20.976 -18.965   8.256  1.00  0.00     0.158 C 
ATOM     16  H4  UNL     1      22.305 -19.590   9.828  1.00  0.00     0.153 HD
HETATM   17  C9  UNL     1      21.170 -17.791   7.316  1.00  0.00     0.082 C 
ENDBRANCH  10  11
ENDBRANCH   1  10
TORSDOF 6
ENDMDL
MODEL 3
REMARK VINA RESULT: -5.045794068      0.999      1.138
REMARK  6 active torsions:
REMARK  status: ('A' for Active; 'I' for Inactive)
REMARK    1  A    between atoms: N1_2  and  C2_4 
REMARK    2  A    between atoms: C2_4  and  C3_5 
REMARK    3  A    between atoms: C3_5  and  N2_6 
REMARK    4  A    between atoms: N2_6  and  C4_9 
REMARK    5  A    between atoms: C4_9  and  C5_10 
REMARK    6  A    between atoms: C5_10  and  N3_11 
ROOT
HETATM    1  C4  UNL     1      22.224 -15.920   5.453  1.00  0.00     0.277 C 
ENDROOT
BRANCH   1   2
HETATM    2  N2  UNL     1      23.437 -15.213   5.772  1.00  0.00    -0.069 N 
ATOM      3  H22 UNL     1      23.550 -14.394   5.175  1.00  0.00     0.277 HD
ATOM      4  H21 UNL     1      24.258 -15.745   5.481  1.00  0.00     0.277 HD
BRANCH   2   5
HETATM    5  C3  UNL     1      23.525 -14.851   7.163  1.00  0.00     0.252 C 
BRANCH   5   6
HETATM    6  C2  UNL     1      25.004 -14.509   7.395  1.00  0.00     0.145 C 
BRANCH   6   7
HETATM    7  N1  UNL     1      25.188 -13.214   6.817  1.00  0.00    -0.406 N 
HETATM    8  C1  UNL     1      26.180 -12.486   7.160  1.00  0.00     0.112 C 
ATOM      9  H1  UNL     1      24.523 -12.870   6.124  1.00  0.00     0.158 HD
ENDBRANCH   6   7
ENDBRANCH   5   6
ENDBRANCH   2   5
ENDBRANCH   1   2
BRANCH   1  10
HETATM   10  C5  UNL     1      22.360 -17.423   5.554  1.00  0.00     0.090 C 
BRANCH  10  11
HETATM   11  N3  UNL     1      21.937 -17.862   6.814  1.00  0.00    -0.369 N 
HETATM   12  C6  UNL     1      20.754 -17.333   7.380  1.00  0.00     0.146 C 
HETATM   13  C7  UNL     1      19.996 -18.424   8.139  1.00  0.00     0.134 C 
HETATM   14  N4  UNL     1      20.880 -19.003   9.104  1.00  0.00    -0.415 N 
HETATM   15  C8  UNL     1      22.226 -18.526   9.077  1.00  0.00     0.158 C 
ATOM     16  H4  UNL     1      20.569 -19.711   9.769  1.00  0.00     0.153 HD
HETATM   17  C9  UNL     1      22.822 -18.522   7.682  1.00  0.00     0.082 C 
ENDBRANCH  10  11
ENDBRANCH   1  10
TORSDOF 6
ENDMDL
MODEL 4
REMARK VINA RESULT: -5.034243566      0.986      1.218
REMARK  6 active torsions:
REMARK  status: ('A' for Active; 'I' for Inactive)
REMARK    1  A    between atoms: N1_2  and  C2_4 
REMARK    2  A    between atoms: C2_4  and  C3_5 
REMARK    3  A    between atoms: C3_5  and  N2_6 
REMARK    4  A    between atoms: N2_6  and  C4_9 
REMARK    5  A    between atoms: C4_9  and  C5_10 
REMARK    6  A    between atoms: C5_10  and  N3_11 
ROOT
HETATM    1  C4  UNL     1      22.647 -16.522   6.071  1.00  0.00     0.277 C 
ENDROOT
BRANCH   1   2
HETATM    2  N2  UNL     1      23.388 -15.289   5.993  1.00  0.00    -0.069 N 
ATOM      3  H22 UNL     1      22.933 -14.629   5.362  1.00  0.00     0.277 HD
ATOM      4  H21 UNL     1      24.265 -15.422   5.490  1.00  0.00     0.277 HD
BRANCH   2   5
HETATM    5  C3  UNL     1      23.620 -14.692   7.283  1.00  0.00     0.252 C 
BRANCH   5   6
HETATM    6  C2  UNL     1      25.122 -14.376   7.314  1.00  0.00     0.145 C 
BRANCH   6   7
HETATM    7  N1  UNL     1      25.234 -13.025   6.859  1.00  0.00    -0.406 N 
HETATM    8  C1  UNL     1      26.270 -12.332   7.139  1.00  0.00     0.112 C 
ATOM      9  H1  UNL     1      24.482 -12.612   6.308  1.00  0.00     0.158 HD
ENDBRANCH   6   7
ENDBRANCH   5   6
ENDBRANCH   2   5
ENDBRANCH   1   2
BRANCH   1  10
HETATM   10  C5  UNL     1      22.866 -17.274   7.364  1.00  0.00     0.090 C 
BRANCH  10  11
HETATM   11  N3  UNL     1      21.778 -18.116   7.623  1.00  0.00    -0.369 N 
HETATM   12  C6  UNL     1      20.709 -17.654   8.424  1.00  0.00     0.146 C 
HETATM   13  C7  UNL     1      19.378 -18.184   7.888  1.00  0.00     0.134 C 
HETATM   14  N4  UNL     1      19.456 -19.611   7.810  1.00  0.00    -0.415 N 
HETATM   15  C8  UNL     1      20.723 -20.181   8.138  1.00  0.00     0.158 C 
ATOM     16  H4  UNL     1      18.658 -20.184   7.536  1.00  0.00     0.153 HD
HETATM   17  C9  UNL     1      21.877 -19.503   7.426  1.00  0.00     0.082 C 
ENDBRANCH  10  11
ENDBRANCH   1  10
TORSDOF 6
ENDMDL
MODEL 5
REMARK VINA RESULT: -5.026285816      1.499      1.940
REMARK  6 active torsions:
REMARK  status: ('A' for Active; 'I' for Inactive)
REMARK    1  A    between atoms: N1_2  and  C2_4 
REMARK    2  A    between atoms: C2_4  and  C3_5 
REMARK    3  A    between atoms: C3_5  and  N2_6 
REMARK    4  A    between atoms: N2_6  and  C4_9 
REMARK    5  A    between atoms: C4_9  and  C5_10 
REMARK    6  A    between atoms: C5_10  and  N3_11 
ROOT
HETATM    1  C4  UNL     1      22.183 -15.526   8.272  1.00  0.00     0.277 C 
ENDROOT
BRANCH   1   2
HETATM    2  N2  UNL     1      23.497 -15.568   8.858  1.00  0.00    -0.069 N 
ATOM      3  H22 UNL     1      23.635 -16.430   9.385  1.00  0.00     0.277 HD
ATOM      4  H21 UNL     1      23.580 -14.894   9.619  1.00  0.00     0.277 HD
BRANCH   2   5
HETATM    5  C3  UNL     1      24.548 -15.383   7.892  1.00  0.00     0.252 C 
BRANCH   5   6
HETATM    6  C2  UNL     1      23.985 -14.379   6.875  1.00  0.00     0.145 C 
BRANCH   6   7
HETATM    7  N1  UNL     1      24.873 -13.259   6.916  1.00  0.00    -0.406 N 
HETATM    8  C1  UNL     1      26.103 -13.418   7.222  1.00  0.00     0.112 C 
ATOM      9  H1  UNL     1      24.522 -12.326   6.700  1.00  0.00     0.158 HD
ENDBRANCH   6   7
ENDBRANCH   5   6
ENDBRANCH   2   5
ENDBRANCH   1   2
BRANCH   1  10
HETATM   10  C5  UNL     1      21.431 -16.832   8.386  1.00  0.00     0.090 C 
BRANCH  10  11
HETATM   11  N3  UNL     1      21.929 -17.757   7.460  1.00  0.00    -0.369 N 
HETATM   12  C6  UNL     1      22.861 -18.734   7.878  1.00  0.00     0.146 C 
HETATM   13  C7  UNL     1      22.595 -20.061   7.163  1.00  0.00     0.134 C 
HETATM   14  N4  UNL     1      22.609 -19.826   5.751  1.00  0.00    -0.415 N 
HETATM   15  C8  UNL     1      22.762 -18.464   5.351  1.00  0.00     0.158 C 
ATOM     16  H4  UNL     1      22.514 -20.583   5.074  1.00  0.00     0.153 HD
HETATM   17  C9  UNL     1      21.820 -17.525   6.080  1.00  0.00     0.082 C 
ENDBRANCH  10  11
ENDBRANCH   1  10
TORSDOF 6
ENDMDL
