MODEL 1
REMARK VINA RESULT: -5.695029164      0.000      0.000
REMARK  6 active torsions:
REMARK  status: ('A' for Active; 'I' for Inactive)
REMARK    1  A    between atoms: C2_4  and  C3_5 
REMARK    2  A    between atoms: C5_7  and  C6_8 
REMARK    3  A    between atoms: C6_8  and  N2_9 
REMARK    4  A    between atoms: N2_9  and  C7_12 
REMARK    5  A    between atoms: C7_12  and  C8_13 
REMARK    6  A    between atoms: C8_13  and  N3_14 
ROOT
HETATM    1  C6  UNL     1      23.296 -15.125   6.705  1.00  0.00     0.268 C 
ENDROOT
BRANCH   1   2
HETATM    2  C5  UNL     1      22.424 -15.345   7.892  1.00  0.00     0.251 C 
HETATM    3  C4  UNL     1      20.974 -15.586   7.477  1.00  0.00     0.078 C 
HETATM    4  C3  UNL     1      21.386 -17.040   7.466  1.00  0.00     0.263 C 
HETATM    5  N4  UNL     1      22.384 -16.668   8.452  1.00  0.00     0.100 N 
HETATM    6  C9  UNL     1      23.529 -17.503   8.384  1.00  0.00     0.311 C 
BRANCH   4   7
HETATM    7  C2  UNL     1      20.394 -17.967   8.061  1.00  0.00     0.090 C 
HETATM    8  N1  UNL     1      20.281 -19.190   7.662  1.00  0.00    -0.404 N 
HETATM    9  C1  UNL     1      19.359 -20.133   8.187  1.00  0.00     0.145 C 
ATOM     10  H1  UNL     1      20.901 -19.501   6.914  1.00  0.00     0.158 HD
ENDBRANCH   4   7
ENDBRANCH   1   2
BRANCH   1  11
HETATM   11  N2  UNL     1      24.174 -14.015   6.730  1.00  0.00    -0.071 N 
ATOM     12  H22 UNL     1      24.390 -13.709   5.781  1.00  0.00     0.277 HD
ATOM     13  H21 UNL     1      23.691 -13.185   7.073  1.00  0.00     0.277 HD
BRANCH  11  14
HETATM   14  C7  UNL     1      25.396 -14.237   7.483  1.00  0.00     0.259 C 
BRANCH  14  15
HETATM   15  C8  UNL     1      26.364 -13.086   7.324  1.00  0.00     0.257 C 
BRANCH  15  16
HETATM   16  N3  UNL     1      27.489 -13.279   8.245  1.00  0.00    -0.078 N 
ATOM     17  H33 UNL     1      27.560 -12.531   8.934  1.00  0.00     0.274 HD
ATOM     18  H32 UNL     1      27.334 -14.053   8.892  1.00  0.00     0.274 HD
ATOM     19  H31 UNL     1      28.345 -13.391   7.703  1.00  0.00     0.274 HD
ENDBRANCH  15  16
ENDBRANCH  14  15
ENDBRANCH  11  14
ENDBRANCH   1  11
TORSDOF 6
ENDMDL
MODEL 2
REMARK VINA RESULT: -5.681244149      1.075      1.584
REMARK  6 active torsions:
REMARK  status: ('A' for Active; 'I' for Inactive)
REMARK    1  A    between atoms: C2_4  and  C3_5 
REMARK    2  A    between atoms: C5_7  and  C6_8 
REMARK    3  A    between atoms: C6_8  and  N2_9 
REMARK    4  A    between atoms: N2_9  and  C7_12 
REMARK    5  A    between atoms: C7_12  and  C8_13 
REMARK    6  A    between atoms: C8_13  and  N3_14 
ROOT
HETATM    1  C6  UNL     1      23.276 -14.599   7.147  1.00  0.00     0.268 C 
ENDROOT
BRANCH   1   2
HETATM    2  C5  UNL     1      23.539 -16.043   6.899  1.00  0.00     0.251 C 
HETATM    3  C4  UNL     1      23.214 -16.885   8.131  1.00  0.00     0.078 C 
HETATM    4  C3  UNL     1      21.845 -16.990   7.501  1.00  0.00     0.263 C 
HETATM    5  N4  UNL     1      22.517 -16.800   6.229  1.00  0.00     0.100 N 
HETATM    6  C9  UNL     1      21.676 -16.170   5.277  1.00  0.00     0.311 C 
BRANCH   4   7
HETATM    7  C2  UNL     1      21.238 -18.341   7.566  1.00  0.00     0.090 C 
HETATM    8  N1  UNL     1      20.007 -18.517   7.913  1.00  0.00    -0.404 N 
HETATM    9  C1  UNL     1      19.359 -19.778   7.994  1.00  0.00     0.145 C 
ATOM     10  H1  UNL     1      19.458 -17.689   8.147  1.00  0.00     0.158 HD
ENDBRANCH   4   7
ENDBRANCH   1   2
BRANCH   1  11
HETATM   11  N2  UNL     1      24.293 -13.676   6.800  1.00  0.00    -0.071 N 
ATOM     12  H22 UNL     1      24.277 -13.488   5.798  1.00  0.00     0.277 HD
ATOM     13  H21 UNL     1      24.066 -12.747   7.154  1.00  0.00     0.277 HD
BRANCH  11  14
HETATM   14  C7  UNL     1      25.625 -14.069   7.223  1.00  0.00     0.259 C 
BRANCH  14  15
HETATM   15  C8  UNL     1      26.516 -12.867   7.441  1.00  0.00     0.257 C 
BRANCH  15  16
HETATM   16  N3  UNL     1      27.611 -13.242   8.343  1.00  0.00    -0.078 N 
ATOM     17  H33 UNL     1      27.996 -12.441   8.841  1.00  0.00     0.274 HD
ATOM     18  H32 UNL     1      27.284 -13.770   9.152  1.00  0.00     0.274 HD
ATOM     19  H31 UNL     1      28.319 -13.746   7.810  1.00  0.00     0.274 HD
ENDBRANCH  15  16
ENDBRANCH  14  15
ENDBRANCH  11  14
ENDBRANCH   1  11
TORSDOF 6
ENDMDL
MODEL 3
REMARK VINA RESULT: -5.386688261      1.019      1.671
REMARK  6 active torsions:
REMARK  status: ('A' for Active; 'I' for Inactive)
REMARK    1  A    between atoms: C2_4  and  C3_5 
REMARK    2  A    between atoms: C5_7  and  C6_8 
REMARK    3  A    between atoms: C6_8  and  N2_9 
REMARK    4  A    between atoms: N2_9  and  C7_12 
REMARK    5  A    between atoms: C7_12  and  C8_13 
REMARK    6  A    between atoms: C8_13  and  N3_14 
ROOT
HETATM    1  C6  UNL     1      22.980 -14.987   7.288  1.00  0.00     0.268 C 
ENDROOT
BRANCH   1   2
HETATM    2  C5  UNL     1      22.572 -16.201   6.529  1.00  0.00     0.251 C 
HETATM    3  C4  UNL     1      22.863 -17.473   7.323  1.00  0.00     0.078 C 
HETATM    4  C3  UNL     1      21.456 -17.282   7.841  1.00  0.00     0.263 C 
HETATM    5  N4  UNL     1      21.189 -16.591   6.592  1.00  0.00     0.100 N 
HETATM    6  C9  UNL     1      20.180 -15.606   6.739  1.00  0.00     0.311 C 
BRANCH   4   7
HETATM    7  C2  UNL     1      20.654 -18.525   7.923  1.00  0.00     0.090 C 
HETATM    8  N1  UNL     1      20.016 -18.853   8.997  1.00  0.00    -0.404 N 
HETATM    9  C1  UNL     1      19.227 -20.023   9.148  1.00  0.00     0.145 C 
ATOM     10  H1  UNL     1      20.085 -18.223   9.798  1.00  0.00     0.158 HD
ENDBRANCH   4   7
ENDBRANCH   1   2
BRANCH   1  11
HETATM   11  N2  UNL     1      24.033 -14.202   6.757  1.00  0.00    -0.071 N 
ATOM     12  H22 UNL     1      24.156 -14.396   5.763  1.00  0.00     0.277 HD
ATOM     13  H21 UNL     1      23.759 -13.222   6.710  1.00  0.00     0.277 HD
BRANCH  11  14
HETATM   14  C7  UNL     1      25.296 -14.343   7.461  1.00  0.00     0.259 C 
BRANCH  14  15
HETATM   15  C8  UNL     1      26.215 -13.173   7.193  1.00  0.00     0.257 C 
BRANCH  15  16
HETATM   16  N3  UNL     1      27.335 -13.221   8.138  1.00  0.00    -0.078 N 
ATOM     17  H33 UNL     1      27.100 -13.720   8.995  1.00  0.00     0.274 HD
ATOM     18  H32 UNL     1      28.087 -13.833   7.819  1.00  0.00     0.274 HD
ATOM     19  H31 UNL     1      27.658 -12.270   8.317  1.00  0.00     0.274 HD
ENDBRANCH  15  16
ENDBRANCH  14  15
ENDBRANCH  11  14
ENDBRANCH   1  11
TORSDOF 6
ENDMDL
MODEL 4
REMARK VINA RESULT: -5.320540356      1.318      6.259
REMARK  6 active torsions:
REMARK  status: ('A' for Active; 'I' for Inactive)
REMARK    1  A    between atoms: C2_4  and  C3_5 
REMARK    2  A    between atoms: C5_7  and  C6_8 
REMARK    3  A    between atoms: C6_8  and  N2_9 
REMARK    4  A    between atoms: N2_9  and  C7_12 
REMARK    5  A    between atoms: C7_12  and  C8_13 
REMARK    6  A    between atoms: C8_13  and  N3_14 
ROOT
HETATM    1  C6  UNL     1      20.674 -16.328   7.055  1.00  0.00     0.268 C 
ENDROOT
BRANCH   1   2
HETATM    2  C5  UNL     1      22.090 -16.770   6.926  1.00  0.00     0.251 C 
HETATM    3  C4  UNL     1      22.843 -15.925   5.902  1.00  0.00     0.078 C 
HETATM    4  C3  UNL     1      23.185 -15.066   7.098  1.00  0.00     0.263 C 
HETATM    5  N4  UNL     1      23.033 -16.273   7.891  1.00  0.00     0.100 N 
HETATM    6  C9  UNL     1      22.611 -15.986   9.213  1.00  0.00     0.311 C 
BRANCH   4   7
HETATM    7  C2  UNL     1      24.589 -14.596   7.140  1.00  0.00     0.090 C 
HETATM    8  N1  UNL     1      24.891 -13.344   7.043  1.00  0.00    -0.404 N 
HETATM    9  C1  UNL     1      26.210 -12.822   7.078  1.00  0.00     0.145 C 
ATOM     10  H1  UNL     1      24.123 -12.681   6.933  1.00  0.00     0.158 HD
ENDBRANCH   4   7
ENDBRANCH   1   2
BRANCH   1  11
HETATM   11  N2  UNL     1      19.718 -17.289   7.464  1.00  0.00    -0.071 N 
ATOM     12  H22 UNL     1      19.133 -16.915   8.212  1.00  0.00     0.277 HD
ATOM     13  H21 UNL     1      19.012 -17.420   6.740  1.00  0.00     0.277 HD
BRANCH  11  14
HETATM   14  C7  UNL     1      20.287 -18.567   7.854  1.00  0.00     0.259 C 
BRANCH  14  15
HETATM   15  C8  UNL     1      19.238 -19.487   8.437  1.00  0.00     0.257 C 
BRANCH  15  16
HETATM   16  N3  UNL     1      19.323 -20.791   7.770  1.00  0.00    -0.078 N 
ATOM     17  H33 UNL     1      18.569 -20.934   7.100  1.00  0.00     0.274 HD
ATOM     18  H32 UNL     1      20.105 -20.843   7.117  1.00  0.00     0.274 HD
ATOM     19  H31 UNL     1      19.359 -21.523   8.479  1.00  0.00     0.274 HD
ENDBRANCH  15  16
ENDBRANCH  14  15
ENDBRANCH  11  14
ENDBRANCH   1  11
TORSDOF 6
ENDMDL
MODEL 5
REMARK VINA RESULT: -5.299767727      1.414      6.189
REMARK  6 active torsions:
REMARK  status: ('A' for Active; 'I' for Inactive)
REMARK    1  A    between atoms: C2_4  and  C3_5 
REMARK    2  A    between atoms: C5_7  and  C6_8 
REMARK    3  A    between atoms: C6_8  and  N2_9 
REMARK    4  A    between atoms: N2_9  and  C7_12 
REMARK    5  A    between atoms: C7_12  and  C8_13 
REMARK    6  A    between atoms: C8_13  and  N3_14 
ROOT
HETATM    1  C6  UNL     1      22.247 -17.943   6.950  1.00  0.00     0.268 C 
ENDROOT
BRANCH   1   2
HETATM    2  C5  UNL     1      21.929 -16.521   7.253  1.00  0.00     0.251 C 
HETATM    3  C4  UNL     1      22.908 -15.939   8.270  1.00  0.00     0.078 C 
HETATM    4  C3  UNL     1      23.695 -15.538   7.044  1.00  0.00     0.263 C 
HETATM    5  N4  UNL     1      22.422 -15.520   6.346  1.00  0.00     0.100 N 
HETATM    6  C9  UNL     1      22.573 -15.823   4.969  1.00  0.00     0.311 C 
BRANCH   4   7
HETATM    7  C2  UNL     1      24.271 -14.173   7.100  1.00  0.00     0.090 C 
HETATM    8  N1  UNL     1      25.542 -13.966   7.005  1.00  0.00    -0.404 N 
HETATM    9  C1  UNL     1      26.162 -12.689   7.047  1.00  0.00     0.145 C 
ATOM     10  H1  UNL     1      26.146 -14.781   6.893  1.00  0.00     0.158 HD
ENDBRANCH   4   7
ENDBRANCH   1   2
BRANCH   1  11
HETATM   11  N2  UNL     1      21.200 -18.890   7.060  1.00  0.00    -0.071 N 
ATOM     12  H22 UNL     1      20.542 -18.785   6.287  1.00  0.00     0.277 HD
ATOM     13  H21 UNL     1      21.547 -19.829   6.866  1.00  0.00     0.277 HD
BRANCH  11  14
HETATM   14  C7  UNL     1      20.499 -18.860   8.332  1.00  0.00     0.259 C 
BRANCH  14  15
HETATM   15  C8  UNL     1      18.999 -18.836   8.139  1.00  0.00     0.257 C 
BRANCH  15  16
HETATM   16  N3  UNL     1      18.631 -17.616   7.414  1.00  0.00    -0.078 N 
ATOM     17  H33 UNL     1      17.674 -17.645   7.065  1.00  0.00     0.274 HD
ATOM     18  H32 UNL     1      18.532 -16.811   8.033  1.00  0.00     0.274 HD
ATOM     19  H31 UNL     1      19.311 -17.454   6.672  1.00  0.00     0.274 HD
ENDBRANCH  15  16
ENDBRANCH  14  15
ENDBRANCH  11  14
ENDBRANCH   1  11
TORSDOF 6
ENDMDL
