MODEL 1
REMARK VINA RESULT: -10.685907789      0.000      0.000
REMARK  6 active torsions:
REMARK  status: ('A' for Active; 'I' for Inactive)
REMARK    1  A    between atoms: C2_2  and  C3_3 
REMARK    2  A    between atoms: C2_2  and  N2_21 
REMARK    3  A    between atoms: C3_3  and  N1_4 
REMARK       I    between atoms: N1_4  and  C4_6 
REMARK    4  A    between atoms: C4_6  and  C5_8 
REMARK       I    between atoms: N2_21  and  C17_23 
REMARK    5  A    between atoms: C17_23  and  C18_25 
REMARK    6  A    between atoms: C18_25  and  O4_26 
ROOT
HETATM    1  C3  UNL     1       4.321   3.088   1.178  1.00  0.00     0.147 C 
ENDROOT
BRANCH   1   2
HETATM    2  C2  UNL     1       5.048   2.421   2.311  1.00  0.00     0.098 C 
HETATM    3  C1  UNL     1       5.737   3.533   3.102  1.00  0.00     0.034 C 
BRANCH   2   4
HETATM    4  N2  UNL     1       4.091   1.721   3.149  1.00  0.00    -0.353 N 
HETATM    5  C17 UNL     1       3.859   0.324   2.997  1.00  0.00     0.252 C 
HETATM    6  O3  UNL     1       4.503  -0.284   2.116  1.00  0.00    -0.270 OA
ATOM      7  H2  UNL     1       3.576   2.239   3.860  1.00  0.00     0.163 HD
BRANCH   5   8
HETATM    8  C18 UNL     1       2.882  -0.399   3.851  1.00  0.00     0.138 C 
HETATM    9  C19 UNL     1       2.879  -1.836   3.455  1.00  0.00     0.048 C 
HETATM   10  C20 UNL     1       1.522  -2.483   3.452  1.00  0.00     0.004 C 
HETATM   11  C21 UNL     1       0.794  -2.510   4.741  1.00  0.00     0.000 C 
HETATM   12  C22 UNL     1       1.216  -3.543   5.714  1.00  0.00     0.000 C 
HETATM   13  C23 UNL     1       2.417  -3.279   6.532  1.00  0.00     0.000 C 
HETATM   14  C24 UNL     1       2.615  -1.868   6.967  1.00  0.00     0.000 C 
HETATM   15  C25 UNL     1       3.677  -1.126   6.156  1.00  0.00     0.004 C 
HETATM   16  C26 UNL     1       3.110  -0.077   5.273  1.00  0.00     0.048 C 
BRANCH   8  17
HETATM   17  O4  UNL     1       1.618   0.096   3.499  1.00  0.00    -0.380 OA
ATOM     18  H4  UNL     1       1.019  -0.216   4.167  1.00  0.00     0.211 HD
ENDBRANCH   8  17
ENDBRANCH   5   8
ENDBRANCH   2   4
ENDBRANCH   1   2
BRANCH   1  19
HETATM   19  N1  UNL     1       3.060   2.517   0.844  1.00  0.00    -0.359 N 
HETATM   20  C4  UNL     1       2.294   2.938  -0.271  1.00  0.00     0.222 C 
HETATM   21  O1  UNL     1       2.766   3.857  -0.989  1.00  0.00    -0.273 OA
ATOM     22  H1  UNL     1       2.691   1.772   1.434  1.00  0.00     0.162 HD
BRANCH  20  23
HETATM   23  C5  UNL     1       0.963   2.311  -0.588  1.00  0.00     0.082 C 
HETATM   24  C6  UNL     1       0.619   1.462   0.614  1.00  0.00     0.015 C 
HETATM   25  C7  UNL     1       0.527   0.024   0.091  1.00  0.00     0.006 C 
HETATM   26  C8  UNL     1       0.200   0.233  -1.407  1.00  0.00    -0.010 C 
HETATM   27  C9  UNL     1      -1.245   0.587  -1.429  1.00  0.00     0.007 C 
HETATM   28  C16 UNL     1       1.158   1.333  -1.683  1.00  0.00     0.003 C 
HETATM   29  C10 UNL     1      -1.927  -0.006  -2.672  1.00  0.00     0.035 C 
HETATM   30  C11 UNL     1      -1.082   0.432  -3.800  1.00  0.00     0.157 A 
HETATM   31  O2  UNL     1      -1.418   1.041  -4.940  1.00  0.00    -0.370 OA
HETATM   32  C12 UNL     1      -1.216   1.909  -3.888  1.00  0.00     0.084 A 
HETATM   33  C13 UNL     1      -2.509   2.625  -3.578  1.00  0.00     0.049 C 
HETATM   34  C14 UNL     1       0.016   2.599  -3.571  1.00  0.00     0.041 C 
HETATM   35  C15 UNL     1       1.193   1.878  -3.065  1.00  0.00     0.009 C 
ENDBRANCH  20  23
ENDBRANCH   1  19
TORSDOF 6
ENDMDL
MODEL 2
REMARK VINA RESULT: -10.589514334      2.188      8.400
REMARK  6 active torsions:
REMARK  status: ('A' for Active; 'I' for Inactive)
REMARK    1  A    between atoms: C2_2  and  C3_3 
REMARK    2  A    between atoms: C2_2  and  N2_21 
REMARK    3  A    between atoms: C3_3  and  N1_4 
REMARK       I    between atoms: N1_4  and  C4_6 
REMARK    4  A    between atoms: C4_6  and  C5_8 
REMARK       I    between atoms: N2_21  and  C17_23 
REMARK    5  A    between atoms: C17_23  and  C18_25 
REMARK    6  A    between atoms: C18_25  and  O4_26 
ROOT
HETATM    1  C3  UNL     1       3.011   4.181  -1.133  1.00  0.00     0.147 C 
ENDROOT
BRANCH   1   2
HETATM    2  C2  UNL     1       2.297   4.918  -2.230  1.00  0.00     0.098 C 
HETATM    3  C1  UNL     1       3.370   5.656  -3.030  1.00  0.00     0.034 C 
BRANCH   2   4
HETATM    4  N2  UNL     1       1.601   3.963  -3.075  1.00  0.00    -0.353 N 
HETATM    5  C17 UNL     1       0.183   3.847  -3.045  1.00  0.00     0.252 C 
HETATM    6  O3  UNL     1      -0.450   4.591  -2.266  1.00  0.00    -0.270 OA
ATOM      7  H2  UNL     1       2.140   3.365  -3.702  1.00  0.00     0.163 HD
BRANCH   5   8
HETATM    8  C18 UNL     1      -0.536   2.873  -3.907  1.00  0.00     0.138 C 
HETATM    9  C19 UNL     1      -1.983   2.904  -3.553  1.00  0.00     0.048 C 
HETATM   10  C20 UNL     1      -2.658   1.561  -3.551  1.00  0.00     0.004 C 
HETATM   11  C21 UNL     1      -2.663   0.816  -4.830  1.00  0.00     0.000 C 
HETATM   12  C22 UNL     1      -3.659   1.245  -5.839  1.00  0.00     0.000 C 
HETATM   13  C23 UNL     1      -3.346   2.429  -6.665  1.00  0.00     0.000 C 
HETATM   14  C24 UNL     1      -1.919   2.592  -7.060  1.00  0.00     0.000 C 
HETATM   15  C25 UNL     1      -1.179   3.650  -6.242  1.00  0.00     0.004 C 
HETATM   16  C26 UNL     1      -0.168   3.075  -5.322  1.00  0.00     0.048 C 
BRANCH   8  17
HETATM   17  O4  UNL     1      -0.078   1.604  -3.523  1.00  0.00    -0.380 OA
ATOM     18  H4  UNL     1      -0.496   1.414  -2.692  1.00  0.00     0.211 HD
ENDBRANCH   8  17
ENDBRANCH   5   8
ENDBRANCH   2   4
ENDBRANCH   1   2
BRANCH   1  19
HETATM   19  N1  UNL     1       2.451   2.921  -0.780  1.00  0.00    -0.359 N 
HETATM   20  C4  UNL     1       2.885   2.170   0.340  1.00  0.00     0.222 C 
HETATM   21  O1  UNL     1       3.806   2.656   1.046  1.00  0.00    -0.273 OA
ATOM     22  H1  UNL     1       1.703   2.541  -1.361  1.00  0.00     0.162 HD
BRANCH  20  23
HETATM   23  C5  UNL     1       2.269   0.839   0.677  1.00  0.00     0.082 C 
HETATM   24  C6  UNL     1       1.402   0.483  -0.509  1.00  0.00     0.015 C 
HETATM   25  C7  UNL     1      -0.027   0.389   0.037  1.00  0.00     0.006 C 
HETATM   26  C8  UNL     1       0.207   0.073   1.535  1.00  0.00    -0.010 C 
HETATM   27  C9  UNL     1       0.567  -1.370   1.561  1.00  0.00     0.007 C 
HETATM   28  C16 UNL     1       1.308   1.038   1.786  1.00  0.00     0.003 C 
HETATM   29  C10 UNL     1      -0.003  -2.045   2.818  1.00  0.00     0.035 C 
HETATM   30  C11 UNL     1       0.450  -1.190   3.933  1.00  0.00     0.157 A 
HETATM   31  O2  UNL     1       1.078  -1.515   5.065  1.00  0.00    -0.370 OA
HETATM   32  C12 UNL     1       1.929  -1.318   3.998  1.00  0.00     0.084 A 
HETATM   33  C13 UNL     1       2.645  -2.610   3.686  1.00  0.00     0.049 C 
HETATM   34  C14 UNL     1       2.608  -0.085   3.661  1.00  0.00     0.041 C 
HETATM   35  C15 UNL     1       1.875   1.085   3.158  1.00  0.00     0.009 C 
ENDBRANCH  20  23
ENDBRANCH   1  19
TORSDOF 6
ENDMDL
MODEL 3
REMARK VINA RESULT: -10.542581626      2.352      9.836
REMARK  6 active torsions:
REMARK  status: ('A' for Active; 'I' for Inactive)
REMARK    1  A    between atoms: C2_2  and  C3_3 
REMARK    2  A    between atoms: C2_2  and  N2_21 
REMARK    3  A    between atoms: C3_3  and  N1_4 
REMARK       I    between atoms: N1_4  and  C4_6 
REMARK    4  A    between atoms: C4_6  and  C5_8 
REMARK       I    between atoms: N2_21  and  C17_23 
REMARK    5  A    between atoms: C17_23  and  C18_25 
REMARK    6  A    between atoms: C18_25  and  O4_26 
ROOT
HETATM    1  C3  UNL     1       0.457  -0.014   0.001  1.00  0.00     0.147 C 
ENDROOT
BRANCH   1   2
HETATM    2  C2  UNL     1       0.944   1.062  -0.928  1.00  0.00     0.098 C 
HETATM    3  C1  UNL     1       2.456   0.877  -1.056  1.00  0.00     0.034 C 
BRANCH   2   4
HETATM    4  N2  UNL     1       0.303   0.905  -2.222  1.00  0.00    -0.353 N 
HETATM    5  C17 UNL     1      -0.335   2.002  -2.867  1.00  0.00     0.252 C 
HETATM    6  O3  UNL     1      -0.331   3.108  -2.286  1.00  0.00    -0.270 OA
ATOM      7  H2  UNL     1       0.311  -0.008  -2.677  1.00  0.00     0.163 HD
BRANCH   5   8
HETATM    8  C18 UNL     1      -0.993   1.849  -4.192  1.00  0.00     0.138 C 
HETATM    9  C19 UNL     1      -2.343   2.476  -4.125  1.00  0.00     0.048 C 
HETATM   10  C20 UNL     1      -3.420   1.725  -4.858  1.00  0.00     0.004 C 
HETATM   11  C21 UNL     1      -3.230   1.539  -6.314  1.00  0.00     0.000 C 
HETATM   12  C22 UNL     1      -3.545   2.704  -7.173  1.00  0.00     0.000 C 
HETATM   13  C23 UNL     1      -2.532   3.771  -7.296  1.00  0.00     0.000 C 
HETATM   14  C24 UNL     1      -1.110   3.325  -7.313  1.00  0.00     0.000 C 
HETATM   15  C25 UNL     1      -0.387   3.548  -5.986  1.00  0.00     0.004 C 
HETATM   16  C26 UNL     1      -0.081   2.287  -5.267  1.00  0.00     0.048 C 
BRANCH   8  17
HETATM   17  O4  UNL     1      -1.218   0.475  -4.356  1.00  0.00    -0.380 OA
ATOM     18  H4  UNL     1      -2.160   0.358  -4.328  1.00  0.00     0.211 HD
ENDBRANCH   8  17
ENDBRANCH   5   8
ENDBRANCH   2   4
ENDBRANCH   1   2
BRANCH   1  19
HETATM   19  N1  UNL     1       0.872   0.118   1.357  1.00  0.00    -0.359 N 
HETATM   20  C4  UNL     1       0.542  -0.827   2.359  1.00  0.00     0.222 C 
HETATM   21  O1  UNL     1      -0.147  -1.823   2.017  1.00  0.00    -0.273 OA
ATOM     22  H1  UNL     1       1.431   0.930   1.618  1.00  0.00     0.162 HD
BRANCH  20  23
HETATM   23  C5  UNL     1       0.998  -0.650   3.782  1.00  0.00     0.082 C 
HETATM   24  C6  UNL     1       1.162   0.841   3.972  1.00  0.00     0.015 C 
HETATM   25  C7  UNL     1       2.642   1.054   4.307  1.00  0.00     0.006 C 
HETATM   26  C8  UNL     1       3.052  -0.319   4.895  1.00  0.00    -0.010 C 
HETATM   27  C9  UNL     1       2.494  -0.318   6.273  1.00  0.00     0.007 C 
HETATM   28  C16 UNL     1       2.372  -1.187   3.901  1.00  0.00     0.003 C 
HETATM   29  C10 UNL     1       3.438  -1.051   7.239  1.00  0.00     0.035 C 
HETATM   30  C11 UNL     1       3.692  -2.352   6.587  1.00  0.00     0.157 A 
HETATM   31  O2  UNL     1       3.593  -3.591   7.073  1.00  0.00    -0.370 OA
HETATM   32  C12 UNL     1       2.404  -3.090   6.586  1.00  0.00     0.084 A 
HETATM   33  C13 UNL     1       1.408  -2.984   7.716  1.00  0.00     0.049 C 
HETATM   34  C14 UNL     1       1.876  -3.285   5.253  1.00  0.00     0.041 C 
HETATM   35  C15 UNL     1       2.499  -2.657   4.079  1.00  0.00     0.009 C 
ENDBRANCH  20  23
ENDBRANCH   1  19
TORSDOF 6
ENDMDL
MODEL 4
REMARK VINA RESULT: -10.502089859      2.197      3.676
REMARK  6 active torsions:
REMARK  status: ('A' for Active; 'I' for Inactive)
REMARK    1  A    between atoms: C2_2  and  C3_3 
REMARK    2  A    between atoms: C2_2  and  N2_21 
REMARK    3  A    between atoms: C3_3  and  N1_4 
REMARK       I    between atoms: N1_4  and  C4_6 
REMARK    4  A    between atoms: C4_6  and  C5_8 
REMARK       I    between atoms: N2_21  and  C17_23 
REMARK    5  A    between atoms: C17_23  and  C18_25 
REMARK    6  A    between atoms: C18_25  and  O4_26 
ROOT
HETATM    1  C3  UNL     1       0.155   0.456   0.103  1.00  0.00     0.147 C 
ENDROOT
BRANCH   1   2
HETATM    2  C2  UNL     1       1.117   1.129   1.041  1.00  0.00     0.098 C 
HETATM    3  C1  UNL     1       0.685   2.593   1.133  1.00  0.00     0.034 C 
BRANCH   2   4
HETATM    4  N2  UNL     1       1.037   0.495   2.346  1.00  0.00    -0.353 N 
HETATM    5  C17 UNL     1       2.190  -0.068   2.964  1.00  0.00     0.252 C 
HETATM    6  O3  UNL     1       3.276  -0.003   2.349  1.00  0.00    -0.270 OA
ATOM      7  H2  UNL     1       0.140   0.452   2.827  1.00  0.00     0.163 HD
BRANCH   5   8
HETATM    8  C18 UNL     1       2.117  -0.719   4.298  1.00  0.00     0.138 C 
HETATM    9  C19 UNL     1       2.938  -1.962   4.265  1.00  0.00     0.048 C 
HETATM   10  C20 UNL     1       2.345  -3.126   5.009  1.00  0.00     0.004 C 
HETATM   11  C21 UNL     1       2.111  -2.941   6.459  1.00  0.00     0.000 C 
HETATM   12  C22 UNL     1       3.296  -3.064   7.338  1.00  0.00     0.000 C 
HETATM   13  C23 UNL     1       4.199  -1.902   7.455  1.00  0.00     0.000 C 
HETATM   14  C24 UNL     1       3.547  -0.562   7.439  1.00  0.00     0.000 C 
HETATM   15  C25 UNL     1       3.680   0.163   6.101  1.00  0.00     0.004 C 
HETATM   16  C26 UNL     1       2.398   0.266   5.362  1.00  0.00     0.048 C 
BRANCH   8  17
HETATM   17  O4  UNL     1       0.789  -1.143   4.450  1.00  0.00    -0.380 OA
ATOM     18  H4  UNL     1       0.770  -2.051   4.170  1.00  0.00     0.211 HD
ENDBRANCH   8  17
ENDBRANCH   5   8
ENDBRANCH   2   4
ENDBRANCH   1   2
BRANCH   1  19
HETATM   19  N1  UNL     1       0.235   0.876  -1.255  1.00  0.00    -0.359 N 
HETATM   20  C4  UNL     1      -0.724   0.511  -2.232  1.00  0.00     0.222 C 
HETATM   21  O1  UNL     1      -1.683  -0.216  -1.865  1.00  0.00    -0.273 OA
ATOM     22  H1  UNL     1       1.017   1.467  -1.537  1.00  0.00     0.162 HD
BRANCH  20  23
HETATM   23  C5  UNL     1      -0.602   0.974  -3.659  1.00  0.00     0.082 C 
HETATM   24  C6  UNL     1       0.879   1.157  -3.901  1.00  0.00     0.015 C 
HETATM   25  C7  UNL     1       1.061   2.641  -4.237  1.00  0.00     0.006 C 
HETATM   26  C8  UNL     1      -0.336   3.036  -4.775  1.00  0.00    -0.010 C 
HETATM   27  C9  UNL     1      -0.377   2.483  -6.155  1.00  0.00     0.007 C 
HETATM   28  C16 UNL     1      -1.160   2.342  -3.754  1.00  0.00     0.003 C 
HETATM   29  C10 UNL     1      -1.156   3.422  -7.089  1.00  0.00     0.035 C 
HETATM   30  C11 UNL     1      -2.435   3.658  -6.392  1.00  0.00     0.157 A 
HETATM   31  O2  UNL     1      -3.689   3.545  -6.834  1.00  0.00    -0.370 OA
HETATM   32  C12 UNL     1      -3.158   2.360  -6.369  1.00  0.00     0.084 A 
HETATM   33  C13 UNL     1      -3.079   1.369  -7.507  1.00  0.00     0.049 C 
HETATM   34  C14 UNL     1      -3.298   1.825  -5.032  1.00  0.00     0.041 C 
HETATM   35  C15 UNL     1      -2.637   2.452  -3.879  1.00  0.00     0.009 C 
ENDBRANCH  20  23
ENDBRANCH   1  19
TORSDOF 6
ENDMDL
MODEL 5
REMARK VINA RESULT: -10.296753097      2.151      9.298
REMARK  6 active torsions:
REMARK  status: ('A' for Active; 'I' for Inactive)
REMARK    1  A    between atoms: C2_2  and  C3_3 
REMARK    2  A    between atoms: C2_2  and  N2_21 
REMARK    3  A    between atoms: C3_3  and  N1_4 
REMARK       I    between atoms: N1_4  and  C4_6 
REMARK    4  A    between atoms: C4_6  and  C5_8 
REMARK       I    between atoms: N2_21  and  C17_23 
REMARK    5  A    between atoms: C17_23  and  C18_25 
REMARK    6  A    between atoms: C18_25  and  O4_26 
ROOT
HETATM    1  C3  UNL     1       1.946   1.081  -0.446  1.00  0.00     0.147 C 
ENDROOT
BRANCH   1   2
HETATM    2  C2  UNL     1       1.455   2.448  -0.828  1.00  0.00     0.098 C 
HETATM    3  C1  UNL     1       2.655   3.389  -0.721  1.00  0.00     0.034 C 
BRANCH   2   4
HETATM    4  N2  UNL     1       0.958   2.415  -2.193  1.00  0.00    -0.353 N 
HETATM    5  C17 UNL     1      -0.289   1.805  -2.509  1.00  0.00     0.252 C 
HETATM    6  O3  UNL     1      -0.946   1.296  -1.576  1.00  0.00    -0.270 OA
ATOM      7  H2  UNL     1       1.513   2.836  -2.938  1.00  0.00     0.163 HD
BRANCH   5   8
HETATM    8  C18 UNL     1      -0.805   1.767  -3.903  1.00  0.00     0.138 C 
HETATM    9  C19 UNL     1      -2.029   2.613  -3.978  1.00  0.00     0.048 C 
HETATM   10  C20 UNL     1      -3.124   2.056  -4.844  1.00  0.00     0.004 C 
HETATM   11  C21 UNL     1      -2.801   1.843  -6.272  1.00  0.00     0.000 C 
HETATM   12  C22 UNL     1      -2.814   3.044  -7.138  1.00  0.00     0.000 C 
HETATM   13  C23 UNL     1      -1.629   3.925  -7.122  1.00  0.00     0.000 C 
HETATM   14  C24 UNL     1      -0.310   3.245  -6.986  1.00  0.00     0.000 C 
HETATM   15  C25 UNL     1       0.281   3.341  -5.580  1.00  0.00     0.004 C 
HETATM   16  C26 UNL     1       0.286   2.046  -4.858  1.00  0.00     0.048 C 
BRANCH   8  17
HETATM   17  O4  UNL     1      -1.237   0.451  -4.120  1.00  0.00    -0.380 OA
ATOM     18  H4  UNL     1      -2.170   0.506  -4.290  1.00  0.00     0.211 HD
ENDBRANCH   8  17
ENDBRANCH   5   8
ENDBRANCH   2   4
ENDBRANCH   1   2
BRANCH   1  19
HETATM   19  N1  UNL     1       2.027   0.832   0.954  1.00  0.00    -0.359 N 
HETATM   20  C4  UNL     1       1.057   0.079   1.660  1.00  0.00     0.222 C 
HETATM   21  O1  UNL     1       0.089  -0.385   1.005  1.00  0.00    -0.273 OA
ATOM     22  H1  UNL     1       2.819   1.213   1.471  1.00  0.00     0.162 HD
BRANCH  20  23
HETATM   23  C5  UNL     1       1.178  -0.159   3.141  1.00  0.00     0.082 C 
HETATM   24  C6  UNL     1       1.110   1.210   3.778  1.00  0.00     0.015 C 
HETATM   25  C7  UNL     1       2.448   1.395   4.502  1.00  0.00     0.006 C 
HETATM   26  C8  UNL     1       2.895  -0.065   4.758  1.00  0.00    -0.010 C 
HETATM   27  C9  UNL     1       2.064  -0.516   5.906  1.00  0.00     0.007 C 
HETATM   28  C16 UNL     1       2.553  -0.628   3.427  1.00  0.00     0.003 C 
HETATM   29  C10 UNL     1       2.868  -1.452   6.820  1.00  0.00     0.035 C 
HETATM   30  C11 UNL     1       3.415  -2.476   5.908  1.00  0.00     0.157 A 
HETATM   31  O2  UNL     1       3.372  -3.808   5.985  1.00  0.00    -0.370 OA
HETATM   32  C12 UNL     1       2.259  -3.252   5.391  1.00  0.00     0.084 A 
HETATM   33  C13 UNL     1       1.042  -3.552   6.234  1.00  0.00     0.049 C 
HETATM   34  C14 UNL     1       2.052  -3.062   3.971  1.00  0.00     0.041 C 
HETATM   35  C15 UNL     1       2.824  -2.072   3.207  1.00  0.00     0.009 C 
ENDBRANCH  20  23
ENDBRANCH   1  19
TORSDOF 6
ENDMDL
