MODEL 1
REMARK VINA RESULT: -9.436658842      0.000      0.000
REMARK  6 active torsions:
REMARK  status: ('A' for Active; 'I' for Inactive)
REMARK    1  A    between atoms: S1_2  and  N1_4 
REMARK    2  A    between atoms: N1_4  and  C2_6 
REMARK    3  A    between atoms: C4_8  and  C6_10 
REMARK    4  A    between atoms: C7_11  and  C8_12 
REMARK    5  A    between atoms: C18_22  and  C20_24 
REMARK    6  A    between atoms: C21_27  and  O4_28 
ROOT
HETATM    1  C6  UNL     1      -3.230  -4.006   1.581  1.00  0.00    -0.014 C 
HETATM    2  C7  UNL     1      -2.046  -3.490   1.239  1.00  0.00    -0.003 C 
ENDROOT
BRANCH   1   3
HETATM    3  C4  UNL     1      -4.135  -4.506   0.536  1.00  0.00     0.007 C 
HETATM    4  C3  UNL     1      -5.585  -4.222   0.828  1.00  0.00     0.043 C 
HETATM    5  C2  UNL     1      -6.221  -5.569   0.991  1.00  0.00     0.103 C 
HETATM    6  C24 UNL     1      -5.429  -6.456   0.096  1.00  0.00     0.009 C 
HETATM    7  C21 UNL     1      -3.989  -5.965   0.286  1.00  0.00     0.078 C 
HETATM    8  C23 UNL     1      -4.998  -7.729   0.794  1.00  0.00     0.017 C 
HETATM    9  C25 UNL     1      -5.863  -6.592  -1.321  1.00  0.00     0.020 C 
HETATM   10  C22 UNL     1      -3.916  -6.878   1.476  1.00  0.00     0.041 C 
HETATM   11  C5  UNL     1      -3.745  -3.782  -0.758  1.00  0.00     0.023 C 
BRANCH   5  12
HETATM   12  N1  UNL     1      -7.629  -5.575   0.655  1.00  0.00    -0.336 N 
ATOM     13  H1  UNL     1      -8.048  -4.998  -0.075  1.00  0.00     0.170 HD
BRANCH  12  14
HETATM   14  S1  UNL     1      -8.508  -6.681   1.645  1.00  0.00     0.106 S 
HETATM   15  C1  UNL     1      -8.747  -8.191   0.761  1.00  0.00     0.152 C 
HETATM   16  O1  UNL     1      -7.619  -7.012   3.030  1.00  0.00    -0.236 OA
ENDBRANCH  12  14
ENDBRANCH   5  12
BRANCH   7  17
HETATM   17  O4  UNL     1      -3.134  -6.327  -0.749  1.00  0.00    -0.388 OA
ATOM     18  H4  UNL     1      -2.219  -6.436  -0.519  1.00  0.00     0.210 HD
ENDBRANCH   7  17
ENDBRANCH   1   3
BRANCH   2  19
HETATM   19  C8  UNL     1      -1.135  -2.988   2.261  1.00  0.00     0.003 C 
HETATM   20  C9  UNL     1      -0.455  -1.893   2.055  1.00  0.00    -0.075 C 
HETATM   21  C10 UNL     1      -0.643  -1.189   0.764  1.00  0.00     0.034 C 
HETATM   22  C15 UNL     1       0.456  -1.420   3.113  1.00  0.00     0.024 C 
HETATM   23  C11 UNL     1       0.018   0.155   0.759  1.00  0.00     0.005 C 
HETATM   24  C12 UNL     1       1.442  -0.002   1.262  1.00  0.00     0.011 C 
HETATM   25  C13 UNL     1       1.450  -0.370   2.695  1.00  0.00    -0.019 C 
HETATM   26  C14 UNL     1       1.024   0.910   3.461  1.00  0.00     0.017 C 
HETATM   27  C18 UNL     1       2.769  -0.799   3.240  1.00  0.00     0.052 C 
HETATM   28  C17 UNL     1       2.680  -2.309   3.445  1.00  0.00     0.022 C 
HETATM   29  C19 UNL     1       2.964  -0.253   4.678  1.00  0.00     0.027 C 
HETATM   30  C16 UNL     1       1.232  -2.630   3.586  1.00  0.00     0.011 C 
BRANCH  27  31
HETATM   31  C20 UNL     1       3.974  -0.425   2.517  1.00  0.00     0.182 C 
HETATM   32  O2  UNL     1       4.656  -1.179   1.829  1.00  0.00    -0.647 OA
HETATM   33  O3  UNL     1       4.396   0.906   2.611  1.00  0.00    -0.647 OA
ENDBRANCH  27  31
ENDBRANCH   2  19
TORSDOF 6
ENDMDL
MODEL 2
REMARK VINA RESULT: -9.428324090      3.755      5.481
REMARK  6 active torsions:
REMARK  status: ('A' for Active; 'I' for Inactive)
REMARK    1  A    between atoms: S1_2  and  N1_4 
REMARK    2  A    between atoms: N1_4  and  C2_6 
REMARK    3  A    between atoms: C4_8  and  C6_10 
REMARK    4  A    between atoms: C7_11  and  C8_12 
REMARK    5  A    between atoms: C18_22  and  C20_24 
REMARK    6  A    between atoms: C21_27  and  O4_28 
ROOT
HETATM    1  C6  UNL     1      -3.913  -3.315  -1.557  1.00  0.00    -0.014 C 
HETATM    2  C7  UNL     1      -3.558  -2.065  -1.247  1.00  0.00    -0.003 C 
ENDROOT
BRANCH   1   3
HETATM    3  C4  UNL     1      -4.436  -4.204  -0.510  1.00  0.00     0.007 C 
HETATM    4  C3  UNL     1      -4.184  -5.662  -0.796  1.00  0.00     0.043 C 
HETATM    5  C2  UNL     1      -5.546  -6.267  -0.960  1.00  0.00     0.103 C 
HETATM    6  C24 UNL     1      -6.416  -5.452  -0.069  1.00  0.00     0.009 C 
HETATM    7  C21 UNL     1      -5.891  -4.024  -0.264  1.00  0.00     0.078 C 
HETATM    8  C23 UNL     1      -7.677  -4.994  -0.771  1.00  0.00     0.017 C 
HETATM    9  C25 UNL     1      -6.564  -5.877   1.349  1.00  0.00     0.020 C 
HETATM   10  C22 UNL     1      -6.801  -3.935  -1.455  1.00  0.00     0.041 C 
HETATM   11  C5  UNL     1      -3.705  -3.827   0.784  1.00  0.00     0.023 C 
BRANCH   5  12
HETATM   12  N1  UNL     1      -5.585  -7.674  -0.618  1.00  0.00    -0.336 N 
ATOM     13  H1  UNL     1      -5.012  -8.105   0.108  1.00  0.00     0.170 HD
BRANCH  12  14
HETATM   14  S1  UNL     1      -6.723  -8.527  -1.594  1.00  0.00     0.106 S 
HETATM   15  C1  UNL     1      -8.235  -8.710  -0.700  1.00  0.00     0.152 C 
HETATM   16  O1  UNL     1      -7.033  -7.641  -2.986  1.00  0.00    -0.236 OA
ENDBRANCH  12  14
ENDBRANCH   5  12
BRANCH   7  17
HETATM   17  O4  UNL     1      -6.236  -3.157   0.768  1.00  0.00    -0.388 OA
ATOM     18  H4  UNL     1      -6.599  -2.319   0.508  1.00  0.00     0.210 HD
ENDBRANCH   7  17
ENDBRANCH   1   3
BRANCH   2  19
HETATM   19  C8  UNL     1      -3.037  -1.168  -2.271  1.00  0.00     0.003 C 
HETATM   20  C9  UNL     1      -1.942  -0.490  -2.057  1.00  0.00    -0.075 C 
HETATM   21  C10 UNL     1      -1.259  -0.665  -0.753  1.00  0.00     0.034 C 
HETATM   22  C15 UNL     1      -1.450   0.406  -3.118  1.00  0.00     0.024 C 
HETATM   23  C11 UNL     1       0.087  -0.009  -0.735  1.00  0.00     0.005 C 
HETATM   24  C12 UNL     1      -0.056   1.409  -1.257  1.00  0.00     0.011 C 
HETATM   25  C13 UNL     1      -0.402   1.401  -2.696  1.00  0.00    -0.019 C 
HETATM   26  C14 UNL     1       0.887   0.961  -3.436  1.00  0.00     0.017 C 
HETATM   27  C18 UNL     1      -0.817   2.715  -3.263  1.00  0.00     0.052 C 
HETATM   28  C17 UNL     1      -2.324   2.629  -3.490  1.00  0.00     0.022 C 
HETATM   29  C19 UNL     1      -0.248   2.891  -4.694  1.00  0.00     0.027 C 
HETATM   30  C16 UNL     1      -2.649   1.181  -3.619  1.00  0.00     0.011 C 
BRANCH  27  31
HETATM   31  C20 UNL     1      -0.450   3.927  -2.548  1.00  0.00     0.182 C 
HETATM   32  O2  UNL     1      -1.205   4.605  -1.857  1.00  0.00    -0.647 OA
HETATM   33  O3  UNL     1       0.876   4.362  -2.655  1.00  0.00    -0.647 OA
ENDBRANCH  27  31
ENDBRANCH   2  19
TORSDOF 6
ENDMDL
MODEL 3
REMARK VINA RESULT: -9.388577763      2.263      3.256
REMARK  6 active torsions:
REMARK  status: ('A' for Active; 'I' for Inactive)
REMARK    1  A    between atoms: S1_2  and  N1_4 
REMARK    2  A    between atoms: N1_4  and  C2_6 
REMARK    3  A    between atoms: C4_8  and  C6_10 
REMARK    4  A    between atoms: C7_11  and  C8_12 
REMARK    5  A    between atoms: C18_22  and  C20_24 
REMARK    6  A    between atoms: C21_27  and  O4_28 
ROOT
HETATM    1  C6  UNL     1      -3.015  -4.439   1.456  1.00  0.00    -0.014 C 
HETATM    2  C7  UNL     1      -2.047  -3.573   1.141  1.00  0.00    -0.003 C 
ENDROOT
BRANCH   1   3
HETATM    3  C4  UNL     1      -3.844  -5.024   0.392  1.00  0.00     0.007 C 
HETATM    4  C3  UNL     1      -3.561  -4.433  -0.965  1.00  0.00     0.043 C 
HETATM    5  C2  UNL     1      -4.833  -3.748  -1.363  1.00  0.00     0.103 C 
HETATM    6  C24 UNL     1      -5.901  -4.555  -0.712  1.00  0.00     0.009 C 
HETATM    7  C21 UNL     1      -5.302  -4.904   0.656  1.00  0.00     0.078 C 
HETATM    8  C23 UNL     1      -6.891  -3.688   0.037  1.00  0.00     0.017 C 
HETATM    9  C25 UNL     1      -6.466  -5.709  -1.461  1.00  0.00     0.020 C 
HETATM   10  C22 UNL     1      -5.824  -3.581   1.137  1.00  0.00     0.041 C 
HETATM   11  C5  UNL     1      -3.509  -6.520   0.353  1.00  0.00     0.023 C 
BRANCH   5  12
HETATM   12  N1  UNL     1      -5.010  -3.672  -2.799  1.00  0.00    -0.336 N 
ATOM     13  H1  UNL     1      -5.471  -4.388  -3.360  1.00  0.00     0.170 HD
BRANCH  12  14
HETATM   14  S1  UNL     1      -4.340  -2.216  -3.439  1.00  0.00     0.106 S 
HETATM   15  C1  UNL     1      -5.368  -1.631  -4.750  1.00  0.00     0.152 C 
HETATM   16  O1  UNL     1      -4.300  -1.048  -2.234  1.00  0.00    -0.236 OA
ENDBRANCH  12  14
ENDBRANCH   5  12
BRANCH   7  17
HETATM   17  O4  UNL     1      -5.906  -5.998   1.267  1.00  0.00    -0.388 OA
ATOM     18  H4  UNL     1      -6.822  -5.896   1.498  1.00  0.00     0.210 HD
ENDBRANCH   7  17
ENDBRANCH   1   3
BRANCH   2  19
HETATM   19  C8  UNL     1      -1.215  -2.982   2.182  1.00  0.00     0.003 C 
HETATM   20  C9  UNL     1      -0.536  -1.894   1.942  1.00  0.00    -0.075 C 
HETATM   21  C10 UNL     1      -0.641  -1.291   0.591  1.00  0.00     0.034 C 
HETATM   22  C15 UNL     1       0.294  -1.329   3.021  1.00  0.00     0.024 C 
HETATM   23  C11 UNL     1       0.003   0.060   0.531  1.00  0.00     0.005 C 
HETATM   24  C12 UNL     1       1.390  -0.035   1.141  1.00  0.00     0.011 C 
HETATM   25  C13 UNL     1       1.303  -0.297   2.595  1.00  0.00    -0.019 C 
HETATM   26  C14 UNL     1       0.810   1.029   3.232  1.00  0.00     0.017 C 
HETATM   27  C18 UNL     1       2.585  -0.662   3.259  1.00  0.00     0.052 C 
HETATM   28  C17 UNL     1       2.500  -2.154   3.570  1.00  0.00     0.022 C 
HETATM   29  C19 UNL     1       2.675  -0.008   4.662  1.00  0.00     0.027 C 
HETATM   30  C16 UNL     1       1.050  -2.488   3.635  1.00  0.00     0.011 C 
BRANCH  27  31
HETATM   31  C20 UNL     1       3.834  -0.323   2.594  1.00  0.00     0.182 C 
HETATM   32  O2  UNL     1       4.531  -1.098   1.946  1.00  0.00    -0.647 OA
HETATM   33  O3  UNL     1       4.282   0.999   2.698  1.00  0.00    -0.647 OA
ENDBRANCH  27  31
ENDBRANCH   2  19
TORSDOF 6
ENDMDL
MODEL 4
REMARK VINA RESULT: -9.371512767      3.784      5.591
REMARK  6 active torsions:
REMARK  status: ('A' for Active; 'I' for Inactive)
REMARK    1  A    between atoms: S1_2  and  N1_4 
REMARK    2  A    between atoms: N1_4  and  C2_6 
REMARK    3  A    between atoms: C4_8  and  C6_10 
REMARK    4  A    between atoms: C7_11  and  C8_12 
REMARK    5  A    between atoms: C18_22  and  C20_24 
REMARK    6  A    between atoms: C21_27  and  O4_28 
ROOT
HETATM    1  C6  UNL     1      -4.162  -3.087  -1.381  1.00  0.00    -0.014 C 
HETATM    2  C7  UNL     1      -3.492  -1.974  -1.066  1.00  0.00    -0.003 C 
ENDROOT
BRANCH   1   3
HETATM    3  C4  UNL     1      -4.794  -3.881  -0.317  1.00  0.00     0.007 C 
HETATM    4  C3  UNL     1      -4.099  -3.742   1.013  1.00  0.00     0.043 C 
HETATM    5  C2  UNL     1      -3.569  -5.110   1.320  1.00  0.00     0.103 C 
HETATM    6  C24 UNL     1      -4.544  -6.032   0.675  1.00  0.00     0.009 C 
HETATM    7  C21 UNL     1      -4.883  -5.329  -0.645  1.00  0.00     0.078 C 
HETATM    8  C23 UNL     1      -3.857  -7.089  -0.162  1.00  0.00     0.017 C 
HETATM    9  C25 UNL     1      -5.720  -6.476   1.469  1.00  0.00     0.020 C 
HETATM   10  C22 UNL     1      -3.669  -5.996  -1.223  1.00  0.00     0.041 C 
HETATM   11  C5  UNL     1      -6.228  -3.357  -0.177  1.00  0.00     0.023 C 
BRANCH   5  12
HETATM   12  N1  UNL     1      -3.440  -5.361   2.740  1.00  0.00    -0.336 N 
ATOM     13  H1  UNL     1      -4.030  -6.007   3.265  1.00  0.00     0.170 HD
BRANCH  12  14
HETATM   14  S1  UNL     1      -2.162  -4.430   3.431  1.00  0.00     0.106 S 
HETATM   15  C1  UNL     1      -1.487  -5.303   4.809  1.00  0.00     0.152 C 
HETATM   16  O1  UNL     1      -0.949  -4.221   2.289  1.00  0.00    -0.236 OA
ENDBRANCH  12  14
ENDBRANCH   5  12
BRANCH   7  17
HETATM   17  O4  UNL     1      -6.079  -5.756  -1.214  1.00  0.00    -0.388 OA
ATOM     18  H4  UNL     1      -6.865  -5.312  -0.919  1.00  0.00     0.210 HD
ENDBRANCH   7  17
ENDBRANCH   1   3
BRANCH   2  19
HETATM   19  C8  UNL     1      -2.859  -1.173  -2.106  1.00  0.00     0.003 C 
HETATM   20  C9  UNL     1      -1.776  -0.493  -1.844  1.00  0.00    -0.075 C 
HETATM   21  C10 UNL     1      -1.223  -0.565  -0.470  1.00  0.00     0.034 C 
HETATM   22  C15 UNL     1      -1.167   0.305  -2.923  1.00  0.00     0.024 C 
HETATM   23  C11 UNL     1       0.128   0.074  -0.376  1.00  0.00     0.005 C 
HETATM   24  C12 UNL     1       0.064   1.445  -1.026  1.00  0.00     0.011 C 
HETATM   25  C13 UNL     1      -0.145   1.320  -2.486  1.00  0.00    -0.019 C 
HETATM   26  C14 UNL     1       1.200   0.804  -3.060  1.00  0.00     0.017 C 
HETATM   27  C18 UNL     1      -0.477   2.586  -3.196  1.00  0.00     0.052 C 
HETATM   28  C17 UNL     1      -1.958   2.500  -3.560  1.00  0.00     0.022 C 
HETATM   29  C19 UNL     1       0.228   2.634  -4.576  1.00  0.00     0.027 C 
HETATM   30  C16 UNL     1      -2.297   1.050  -3.599  1.00  0.00     0.011 C 
BRANCH  27  31
HETATM   31  C20 UNL     1      -0.156   3.850  -2.552  1.00  0.00     0.182 C 
HETATM   32  O2  UNL     1      -0.953   4.575  -1.964  1.00  0.00    -0.647 OA
HETATM   33  O3  UNL     1       1.175   4.280  -2.605  1.00  0.00    -0.647 OA
ENDBRANCH  27  31
ENDBRANCH   2  19
TORSDOF 6
ENDMDL
MODEL 5
REMARK VINA RESULT: -9.198261778      6.385      9.300
REMARK  6 active torsions:
REMARK  status: ('A' for Active; 'I' for Inactive)
REMARK    1  A    between atoms: S1_2  and  N1_4 
REMARK    2  A    between atoms: N1_4  and  C2_6 
REMARK    3  A    between atoms: C4_8  and  C6_10 
REMARK    4  A    between atoms: C7_11  and  C8_12 
REMARK    5  A    between atoms: C18_22  and  C20_24 
REMARK    6  A    between atoms: C21_27  and  O4_28 
ROOT
HETATM    1  C6  UNL     1       1.914   0.045   0.413  1.00  0.00    -0.014 C 
HETATM    2  C7  UNL     1       2.549   0.825  -0.465  1.00  0.00    -0.003 C 
ENDROOT
BRANCH   1   3
HETATM    3  C4  UNL     1       2.383  -0.017   1.805  1.00  0.00     0.007 C 
HETATM    4  C3  UNL     1       1.802  -1.178   2.571  1.00  0.00     0.043 C 
HETATM    5  C2  UNL     1       0.974  -0.554   3.653  1.00  0.00     0.103 C 
HETATM    6  C24 UNL     1       1.670   0.727   3.952  1.00  0.00     0.009 C 
HETATM    7  C21 UNL     1       2.109   1.228   2.570  1.00  0.00     0.078 C 
HETATM    8  C23 UNL     1       0.713   1.900   3.980  1.00  0.00     0.017 C 
HETATM    9  C25 UNL     1       2.741   0.721   4.985  1.00  0.00     0.020 C 
HETATM   10  C22 UNL     1       0.745   1.844   2.446  1.00  0.00     0.041 C 
HETATM   11  C5  UNL     1       3.906  -0.186   1.742  1.00  0.00     0.023 C 
BRANCH   5  12
HETATM   12  N1  UNL     1       0.853  -1.393   4.827  1.00  0.00    -0.336 N 
ATOM     13  H1  UNL     1       0.411  -1.101   5.699  1.00  0.00     0.170 HD
BRANCH  12  14
HETATM   14  S1  UNL     1       1.551  -2.949   4.564  1.00  0.00     0.106 S 
HETATM   15  C1  UNL     1       2.761  -3.263   5.811  1.00  0.00     0.152 C 
HETATM   16  O1  UNL     1       0.354  -4.120   4.680  1.00  0.00    -0.236 OA
ENDBRANCH  12  14
ENDBRANCH   5  12
BRANCH   7  17
HETATM   17  O4  UNL     1       3.140   2.160   2.615  1.00  0.00    -0.388 OA
ATOM     18  H4  UNL     1       3.026   2.883   3.221  1.00  0.00     0.210 HD
ENDBRANCH   7  17
ENDBRANCH   1   3
BRANCH   2  19
HETATM   19  C8  UNL     1       2.099   0.900  -1.850  1.00  0.00     0.003 C 
HETATM   20  C9  UNL     1       1.377   1.910  -2.253  1.00  0.00    -0.075 C 
HETATM   21  C10 UNL     1       1.039   2.962  -1.265  1.00  0.00     0.034 C 
HETATM   22  C15 UNL     1       0.942   1.947  -3.660  1.00  0.00     0.024 C 
HETATM   23  C11 UNL     1       0.408   4.156  -1.914  1.00  0.00     0.005 C 
HETATM   24  C12 UNL     1      -0.707   3.680  -2.829  1.00  0.00     0.011 C 
HETATM   25  C13 UNL     1      -0.152   2.931  -3.978  1.00  0.00    -0.019 C 
HETATM   26  C14 UNL     1       0.519   3.993  -4.888  1.00  0.00     0.017 C 
HETATM   27  C18 UNL     1      -1.149   2.199  -4.808  1.00  0.00     0.052 C 
HETATM   28  C17 UNL     1      -0.966   0.716  -4.493  1.00  0.00     0.022 C 
HETATM   29  C19 UNL     1      -0.779   2.294  -6.310  1.00  0.00     0.027 C 
HETATM   30  C16 UNL     1       0.428   0.562  -3.989  1.00  0.00     0.011 C 
BRANCH  27  31
HETATM   31  C20 UNL     1      -2.546   2.595  -4.727  1.00  0.00     0.182 C 
HETATM   32  O2  UNL     1      -3.124   3.341  -5.513  1.00  0.00    -0.647 OA
HETATM   33  O3  UNL     1      -3.300   2.086  -3.663  1.00  0.00    -0.647 OA
ENDBRANCH  27  31
ENDBRANCH   2  19
TORSDOF 6
ENDMDL
