MODEL 1
REMARK VINA RESULT: -10.124751096      0.000      0.000
REMARK  7 active torsions:
REMARK  status: ('A' for Active; 'I' for Inactive)
REMARK       I    between atoms: C2_2  and  N1_4 
REMARK    1  A    between atoms: N1_4  and  C3_6 
REMARK    2  A    between atoms: C3_6  and  C4_7 
REMARK    3  A    between atoms: C4_7  and  O2_8 
REMARK    4  A    between atoms: C15_20  and  C16_21 
REMARK    5  A    between atoms: C16_21  and  C18_23 
REMARK    6  A    between atoms: C18_23  and  C19_24 
REMARK    7  A    between atoms: C19_24  and  C20_25 
ROOT
HETATM    1  C3  UNL     1       1.715   1.970  -1.248  1.00  0.00     0.058 C 
HETATM    2  C5  UNL     1       0.217   2.074  -1.441  1.00  0.00     0.034 C 
HETATM    3  C6  UNL     1      -0.289   1.041  -0.455  1.00  0.00     0.008 C 
HETATM    4  C7  UNL     1       0.547   1.337   0.787  1.00  0.00    -0.003 C 
HETATM    5  C8  UNL     1       1.858   1.776   0.215  1.00  0.00     0.020 C 
HETATM    6  C9  UNL     1       2.981   0.802   0.603  1.00  0.00     0.008 C 
HETATM    7  C10 UNL     1       2.933   0.846   2.141  1.00  0.00     0.011 C 
HETATM    8  C11 UNL     1       1.803  -0.028   2.550  1.00  0.00    -0.024 C 
HETATM    9  C12 UNL     1       2.158  -1.500   2.414  1.00  0.00     0.006 C 
HETATM   10  C13 UNL     1       3.484  -1.758   3.030  1.00  0.00     0.007 C 
HETATM   11  C14 UNL     1       3.702  -1.263   4.394  1.00  0.00     0.006 C 
HETATM   12  C15 UNL     1       2.749  -0.193   4.880  1.00  0.00    -0.002 C 
HETATM   13  C21 UNL     1       1.546   0.027   4.064  1.00  0.00    -0.031 C 
HETATM   14  C22 UNL     1       0.926   1.369   4.293  1.00  0.00     0.016 C 
HETATM   15  C23 UNL     1       0.605  -1.134   4.222  1.00  0.00     0.023 C 
HETATM   16  C24 UNL     1       0.991  -2.136   3.128  1.00  0.00     0.061 C 
HETATM   17  C25 UNL     1      -0.147  -2.097   2.133  1.00  0.00     0.132 C 
HETATM   18  O4  UNL     1      -1.070  -2.862   2.154  1.00  0.00    -0.298 OA
HETATM   19  C26 UNL     1      -0.026  -1.008   1.106  1.00  0.00     0.084 C 
HETATM   20  C27 UNL     1       0.563   0.239   1.773  1.00  0.00     0.007 C 
ENDROOT
BRANCH   1  21
HETATM   21  N1  UNL     1       2.361   3.150  -1.761  1.00  0.00    -0.350 N 
HETATM   22  C2  UNL     1       1.904   4.463  -1.528  1.00  0.00     0.214 C 
HETATM   23  C1  UNL     1       2.656   5.631  -2.109  1.00  0.00     0.117 C 
HETATM   24  O1  UNL     1       0.896   4.771  -0.860  1.00  0.00    -0.274 OA
ATOM     25  H1  UNL     1       3.201   3.028  -2.326  1.00  0.00     0.163 HD
ENDBRANCH   1  21
BRANCH   1  26
HETATM   26  C4  UNL     1       2.195   0.778  -2.053  1.00  0.00     0.195 C 
BRANCH  26  27
HETATM   27  O2  UNL     1       2.022   0.911  -3.406  1.00  0.00    -0.398 OA
ATOM     28  H2  UNL     1       2.493   0.267  -3.921  1.00  0.00     0.209 HD
ENDBRANCH  26  27
ENDBRANCH   1  26
BRANCH  12  29
HETATM   29  C16 UNL     1       2.567  -0.481   6.326  1.00  0.00    -0.013 C 
HETATM   30  C17 UNL     1       3.364   0.218   7.339  1.00  0.00     0.010 C 
BRANCH  29  31
HETATM   31  C18 UNL     1       2.841  -1.984   6.527  1.00  0.00     0.013 C 
BRANCH  31  32
HETATM   32  C19 UNL     1       2.013  -2.570   7.631  1.00  0.00     0.100 C 
BRANCH  32  33
HETATM   33  C20 UNL     1       1.283  -3.787   7.200  1.00  0.00     0.231 C 
HETATM   34  N2  UNL     1       0.600  -4.648   8.096  1.00  0.00    -0.062 NA
HETATM   35  O3  UNL     1       1.251  -4.094   5.983  1.00  0.00    -0.277 OA
ENDBRANCH  32  33
ENDBRANCH  31  32
ENDBRANCH  29  31
ENDBRANCH  12  29
TORSDOF 7
ENDMDL
MODEL 2
REMARK VINA RESULT: -10.096758101      3.983      8.996
REMARK  7 active torsions:
REMARK  status: ('A' for Active; 'I' for Inactive)
REMARK       I    between atoms: C2_2  and  N1_4 
REMARK    1  A    between atoms: N1_4  and  C3_6 
REMARK    2  A    between atoms: C3_6  and  C4_7 
REMARK    3  A    between atoms: C4_7  and  O2_8 
REMARK    4  A    between atoms: C15_20  and  C16_21 
REMARK    5  A    between atoms: C16_21  and  C18_23 
REMARK    6  A    between atoms: C18_23  and  C19_24 
REMARK    7  A    between atoms: C19_24  and  C20_25 
ROOT
HETATM    1  C3  UNL     1       1.964   1.715   1.329  1.00  0.00     0.058 C 
HETATM    2  C5  UNL     1       2.070   0.217   1.520  1.00  0.00     0.034 C 
HETATM    3  C6  UNL     1       1.048  -0.289   0.523  1.00  0.00     0.008 C 
HETATM    4  C7  UNL     1       1.354   0.550  -0.714  1.00  0.00    -0.003 C 
HETATM    5  C8  UNL     1       1.785   1.860  -0.136  1.00  0.00     0.020 C 
HETATM    6  C9  UNL     1       0.812   2.982  -0.531  1.00  0.00     0.008 C 
HETATM    7  C10 UNL     1       0.872   2.937  -2.069  1.00  0.00     0.011 C 
HETATM    8  C11 UNL     1       0.003   1.806  -2.488  1.00  0.00    -0.024 C 
HETATM    9  C12 UNL     1      -1.470   2.158  -2.366  1.00  0.00     0.006 C 
HETATM   10  C13 UNL     1      -1.725   3.485  -2.982  1.00  0.00     0.007 C 
HETATM   11  C14 UNL     1      -1.217   3.706  -4.341  1.00  0.00     0.006 C 
HETATM   12  C15 UNL     1      -0.141   2.756  -4.818  1.00  0.00    -0.002 C 
HETATM   13  C21 UNL     1       0.074   1.552  -4.002  1.00  0.00    -0.031 C 
HETATM   14  C22 UNL     1       1.419   0.936  -4.219  1.00  0.00     0.016 C 
HETATM   15  C23 UNL     1      -1.083   0.609  -4.173  1.00  0.00     0.023 C 
HETATM   16  C24 UNL     1      -2.097   0.992  -3.088  1.00  0.00     0.061 C 
HETATM   17  C25 UNL     1      -2.065  -0.148  -2.095  1.00  0.00     0.132 C 
HETATM   18  O4  UNL     1      -2.829  -1.073  -2.124  1.00  0.00    -0.298 OA
HETATM   19  C26 UNL     1      -0.986  -0.027  -1.057  1.00  0.00     0.084 C 
HETATM   20  C27 UNL     1       0.266   0.565  -1.711  1.00  0.00     0.007 C 
ENDROOT
BRANCH   1  21
HETATM   21  N1  UNL     1       3.139   2.363   1.854  1.00  0.00    -0.350 N 
HETATM   22  C2  UNL     1       4.458   1.951   1.575  1.00  0.00     0.214 C 
HETATM   23  C1  UNL     1       5.619   2.701   2.173  1.00  0.00     0.117 C 
HETATM   24  O1  UNL     1       4.777   0.987   0.848  1.00  0.00    -0.274 OA
ATOM     25  H1  UNL     1       3.007   3.169   2.465  1.00  0.00     0.163 HD
ENDBRANCH   1  21
BRANCH   1  26
HETATM   26  C4  UNL     1       0.764   2.191   2.123  1.00  0.00     0.195 C 
BRANCH  26  27
HETATM   27  O2  UNL     1       0.883   2.013   3.477  1.00  0.00    -0.398 OA
ATOM     28  H2  UNL     1       1.019   2.818   3.962  1.00  0.00     0.209 HD
ENDBRANCH  26  27
ENDBRANCH   1  26
BRANCH  12  29
HETATM   29  C16 UNL     1      -0.415   2.576  -6.267  1.00  0.00    -0.013 C 
HETATM   30  C17 UNL     1       0.300   3.370  -7.272  1.00  0.00     0.010 C 
BRANCH  29  31
HETATM   31  C18 UNL     1      -1.913   2.858  -6.484  1.00  0.00     0.013 C 
BRANCH  31  32
HETATM   32  C19 UNL     1      -2.490   2.042  -7.601  1.00  0.00     0.100 C 
BRANCH  32  33
HETATM   33  C20 UNL     1      -3.712   1.309  -7.188  1.00  0.00     0.231 C 
HETATM   34  N2  UNL     1      -4.535   0.589  -8.091  1.00  0.00    -0.062 NA
HETATM   35  O3  UNL     1      -4.058   1.309  -5.982  1.00  0.00    -0.277 OA
ENDBRANCH  32  33
ENDBRANCH  31  32
ENDBRANCH  29  31
ENDBRANCH  12  29
TORSDOF 7
ENDMDL
MODEL 3
REMARK VINA RESULT: -9.792463132      1.621      1.739
REMARK  7 active torsions:
REMARK  status: ('A' for Active; 'I' for Inactive)
REMARK       I    between atoms: C2_2  and  N1_4 
REMARK    1  A    between atoms: N1_4  and  C3_6 
REMARK    2  A    between atoms: C3_6  and  C4_7 
REMARK    3  A    between atoms: C4_7  and  O2_8 
REMARK    4  A    between atoms: C15_20  and  C16_21 
REMARK    5  A    between atoms: C16_21  and  C18_23 
REMARK    6  A    between atoms: C18_23  and  C19_24 
REMARK    7  A    between atoms: C19_24  and  C20_25 
ROOT
HETATM    1  C3  UNL     1       1.660   1.923  -1.396  1.00  0.00     0.058 C 
HETATM    2  C5  UNL     1       0.158   1.994  -1.570  1.00  0.00     0.034 C 
HETATM    3  C6  UNL     1      -0.315   0.987  -0.541  1.00  0.00     0.008 C 
HETATM    4  C7  UNL     1       0.534   1.340   0.676  1.00  0.00    -0.003 C 
HETATM    5  C8  UNL     1       1.828   1.782   0.071  1.00  0.00     0.020 C 
HETATM    6  C9  UNL     1       2.974   0.841   0.474  1.00  0.00     0.008 C 
HETATM    7  C10 UNL     1       2.947   0.936   2.010  1.00  0.00     0.011 C 
HETATM    8  C11 UNL     1       1.840   0.057   2.465  1.00  0.00    -0.024 C 
HETATM    9  C12 UNL     1       2.219  -1.412   2.374  1.00  0.00     0.006 C 
HETATM   10  C13 UNL     1       3.558  -1.627   2.978  1.00  0.00     0.007 C 
HETATM   11  C14 UNL     1       3.787  -1.081   4.321  1.00  0.00     0.006 C 
HETATM   12  C15 UNL     1       2.822  -0.013   4.785  1.00  0.00    -0.002 C 
HETATM   13  C21 UNL     1       1.604   0.159   3.981  1.00  0.00    -0.031 C 
HETATM   14  C22 UNL     1       0.964   1.497   4.173  1.00  0.00     0.016 C 
HETATM   15  C23 UNL     1       0.686  -1.012   4.192  1.00  0.00     0.023 C 
HETATM   16  C24 UNL     1       1.074  -2.043   3.127  1.00  0.00     0.061 C 
HETATM   17  C25 UNL     1      -0.079  -2.058   2.148  1.00  0.00     0.132 C 
HETATM   18  O4  UNL     1      -0.988  -2.838   2.208  1.00  0.00    -0.298 OA
HETATM   19  C26 UNL     1       0.007  -1.002   1.084  1.00  0.00     0.084 C 
HETATM   20  C27 UNL     1       0.584   0.276   1.699  1.00  0.00     0.007 C 
ENDROOT
BRANCH   1  21
HETATM   21  N1  UNL     1       2.278   3.096  -1.958  1.00  0.00    -0.350 N 
HETATM   22  C2  UNL     1       1.879   4.415  -1.662  1.00  0.00     0.214 C 
HETATM   23  C1  UNL     1       2.594   5.575  -2.303  1.00  0.00     0.117 C 
HETATM   24  O1  UNL     1       0.953   4.736  -0.888  1.00  0.00    -0.274 OA
ATOM     25  H1  UNL     1       3.051   2.964  -2.609  1.00  0.00     0.163 HD
ENDBRANCH   1  21
BRANCH   1  26
HETATM   26  C4  UNL     1       2.149   0.713  -2.167  1.00  0.00     0.195 C 
BRANCH  26  27
HETATM   27  O2  UNL     1       2.082   0.854  -3.529  1.00  0.00    -0.398 OA
ATOM     28  H2  UNL     1       2.782   0.414  -3.998  1.00  0.00     0.209 HD
ENDBRANCH  26  27
ENDBRANCH   1  26
BRANCH  12  29
HETATM   29  C16 UNL     1       2.667  -0.255   6.242  1.00  0.00    -0.013 C 
HETATM   30  C17 UNL     1       3.107   0.744   7.222  1.00  0.00     0.010 C 
BRANCH  29  31
HETATM   31  C18 UNL     1       3.436  -1.547   6.572  1.00  0.00     0.013 C 
BRANCH  31  32
HETATM   32  C19 UNL     1       3.806  -1.635   8.022  1.00  0.00     0.100 C 
BRANCH  32  33
HETATM   33  C20 UNL     1       5.264  -1.829   8.219  1.00  0.00     0.231 C 
HETATM   34  N2  UNL     1       6.198  -0.762   8.254  1.00  0.00    -0.062 NA
HETATM   35  O3  UNL     1       5.722  -2.988   8.364  1.00  0.00    -0.277 OA
ENDBRANCH  32  33
ENDBRANCH  31  32
ENDBRANCH  29  31
ENDBRANCH  12  29
TORSDOF 7
ENDMDL
MODEL 4
REMARK VINA RESULT: -9.723475307      4.009      9.454
REMARK  7 active torsions:
REMARK  status: ('A' for Active; 'I' for Inactive)
REMARK       I    between atoms: C2_2  and  N1_4 
REMARK    1  A    between atoms: N1_4  and  C3_6 
REMARK    2  A    between atoms: C3_6  and  C4_7 
REMARK    3  A    between atoms: C4_7  and  O2_8 
REMARK    4  A    between atoms: C15_20  and  C16_21 
REMARK    5  A    between atoms: C16_21  and  C18_23 
REMARK    6  A    between atoms: C18_23  and  C19_24 
REMARK    7  A    between atoms: C19_24  and  C20_25 
ROOT
HETATM    1  C3  UNL     1       2.009   1.680   1.427  1.00  0.00     0.058 C 
HETATM    2  C5  UNL     1       2.080   0.177   1.596  1.00  0.00     0.034 C 
HETATM    3  C6  UNL     1       1.066  -0.292   0.572  1.00  0.00     0.008 C 
HETATM    4  C7  UNL     1       1.412   0.560  -0.645  1.00  0.00    -0.003 C 
HETATM    5  C8  UNL     1       1.859   1.852  -0.038  1.00  0.00     0.020 C 
HETATM    6  C9  UNL     1       0.917   3.001  -0.433  1.00  0.00     0.008 C 
HETATM    7  C10 UNL     1       1.003   2.978  -1.969  1.00  0.00     0.011 C 
HETATM    8  C11 UNL     1       0.120   1.873  -2.422  1.00  0.00    -0.024 C 
HETATM    9  C12 UNL     1      -1.349   2.254  -2.321  1.00  0.00     0.006 C 
HETATM   10  C13 UNL     1      -1.565   3.595  -2.919  1.00  0.00     0.007 C 
HETATM   11  C14 UNL     1      -1.028   3.827  -4.265  1.00  0.00     0.006 C 
HETATM   12  C15 UNL     1       0.037   2.862  -4.739  1.00  0.00    -0.002 C 
HETATM   13  C21 UNL     1       0.212   1.642  -3.939  1.00  0.00    -0.031 C 
HETATM   14  C22 UNL     1       1.549   1.000  -4.142  1.00  0.00     0.016 C 
HETATM   15  C23 UNL     1      -0.961   0.725  -4.146  1.00  0.00     0.023 C 
HETATM   16  C24 UNL     1      -1.985   1.112  -3.073  1.00  0.00     0.061 C 
HETATM   17  C25 UNL     1      -1.995  -0.044  -2.098  1.00  0.00     0.132 C 
HETATM   18  O4  UNL     1      -2.777  -0.952  -2.156  1.00  0.00    -0.298 OA
HETATM   19  C26 UNL     1      -0.933   0.038  -1.039  1.00  0.00     0.084 C 
HETATM   20  C27 UNL     1       0.342   0.615  -1.661  1.00  0.00     0.007 C 
ENDROOT
BRANCH   1  21
HETATM   21  N1  UNL     1       3.187   2.295   1.983  1.00  0.00    -0.350 N 
HETATM   22  C2  UNL     1       4.503   1.889   1.685  1.00  0.00     0.214 C 
HETATM   23  C1  UNL     1       5.668   2.602   2.320  1.00  0.00     0.117 C 
HETATM   24  O1  UNL     1       4.818   0.959   0.914  1.00  0.00    -0.274 OA
ATOM     25  H1  UNL     1       3.060   3.071   2.632  1.00  0.00     0.163 HD
ENDBRANCH   1  21
BRANCH   1  26
HETATM   26  C4  UNL     1       0.805   2.168   2.207  1.00  0.00     0.195 C 
BRANCH  26  27
HETATM   27  O2  UNL     1       0.897   1.970   3.560  1.00  0.00    -0.398 OA
ATOM     28  H2  UNL     1       1.336   2.672   4.025  1.00  0.00     0.209 HD
ENDBRANCH  26  27
ENDBRANCH   1  26
BRANCH  12  29
HETATM   29  C16 UNL     1      -0.214   2.712  -6.195  1.00  0.00    -0.013 C 
HETATM   30  C17 UNL     1       0.770   3.171  -7.180  1.00  0.00     0.010 C 
BRANCH  29  31
HETATM   31  C18 UNL     1      -1.520   3.464  -6.510  1.00  0.00     0.013 C 
BRANCH  31  32
HETATM   32  C19 UNL     1      -1.681   3.735  -7.976  1.00  0.00     0.100 C 
BRANCH  32  33
HETATM   33  C20 UNL     1      -1.898   5.175  -8.260  1.00  0.00     0.231 C 
HETATM   34  N2  UNL     1      -0.864   6.145  -8.222  1.00  0.00    -0.062 NA
HETATM   35  O3  UNL     1      -3.048   5.584  -8.552  1.00  0.00    -0.277 OA
ENDBRANCH  32  33
ENDBRANCH  31  32
ENDBRANCH  29  31
ENDBRANCH  12  29
TORSDOF 7
ENDMDL
MODEL 5
REMARK VINA RESULT: -9.025407100      3.600      9.122
REMARK  7 active torsions:
REMARK  status: ('A' for Active; 'I' for Inactive)
REMARK       I    between atoms: C2_2  and  N1_4 
REMARK    1  A    between atoms: N1_4  and  C3_6 
REMARK    2  A    between atoms: C3_6  and  C4_7 
REMARK    3  A    between atoms: C4_7  and  O2_8 
REMARK    4  A    between atoms: C15_20  and  C16_21 
REMARK    5  A    between atoms: C16_21  and  C18_23 
REMARK    6  A    between atoms: C18_23  and  C19_24 
REMARK    7  A    between atoms: C19_24  and  C20_25 
ROOT
HETATM    1  C3  UNL     1       1.552   1.043   2.294  1.00  0.00     0.058 C 
HETATM    2  C5  UNL     1       1.477  -0.469   2.313  1.00  0.00     0.034 C 
HETATM    3  C6  UNL     1       0.649  -0.748   1.075  1.00  0.00     0.008 C 
HETATM    4  C7  UNL     1       1.286   0.174   0.040  1.00  0.00    -0.003 C 
HETATM    5  C8  UNL     1       1.702   1.359   0.853  1.00  0.00     0.020 C 
HETATM    6  C9  UNL     1       0.942   2.621   0.414  1.00  0.00     0.008 C 
HETATM    7  C10 UNL     1       1.322   2.728  -1.073  1.00  0.00     0.011 C 
HETATM    8  C11 UNL     1       0.464   1.755  -1.797  1.00  0.00    -0.024 C 
HETATM    9  C12 UNL     1      -0.964   2.260  -1.930  1.00  0.00     0.006 C 
HETATM   10  C13 UNL     1      -0.960   3.664  -2.412  1.00  0.00     0.007 C 
HETATM   11  C14 UNL     1      -0.157   3.965  -3.603  1.00  0.00     0.006 C 
HETATM   12  C15 UNL     1       0.905   2.952  -3.970  1.00  0.00    -0.002 C 
HETATM   13  C21 UNL     1       0.831   1.653  -3.286  1.00  0.00    -0.031 C 
HETATM   14  C22 UNL     1       2.130   0.912  -3.304  1.00  0.00     0.016 C 
HETATM   15  C23 UNL     1      -0.345   0.873  -3.802  1.00  0.00     0.023 C 
HETATM   16  C24 UNL     1      -1.526   1.255  -2.904  1.00  0.00     0.061 C 
HETATM   17  C25 UNL     1      -1.810   0.022  -2.075  1.00  0.00     0.132 C 
HETATM   18  O4  UNL     1      -2.631  -0.800  -2.373  1.00  0.00    -0.298 OA
HETATM   19  C26 UNL     1      -0.970  -0.091  -0.835  1.00  0.00     0.084 C 
HETATM   20  C27 UNL     1       0.440   0.418  -1.145  1.00  0.00     0.007 C 
ENDROOT
BRANCH   1  21
HETATM   21  N1  UNL     1       2.641   1.493   3.121  1.00  0.00    -0.350 N 
HETATM   22  C2  UNL     1       2.825   1.105   4.463  1.00  0.00     0.214 C 
HETATM   23  C1  UNL     1       4.002   1.632   5.241  1.00  0.00     0.117 C 
HETATM   24  O1  UNL     1       2.080   0.334   5.103  1.00  0.00    -0.274 OA
ATOM     25  H1  UNL     1       3.322   2.131   2.709  1.00  0.00     0.163 HD
ENDBRANCH   1  21
BRANCH   1  26
HETATM   26  C4  UNL     1       0.259   1.568   2.884  1.00  0.00     0.195 C 
BRANCH  26  27
HETATM   27  O2  UNL     1       0.419   2.659   3.698  1.00  0.00    -0.398 OA
ATOM     28  H2  UNL     1       0.901   3.373   3.298  1.00  0.00     0.209 HD
ENDBRANCH  26  27
ENDBRANCH   1  26
BRANCH  12  29
HETATM   29  C16 UNL     1       0.930   2.957  -5.455  1.00  0.00    -0.013 C 
HETATM   30  C17 UNL     1       1.732   3.940  -6.191  1.00  0.00     0.010 C 
BRANCH  29  31
HETATM   31  C18 UNL     1      -0.522   3.143  -5.933  1.00  0.00     0.013 C 
BRANCH  31  32
HETATM   32  C19 UNL     1      -0.600   3.854  -7.251  1.00  0.00     0.100 C 
BRANCH  32  33
HETATM   33  C20 UNL     1      -1.985   4.271  -7.582  1.00  0.00     0.231 C 
HETATM   34  N2  UNL     1      -2.291   5.422  -8.352  1.00  0.00    -0.062 NA
HETATM   35  O3  UNL     1      -2.954   3.588  -7.173  1.00  0.00    -0.277 OA
ENDBRANCH  32  33
ENDBRANCH  31  32
ENDBRANCH  29  31
ENDBRANCH  12  29
TORSDOF 7
ENDMDL
