MODEL 1
REMARK VINA RESULT: -5.611321271      0.000      0.000
REMARK  9 active torsions:
REMARK  status: ('A' for Active; 'I' for Inactive)
REMARK    1  A    between atoms: C2_2  and  C3_3 
REMARK    2  A    between atoms: C3_3  and  C4_4 
REMARK    3  A    between atoms: C4_4  and  C5_5 
REMARK    4  A    between atoms: C4_4  and  C6_8 
REMARK    5  A    between atoms: C5_5  and  O1_6 
REMARK    6  A    between atoms: C6_8  and  C7_9 
REMARK    7  A    between atoms: C7_9  and  C8_10 
REMARK    8  A    between atoms: C10_14  and  N2_15 
REMARK    9  A    between atoms: N2_15  and  C11_17 
ROOT
HETATM    1  C8  UNL     1      -9.236  10.506   6.899  1.00  0.00     0.102 C 
HETATM    2  C9  UNL     1     -10.571  10.174   7.526  1.00  0.00     0.147 C 
HETATM    3  N1  UNL     1     -11.090  11.484   7.831  1.00  0.00    -0.360 N 
ATOM      4  H1  UNL     1     -12.077  11.705   7.959  1.00  0.00     0.162 HD
HETATM    5  C10 UNL     1     -10.120  12.338   7.919  1.00  0.00     0.171 C 
HETATM    6  N3  UNL     1      -8.880  11.679   7.678  1.00  0.00    -0.356 N 
ATOM      7  H3  UNL     1      -7.950  11.967   7.984  1.00  0.00     0.163 HD
ENDROOT
BRANCH   1   8
HETATM    8  C7  UNL     1      -8.239   9.366   7.136  1.00  0.00     0.027 C 
BRANCH   8   9
HETATM    9  C6  UNL     1      -8.783   8.564   8.284  1.00  0.00     0.009 C 
BRANCH   9  10
HETATM   10  C4  UNL     1      -7.769   7.803   9.049  1.00  0.00     0.009 C 
BRANCH  10  11
HETATM   11  C3  UNL     1      -6.620   8.729   9.386  1.00  0.00     0.006 C 
BRANCH  11  12
HETATM   12  C2  UNL     1      -6.644   9.239  10.800  1.00  0.00    -0.004 C 
HETATM   13  C1  UNL     1      -7.216   8.124  11.684  1.00  0.00     0.005 C 
ENDBRANCH  11  12
ENDBRANCH  10  11
BRANCH  10  14
HETATM   14  C5  UNL     1      -7.184   6.633   8.299  1.00  0.00     0.168 C 
BRANCH  14  15
HETATM   15  O1  UNL     1      -6.606   5.735   9.195  1.00  0.00    -0.400 OA
ATOM     16  H1  UNL     1      -5.788   6.089   9.525  1.00  0.00     0.209 HD
ENDBRANCH  14  15
ENDBRANCH  10  14
ENDBRANCH   9  10
ENDBRANCH   8   9
ENDBRANCH   1   8
BRANCH   5  17
HETATM   17  N2  UNL     1     -10.341  13.719   8.212  1.00  0.00    -0.358 N 
ATOM     18  H2  UNL     1     -11.228  14.131   7.921  1.00  0.00     0.163 HD
BRANCH  17  19
HETATM   19  C11 UNL     1      -9.393  14.568   8.894  1.00  0.00     0.084 C 
HETATM   20  C12 UNL     1      -9.709  16.014   8.649  1.00  0.00     0.025 C 
HETATM   21  C13 UNL     1      -9.465  16.818   9.902  1.00  0.00     0.002 C 
HETATM   22  C14 UNL     1      -8.147  16.477  10.563  1.00  0.00     0.000 C 
HETATM   23  C15 UNL     1      -7.992  14.995  10.824  1.00  0.00     0.002 C 
HETATM   24  C16 UNL     1      -9.224  14.225  10.361  1.00  0.00     0.025 C 
ENDBRANCH  17  19
ENDBRANCH   5  17
TORSDOF 9
ENDMDL
MODEL 2
REMARK VINA RESULT: -5.573884910      5.203      7.896
REMARK  9 active torsions:
REMARK  status: ('A' for Active; 'I' for Inactive)
REMARK    1  A    between atoms: C2_2  and  C3_3 
REMARK    2  A    between atoms: C3_3  and  C4_4 
REMARK    3  A    between atoms: C4_4  and  C5_5 
REMARK    4  A    between atoms: C4_4  and  C6_8 
REMARK    5  A    between atoms: C5_5  and  O1_6 
REMARK    6  A    between atoms: C6_8  and  C7_9 
REMARK    7  A    between atoms: C7_9  and  C8_10 
REMARK    8  A    between atoms: C10_14  and  N2_15 
REMARK    9  A    between atoms: N2_15  and  C11_17 
ROOT
HETATM    1  C8  UNL     1      -3.271   5.057  10.587  1.00  0.00     0.102 C 
HETATM    2  C9  UNL     1      -2.750   6.468  10.435  1.00  0.00     0.147 C 
HETATM    3  N1  UNL     1      -3.698   7.037   9.509  1.00  0.00    -0.360 N 
ATOM      4  H1  UNL     1      -3.886   8.034   9.405  1.00  0.00     0.162 HD
HETATM    5  C10 UNL     1      -4.276   6.097   8.829  1.00  0.00     0.171 C 
HETATM    6  N3  UNL     1      -3.771   4.831   9.242  1.00  0.00    -0.356 N 
ATOM      7  H3  UNL     1      -3.763   3.959   8.711  1.00  0.00     0.163 HD
ENDROOT
BRANCH   1   8
HETATM    8  C7  UNL     1      -2.122   4.097  10.914  1.00  0.00     0.027 C 
BRANCH   8   9
HETATM    9  C6  UNL     1      -2.624   3.199  12.009  1.00  0.00     0.009 C 
BRANCH   9  10
HETATM   10  C4  UNL     1      -4.099   3.134  12.133  1.00  0.00     0.009 C 
BRANCH  10  11
HETATM   11  C3  UNL     1      -4.466   3.211  13.600  1.00  0.00     0.006 C 
BRANCH  11  12
HETATM   12  C2  UNL     1      -3.728   4.279  14.357  1.00  0.00    -0.004 C 
HETATM   13  C1  UNL     1      -4.525   5.581  14.214  1.00  0.00     0.005 C 
ENDBRANCH  11  12
ENDBRANCH  10  11
BRANCH  10  14
HETATM   14  C5  UNL     1      -4.706   1.863  11.595  1.00  0.00     0.168 C 
BRANCH  14  15
HETATM   15  O1  UNL     1      -4.626   1.852  10.203  1.00  0.00    -0.400 OA
ATOM     16  H1  UNL     1      -5.324   1.316   9.844  1.00  0.00     0.209 HD
ENDBRANCH  14  15
ENDBRANCH  10  14
ENDBRANCH   9  10
ENDBRANCH   8   9
ENDBRANCH   1   8
BRANCH   5  17
HETATM   17  N2  UNL     1      -5.264   6.371   7.835  1.00  0.00    -0.358 N 
ATOM     18  H2  UNL     1      -5.252   5.809   6.984  1.00  0.00     0.163 HD
BRANCH  17  19
HETATM   19  C11 UNL     1      -6.280   7.390   7.955  1.00  0.00     0.084 C 
HETATM   20  C12 UNL     1      -6.100   8.442   6.902  1.00  0.00     0.025 C 
HETATM   21  C13 UNL     1      -7.443   8.898   6.389  1.00  0.00     0.002 C 
HETATM   22  C14 UNL     1      -8.430   9.167   7.505  1.00  0.00     0.000 C 
HETATM   23  C15 UNL     1      -8.573   7.996   8.451  1.00  0.00     0.002 C 
HETATM   24  C16 UNL     1      -7.688   6.832   8.020  1.00  0.00     0.025 C 
ENDBRANCH  17  19
ENDBRANCH   5  17
TORSDOF 9
ENDMDL
MODEL 3
REMARK VINA RESULT: -5.526942544      5.434      7.990
REMARK  9 active torsions:
REMARK  status: ('A' for Active; 'I' for Inactive)
REMARK    1  A    between atoms: C2_2  and  C3_3 
REMARK    2  A    between atoms: C3_3  and  C4_4 
REMARK    3  A    between atoms: C4_4  and  C5_5 
REMARK    4  A    between atoms: C4_4  and  C6_8 
REMARK    5  A    between atoms: C5_5  and  O1_6 
REMARK    6  A    between atoms: C6_8  and  C7_9 
REMARK    7  A    between atoms: C7_9  and  C8_10 
REMARK    8  A    between atoms: C10_14  and  N2_15 
REMARK    9  A    between atoms: N2_15  and  C11_17 
ROOT
HETATM    1  C8  UNL     1      -3.264   5.073  10.350  1.00  0.00     0.102 C 
HETATM    2  C9  UNL     1      -2.774   6.493  10.177  1.00  0.00     0.147 C 
HETATM    3  N1  UNL     1      -3.639   6.980   9.131  1.00  0.00    -0.360 N 
ATOM      4  H1  UNL     1      -3.846   7.963   8.955  1.00  0.00     0.162 HD
HETATM    5  C10 UNL     1      -4.114   5.987   8.447  1.00  0.00     0.171 C 
HETATM    6  N3  UNL     1      -3.616   4.762   8.976  1.00  0.00    -0.356 N 
ATOM      7  H3  UNL     1      -3.526   3.865   8.497  1.00  0.00     0.163 HD
ENDROOT
BRANCH   1   8
HETATM    8  C7  UNL     1      -2.125   4.174  10.843  1.00  0.00     0.027 C 
BRANCH   8   9
HETATM    9  C6  UNL     1      -2.657   3.442  12.043  1.00  0.00     0.009 C 
BRANCH   9  10
HETATM   10  C4  UNL     1      -4.132   3.306  12.085  1.00  0.00     0.009 C 
BRANCH  10  11
HETATM   11  C3  UNL     1      -4.593   3.475  13.517  1.00  0.00     0.006 C 
BRANCH  11  12
HETATM   12  C2  UNL     1      -3.791   4.476  14.301  1.00  0.00    -0.004 C 
HETATM   13  C1  UNL     1      -4.566   5.798  14.290  1.00  0.00     0.005 C 
ENDBRANCH  11  12
ENDBRANCH  10  11
BRANCH  10  14
HETATM   14  C5  UNL     1      -4.639   1.965  11.616  1.00  0.00     0.168 C 
BRANCH  14  15
HETATM   15  O1  UNL     1      -4.612   1.909  10.224  1.00  0.00    -0.400 OA
ATOM     16  H1  UNL     1      -4.618   2.788   9.864  1.00  0.00     0.209 HD
ENDBRANCH  14  15
ENDBRANCH  10  14
ENDBRANCH   9  10
ENDBRANCH   8   9
ENDBRANCH   1   8
BRANCH   5  17
HETATM   17  N2  UNL     1      -5.003   6.174   7.345  1.00  0.00    -0.358 N 
ATOM     18  H2  UNL     1      -4.716   5.814   6.435  1.00  0.00     0.163 HD
BRANCH  17  19
HETATM   19  C11 UNL     1      -6.282   6.838   7.434  1.00  0.00     0.084 C 
HETATM   20  C12 UNL     1      -6.916   6.587   8.770  1.00  0.00     0.025 C 
HETATM   21  C13 UNL     1      -7.617   7.831   9.254  1.00  0.00     0.002 C 
HETATM   22  C14 UNL     1      -8.458   8.480   8.176  1.00  0.00     0.000 C 
HETATM   23  C15 UNL     1      -7.676   8.749   6.910  1.00  0.00     0.002 C 
HETATM   24  C16 UNL     1      -6.225   8.306   7.057  1.00  0.00     0.025 C 
ENDBRANCH  17  19
ENDBRANCH   5  17
TORSDOF 9
ENDMDL
MODEL 4
REMARK VINA RESULT: -5.516364780      5.458      8.088
REMARK  9 active torsions:
REMARK  status: ('A' for Active; 'I' for Inactive)
REMARK    1  A    between atoms: C2_2  and  C3_3 
REMARK    2  A    between atoms: C3_3  and  C4_4 
REMARK    3  A    between atoms: C4_4  and  C5_5 
REMARK    4  A    between atoms: C4_4  and  C6_8 
REMARK    5  A    between atoms: C5_5  and  O1_6 
REMARK    6  A    between atoms: C6_8  and  C7_9 
REMARK    7  A    between atoms: C7_9  and  C8_10 
REMARK    8  A    between atoms: C10_14  and  N2_15 
REMARK    9  A    between atoms: N2_15  and  C11_17 
ROOT
HETATM    1  C8  UNL     1      -2.968   4.871  10.938  1.00  0.00     0.102 C 
HETATM    2  C9  UNL     1      -2.830   4.181   9.599  1.00  0.00     0.147 C 
HETATM    3  N1  UNL     1      -3.784   4.902   8.794  1.00  0.00    -0.360 N 
ATOM      4  H1  UNL     1      -3.762   4.961   7.776  1.00  0.00     0.162 HD
HETATM    5  C10 UNL     1      -4.673   5.464   9.552  1.00  0.00     0.171 C 
HETATM    6  N3  UNL     1      -4.389   5.173  10.917  1.00  0.00    -0.356 N 
ATOM      7  H3  UNL     1      -5.038   5.175  11.704  1.00  0.00     0.163 HD
ENDROOT
BRANCH   1   8
HETATM    8  C7  UNL     1      -2.629   3.899  12.074  1.00  0.00     0.027 C 
BRANCH   8   9
HETATM    9  C6  UNL     1      -3.667   4.121  13.138  1.00  0.00     0.009 C 
BRANCH   9  10
HETATM   10  C4  UNL     1      -3.180   4.826  14.347  1.00  0.00     0.009 C 
BRANCH  10  11
HETATM   11  C3  UNL     1      -3.690   6.251  14.316  1.00  0.00     0.006 C 
BRANCH  11  12
HETATM   12  C2  UNL     1      -2.615   7.277  14.087  1.00  0.00    -0.004 C 
HETATM   13  C1  UNL     1      -2.935   7.996  12.772  1.00  0.00     0.005 C 
ENDBRANCH  11  12
ENDBRANCH  10  11
BRANCH  10  14
HETATM   14  C5  UNL     1      -1.677   4.900  14.451  1.00  0.00     0.168 C 
BRANCH  14  15
HETATM   15  O1  UNL     1      -1.239   4.143  15.537  1.00  0.00    -0.400 OA
ATOM     16  H1  UNL     1      -0.310   3.963  15.452  1.00  0.00     0.209 HD
ENDBRANCH  14  15
ENDBRANCH  10  14
ENDBRANCH   9  10
ENDBRANCH   8   9
ENDBRANCH   1   8
BRANCH   5  17
HETATM   17  N2  UNL     1      -5.745   6.246   9.022  1.00  0.00    -0.358 N 
ATOM     18  H2  UNL     1      -6.385   5.795   8.369  1.00  0.00     0.163 HD
BRANCH  17  19
HETATM   19  C11 UNL     1      -5.980   7.632   9.350  1.00  0.00     0.084 C 
HETATM   20  C12 UNL     1      -6.951   7.747  10.488  1.00  0.00     0.025 C 
HETATM   21  C13 UNL     1      -6.545   8.874  11.404  1.00  0.00     0.002 C 
HETATM   22  C14 UNL     1      -6.177  10.133  10.649  1.00  0.00     0.000 C 
HETATM   23  C15 UNL     1      -5.132   9.889   9.583  1.00  0.00     0.002 C 
HETATM   24  C16 UNL     1      -4.706   8.426   9.558  1.00  0.00     0.025 C 
ENDBRANCH  17  19
ENDBRANCH   5  17
TORSDOF 9
ENDMDL
MODEL 5
REMARK VINA RESULT: -5.486459752      4.746      7.212
REMARK  9 active torsions:
REMARK  status: ('A' for Active; 'I' for Inactive)
REMARK    1  A    between atoms: C2_2  and  C3_3 
REMARK    2  A    between atoms: C3_3  and  C4_4 
REMARK    3  A    between atoms: C4_4  and  C5_5 
REMARK    4  A    between atoms: C4_4  and  C6_8 
REMARK    5  A    between atoms: C5_5  and  O1_6 
REMARK    6  A    between atoms: C6_8  and  C7_9 
REMARK    7  A    between atoms: C7_9  and  C8_10 
REMARK    8  A    between atoms: C10_14  and  N2_15 
REMARK    9  A    between atoms: N2_15  and  C11_17 
ROOT
HETATM    1  C8  UNL     1      -4.520   5.486  10.817  1.00  0.00     0.102 C 
HETATM    2  C9  UNL     1      -4.714   6.978  10.970  1.00  0.00     0.147 C 
HETATM    3  N1  UNL     1      -5.909   7.204  10.196  1.00  0.00    -0.360 N 
ATOM      4  H1  UNL     1      -6.537   7.998  10.311  1.00  0.00     0.162 HD
HETATM    5  C10 UNL     1      -6.067   6.250   9.332  1.00  0.00     0.171 C 
HETATM    6  N3  UNL     1      -5.004   5.311   9.458  1.00  0.00    -0.356 N 
ATOM      7  H3  UNL     1      -4.658   4.661   8.752  1.00  0.00     0.163 HD
ENDROOT
BRANCH   1   8
HETATM    8  C7  UNL     1      -3.034   5.129  10.922  1.00  0.00     0.027 C 
BRANCH   8   9
HETATM    9  C6  UNL     1      -2.937   4.035  11.947  1.00  0.00     0.009 C 
BRANCH   9  10
HETATM   10  C4  UNL     1      -4.237   3.549  12.464  1.00  0.00     0.009 C 
BRANCH  10  11
HETATM   11  C3  UNL     1      -4.262   3.734  13.966  1.00  0.00     0.006 C 
BRANCH  11  12
HETATM   12  C2  UNL     1      -4.334   5.171  14.401  1.00  0.00    -0.004 C 
HETATM   13  C1  UNL     1      -5.798   5.611  14.299  1.00  0.00     0.005 C 
ENDBRANCH  11  12
ENDBRANCH  10  11
BRANCH  10  14
HETATM   14  C5  UNL     1      -4.496   2.087  12.198  1.00  0.00     0.168 C 
BRANCH  14  15
HETATM   15  O1  UNL     1      -5.535   1.949  11.279  1.00  0.00    -0.400 OA
ATOM     16  H1  UNL     1      -5.738   2.793  10.891  1.00  0.00     0.209 HD
ENDBRANCH  14  15
ENDBRANCH  10  14
ENDBRANCH   9  10
ENDBRANCH   8   9
ENDBRANCH   1   8
BRANCH   5  17
HETATM   17  N2  UNL     1      -7.172   6.215   8.427  1.00  0.00    -0.358 N 
ATOM     18  H2  UNL     1      -7.716   5.354   8.373  1.00  0.00     0.163 HD
BRANCH  17  19
HETATM   19  C11 UNL     1      -7.568   7.317   7.582  1.00  0.00     0.084 C 
HETATM   20  C12 UNL     1      -8.558   8.194   8.289  1.00  0.00     0.025 C 
HETATM   21  C13 UNL     1      -8.295   9.643   7.963  1.00  0.00     0.002 C 
HETATM   22  C14 UNL     1      -8.064   9.873   6.485  1.00  0.00     0.000 C 
HETATM   23  C15 UNL     1      -6.985   8.978   5.917  1.00  0.00     0.002 C 
HETATM   24  C16 UNL     1      -6.394   8.078   6.997  1.00  0.00     0.025 C 
ENDBRANCH  17  19
ENDBRANCH   5  17
TORSDOF 9
ENDMDL
