MODEL 1
REMARK VINA RESULT: -5.993403996      0.000      0.000
REMARK  8 active torsions:
REMARK  status: ('A' for Active; 'I' for Inactive)
REMARK    1  A    between atoms: C2_2  and  C3_3 
REMARK    2  A    between atoms: C3_3  and  C4_4 
REMARK    3  A    between atoms: C4_4  and  C5_5 
REMARK    4  A    between atoms: C5_5  and  C6_6 
REMARK    5  A    between atoms: C6_6  and  C7_7 
REMARK    6  A    between atoms: C7_7  and  C8_8 
REMARK    7  A    between atoms: C8_8  and  C9_9 
REMARK    8  A    between atoms: C15_16  and  O2_17 
ROOT
HETATM    1  C9  UNL     1      -4.289   5.868  13.139  1.00  0.00     0.007 C 
HETATM    2  C10 UNL     1      -3.211   6.886  13.360  1.00  0.00     0.015 C 
HETATM    3  C11 UNL     1      -2.136   6.466  14.295  1.00  0.00     0.024 C 
HETATM    4  C12 UNL     1      -1.700   5.062  14.307  1.00  0.00     0.102 C 
HETATM    5  C13 UNL     1      -1.351   4.634  12.903  1.00  0.00     0.104 C 
HETATM    6  C14 UNL     1      -2.494   4.529  11.990  1.00  0.00     0.157 C 
HETATM    7  O1  UNL     1      -2.215   3.766  11.045  1.00  0.00    -0.295 OA
HETATM    8  C15 UNL     1      -3.835   5.061  11.890  1.00  0.00     0.197 C 
HETATM    9  N1  UNL     1      -2.473   4.122  15.047  1.00  0.00    -0.143 NA
HETATM   10  N2  UNL     1      -3.594   3.796  14.278  1.00  0.00    -0.147 NA
HETATM   11  C16 UNL     1      -4.450   4.950  14.309  1.00  0.00     0.142 C 
ENDROOT
BRANCH   1  12
HETATM   12  C8  UNL     1      -5.616   6.401  12.763  1.00  0.00     0.014 C 
BRANCH  12  13
HETATM   13  C7  UNL     1      -5.885   7.256  11.627  1.00  0.00     0.001 C 
BRANCH  13  14
HETATM   14  C6  UNL     1      -6.970   8.294  11.717  1.00  0.00     0.000 C 
BRANCH  14  15
HETATM   15  C5  UNL     1      -6.569   9.450  10.793  1.00  0.00     0.000 C 
BRANCH  15  16
HETATM   16  C4  UNL     1      -6.479   9.043   9.361  1.00  0.00     0.000 C 
BRANCH  16  17
HETATM   17  C3  UNL     1      -7.752   9.200   8.586  1.00  0.00    -0.000 C 
BRANCH  17  18
HETATM   18  C2  UNL     1      -8.450   7.878   8.355  1.00  0.00    -0.005 C 
HETATM   19  C1  UNL     1      -7.457   6.746   8.191  1.00  0.00     0.005 C 
ENDBRANCH  17  18
ENDBRANCH  16  17
ENDBRANCH  15  16
ENDBRANCH  14  15
ENDBRANCH  13  14
ENDBRANCH  12  13
ENDBRANCH   1  12
BRANCH   8  20
HETATM   20  O2  UNL     1      -4.752   4.070  11.602  1.00  0.00    -0.387 OA
ATOM     21  H2  UNL     1      -4.328   3.219  11.602  1.00  0.00     0.210 HD
ENDBRANCH   8  20
TORSDOF 8
ENDMDL
MODEL 2
REMARK VINA RESULT: -5.916703348      0.800      1.184
REMARK  8 active torsions:
REMARK  status: ('A' for Active; 'I' for Inactive)
REMARK    1  A    between atoms: C2_2  and  C3_3 
REMARK    2  A    between atoms: C3_3  and  C4_4 
REMARK    3  A    between atoms: C4_4  and  C5_5 
REMARK    4  A    between atoms: C5_5  and  C6_6 
REMARK    5  A    between atoms: C6_6  and  C7_7 
REMARK    6  A    between atoms: C7_7  and  C8_8 
REMARK    7  A    between atoms: C8_8  and  C9_9 
REMARK    8  A    between atoms: C15_16  and  O2_17 
ROOT
HETATM    1  C9  UNL     1      -4.270   5.925  13.170  1.00  0.00     0.007 C 
HETATM    2  C10 UNL     1      -3.181   6.911  13.469  1.00  0.00     0.015 C 
HETATM    3  C11 UNL     1      -2.133   6.422  14.400  1.00  0.00     0.024 C 
HETATM    4  C12 UNL     1      -1.718   5.012  14.343  1.00  0.00     0.102 C 
HETATM    5  C13 UNL     1      -1.347   4.656  12.924  1.00  0.00     0.104 C 
HETATM    6  C14 UNL     1      -2.473   4.621  11.984  1.00  0.00     0.157 C 
HETATM    7  O1  UNL     1      -2.186   3.908  11.004  1.00  0.00    -0.295 OA
HETATM    8  C15 UNL     1      -3.802   5.181  11.888  1.00  0.00     0.197 C 
HETATM    9  N1  UNL     1      -2.521   4.045  15.014  1.00  0.00    -0.143 NA
HETATM   10  N2  UNL     1      -3.631   3.781  14.206  1.00  0.00    -0.147 NA
HETATM   11  C16 UNL     1      -4.470   4.946  14.283  1.00  0.00     0.142 C 
ENDROOT
BRANCH   1  12
HETATM   12  C8  UNL     1      -5.580   6.499  12.798  1.00  0.00     0.014 C 
BRANCH  12  13
HETATM   13  C7  UNL     1      -5.789   7.556  11.832  1.00  0.00     0.001 C 
BRANCH  13  14
HETATM   14  C6  UNL     1      -7.178   8.080  11.590  1.00  0.00     0.000 C 
BRANCH  14  15
HETATM   15  C5  UNL     1      -7.385   8.131  10.071  1.00  0.00     0.000 C 
BRANCH  15  16
HETATM   16  C4  UNL     1      -6.666   7.040   9.351  1.00  0.00     0.000 C 
BRANCH  16  17
HETATM   17  C3  UNL     1      -7.405   6.478   8.174  1.00  0.00    -0.000 C 
BRANCH  17  18
HETATM   18  C2  UNL     1      -6.599   6.565   6.896  1.00  0.00    -0.005 C 
HETATM   19  C1  UNL     1      -6.437   8.000   6.438  1.00  0.00     0.005 C 
ENDBRANCH  17  18
ENDBRANCH  16  17
ENDBRANCH  15  16
ENDBRANCH  14  15
ENDBRANCH  13  14
ENDBRANCH  12  13
ENDBRANCH   1  12
BRANCH   8  20
HETATM   20  O2  UNL     1      -4.729   4.222  11.526  1.00  0.00    -0.387 OA
ATOM     21  H2  UNL     1      -5.493   4.633  11.139  1.00  0.00     0.210 HD
ENDBRANCH   8  20
TORSDOF 8
ENDMDL
MODEL 3
REMARK VINA RESULT: -5.900615703      1.648      2.005
REMARK  8 active torsions:
REMARK  status: ('A' for Active; 'I' for Inactive)
REMARK    1  A    between atoms: C2_2  and  C3_3 
REMARK    2  A    between atoms: C3_3  and  C4_4 
REMARK    3  A    between atoms: C4_4  and  C5_5 
REMARK    4  A    between atoms: C5_5  and  C6_6 
REMARK    5  A    between atoms: C6_6  and  C7_7 
REMARK    6  A    between atoms: C7_7  and  C8_8 
REMARK    7  A    between atoms: C8_8  and  C9_9 
REMARK    8  A    between atoms: C15_16  and  O2_17 
ROOT
HETATM    1  C9  UNL     1      -3.461   5.197  11.968  1.00  0.00     0.007 C 
HETATM    2  C10 UNL     1      -2.331   6.182  11.948  1.00  0.00     0.015 C 
HETATM    3  C11 UNL     1      -0.977   5.582  12.055  1.00  0.00     0.024 C 
HETATM    4  C12 UNL     1      -0.708   4.290  11.407  1.00  0.00     0.102 C 
HETATM    5  C13 UNL     1      -1.122   4.360   9.958  1.00  0.00     0.104 C 
HETATM    6  C14 UNL     1      -2.570   4.450   9.736  1.00  0.00     0.157 C 
HETATM    7  O1  UNL     1      -2.849   4.053   8.589  1.00  0.00    -0.295 OA
HETATM    8  C15 UNL     1      -3.740   4.869  10.474  1.00  0.00     0.197 C 
HETATM    9  N1  UNL     1      -1.099   3.101  12.087  1.00  0.00    -0.143 NA
HETATM   10  N2  UNL     1      -2.475   2.939  11.902  1.00  0.00    -0.147 NA
HETATM   11  C16 UNL     1      -3.109   3.946  12.708  1.00  0.00     0.142 C 
ENDROOT
BRANCH   1  12
HETATM   12  C8  UNL     1      -4.754   5.704  12.474  1.00  0.00     0.014 C 
BRANCH  12  13
HETATM   13  C7  UNL     1      -5.389   6.939  12.066  1.00  0.00     0.001 C 
BRANCH  13  14
HETATM   14  C6  UNL     1      -6.825   7.194  12.433  1.00  0.00     0.000 C 
BRANCH  14  15
HETATM   15  C5  UNL     1      -7.274   8.442  11.663  1.00  0.00     0.000 C 
BRANCH  15  16
HETATM   16  C4  UNL     1      -6.474   8.679  10.427  1.00  0.00     0.000 C 
BRANCH  16  17
HETATM   17  C3  UNL     1      -7.290   8.936   9.195  1.00  0.00    -0.000 C 
BRANCH  17  18
HETATM   18  C2  UNL     1      -7.874   7.665   8.619  1.00  0.00    -0.005 C 
HETATM   19  C1  UNL     1      -6.851   6.549   8.583  1.00  0.00     0.005 C 
ENDBRANCH  17  18
ENDBRANCH  16  17
ENDBRANCH  15  16
ENDBRANCH  14  15
ENDBRANCH  13  14
ENDBRANCH  12  13
ENDBRANCH   1  12
BRANCH   8  20
HETATM   20  O2  UNL     1      -4.761   3.945  10.370  1.00  0.00    -0.387 OA
ATOM     21  H2  UNL     1      -4.645   3.253  11.011  1.00  0.00     0.210 HD
ENDBRANCH   8  20
TORSDOF 8
ENDMDL
MODEL 4
REMARK VINA RESULT: -5.887233698      2.086      3.262
REMARK  8 active torsions:
REMARK  status: ('A' for Active; 'I' for Inactive)
REMARK    1  A    between atoms: C2_2  and  C3_3 
REMARK    2  A    between atoms: C3_3  and  C4_4 
REMARK    3  A    between atoms: C4_4  and  C5_5 
REMARK    4  A    between atoms: C5_5  and  C6_6 
REMARK    5  A    between atoms: C6_6  and  C7_7 
REMARK    6  A    between atoms: C7_7  and  C8_8 
REMARK    7  A    between atoms: C8_8  and  C9_9 
REMARK    8  A    between atoms: C15_16  and  O2_17 
ROOT
HETATM    1  C9  UNL     1      -2.865   5.022  12.647  1.00  0.00     0.007 C 
HETATM    2  C10 UNL     1      -2.876   6.130  11.638  1.00  0.00     0.015 C 
HETATM    3  C11 UNL     1      -1.762   6.095  10.658  1.00  0.00     0.024 C 
HETATM    4  C12 UNL     1      -1.269   4.797  10.174  1.00  0.00     0.102 C 
HETATM    5  C13 UNL     1      -2.429   3.981   9.657  1.00  0.00     0.104 C 
HETATM    6  C14 UNL     1      -3.364   3.520  10.689  1.00  0.00     0.157 C 
HETATM    7  O1  UNL     1      -3.991   2.525  10.281  1.00  0.00    -0.295 OA
HETATM    8  C15 UNL     1      -3.749   3.902  12.030  1.00  0.00     0.197 C 
HETATM    9  N1  UNL     1      -0.345   4.080  10.988  1.00  0.00    -0.143 NA
HETATM   10  N2  UNL     1      -1.073   3.456  12.005  1.00  0.00    -0.147 NA
HETATM   11  C16 UNL     1      -1.486   4.501  12.902  1.00  0.00     0.142 C 
ENDROOT
BRANCH   1  12
HETATM   12  C8  UNL     1      -3.510   5.318  13.943  1.00  0.00     0.014 C 
BRANCH  12  13
HETATM   13  C7  UNL     1      -4.602   6.247  14.144  1.00  0.00     0.001 C 
BRANCH  13  14
HETATM   14  C6  UNL     1      -5.966   5.726  14.506  1.00  0.00     0.000 C 
BRANCH  14  15
HETATM   15  C5  UNL     1      -6.942   6.232  13.437  1.00  0.00     0.000 C 
BRANCH  15  16
HETATM   16  C4  UNL     1      -6.293   7.129  12.437  1.00  0.00     0.000 C 
BRANCH  16  17
HETATM   17  C3  UNL     1      -7.227   8.084  11.756  1.00  0.00    -0.000 C 
BRANCH  17  18
HETATM   18  C2  UNL     1      -6.497   9.254  11.134  1.00  0.00    -0.005 C 
HETATM   19  C1  UNL     1      -5.024   8.955  10.947  1.00  0.00     0.005 C 
ENDBRANCH  17  18
ENDBRANCH  16  17
ENDBRANCH  15  16
ENDBRANCH  14  15
ENDBRANCH  13  14
ENDBRANCH  12  13
ENDBRANCH   1  12
BRANCH   8  20
HETATM   20  O2  UNL     1      -3.795   2.809  12.873  1.00  0.00    -0.387 OA
ATOM     21  H2  UNL     1      -4.697   2.563  13.044  1.00  0.00     0.210 HD
ENDBRANCH   8  20
TORSDOF 8
ENDMDL
MODEL 5
REMARK VINA RESULT: -5.863244589      1.145      1.432
REMARK  8 active torsions:
REMARK  status: ('A' for Active; 'I' for Inactive)
REMARK    1  A    between atoms: C2_2  and  C3_3 
REMARK    2  A    between atoms: C3_3  and  C4_4 
REMARK    3  A    between atoms: C4_4  and  C5_5 
REMARK    4  A    between atoms: C5_5  and  C6_6 
REMARK    5  A    between atoms: C6_6  and  C7_7 
REMARK    6  A    between atoms: C7_7  and  C8_8 
REMARK    7  A    between atoms: C8_8  and  C9_9 
REMARK    8  A    between atoms: C15_16  and  O2_17 
ROOT
HETATM    1  C9  UNL     1      -4.157   6.069  11.801  1.00  0.00     0.007 C 
HETATM    2  C10 UNL     1      -2.733   6.469  12.044  1.00  0.00     0.015 C 
HETATM    3  C11 UNL     1      -1.988   5.592  12.982  1.00  0.00     0.024 C 
HETATM    4  C12 UNL     1      -2.252   4.145  12.980  1.00  0.00     0.102 C 
HETATM    5  C13 UNL     1      -2.122   3.615  11.572  1.00  0.00     0.104 C 
HETATM    6  C14 UNL     1      -3.172   4.059  10.649  1.00  0.00     0.157 C 
HETATM    7  O1  UNL     1      -3.265   3.262   9.697  1.00  0.00    -0.295 OA
HETATM    8  C15 UNL     1      -4.112   5.153  10.546  1.00  0.00     0.197 C 
HETATM    9  N1  UNL     1      -3.383   3.665  13.701  1.00  0.00    -0.143 NA
HETATM   10  N2  UNL     1      -4.516   3.902  12.918  1.00  0.00    -0.147 NA
HETATM   11  C16 UNL     1      -4.741   5.320  12.957  1.00  0.00     0.142 C 
ENDROOT
BRANCH   1  12
HETATM   12  C8  UNL     1      -5.081   7.158  11.421  1.00  0.00     0.014 C 
BRANCH  12  13
HETATM   13  C7  UNL     1      -6.370   7.414  12.026  1.00  0.00     0.001 C 
BRANCH  13  14
HETATM   14  C6  UNL     1      -7.332   8.359  11.359  1.00  0.00     0.000 C 
BRANCH  14  15
HETATM   15  C5  UNL     1      -6.531   9.169  10.332  1.00  0.00     0.000 C 
BRANCH  15  16
HETATM   16  C4  UNL     1      -7.031   8.993   8.938  1.00  0.00     0.000 C 
BRANCH  16  17
HETATM   17  C3  UNL     1      -8.078   7.932   8.779  1.00  0.00    -0.000 C 
BRANCH  17  18
HETATM   18  C2  UNL     1      -7.525   6.668   8.161  1.00  0.00    -0.005 C 
HETATM   19  C1  UNL     1      -6.230   6.931   7.420  1.00  0.00     0.005 C 
ENDBRANCH  17  18
ENDBRANCH  16  17
ENDBRANCH  15  16
ENDBRANCH  14  15
ENDBRANCH  13  14
ENDBRANCH  12  13
ENDBRANCH   1  12
BRANCH   8  20
HETATM   20  O2  UNL     1      -5.380   4.702  10.236  1.00  0.00    -0.387 OA
ATOM     21  H2  UNL     1      -5.554   3.880  10.680  1.00  0.00     0.210 HD
ENDBRANCH   8  20
TORSDOF 8
ENDMDL
