MODEL 1
REMARK VINA RESULT: -8.879533521      0.000      0.000
REMARK  8 active torsions:
REMARK  status: ('A' for Active; 'I' for Inactive)
REMARK    1  A    between atoms: N3_19  and  C16_20 
REMARK    2  A    between atoms: C19_24  and  O2_25 
REMARK    3  A    between atoms: O2_25  and  C20_26 
REMARK    4  A    between atoms: C21_28  and  C22_29 
REMARK    5  A    between atoms: C22_29  and  O4_30 
REMARK    6  A    between atoms: C23_32  and  O5_33 
REMARK    7  A    between atoms: C24_35  and  O6_36 
REMARK    8  A    between atoms: C25_38  and  O7_39 
ROOT
HETATM    1  C1  UNL     1      15.672  35.104  46.888  1.00  0.00     0.309 C 
HETATM    2  N1  UNL     1      17.089  34.890  46.736  1.00  0.00     0.085 N 
HETATM    3  C2  UNL     1      17.299  34.092  45.546  1.00  0.00     0.272 C 
HETATM    4  C3  UNL     1      18.559  33.261  45.636  1.00  0.00     0.030 C 
HETATM    5  C4  UNL     1      19.661  33.932  44.879  1.00  0.00     0.002 C 
HETATM    6  C5  UNL     1      20.278  33.081  43.818  1.00  0.00     0.012 C 
HETATM    7  C6  UNL     1      21.683  32.658  44.204  1.00  0.00     0.094 C 
HETATM    8  C7  UNL     1      22.605  33.707  44.317  1.00  0.00    -0.102 C 
HETATM    9  C8  UNL     1      23.324  34.559  44.409  1.00  0.00    -0.079 C 
HETATM   10  C9  UNL     1      24.194  35.633  44.527  1.00  0.00     0.062 C 
HETATM   11  C10 UNL     1      23.857  36.911  44.590  1.00  0.00     0.001 C 
HETATM   12  C11 UNL     1      22.487  37.420  44.544  1.00  0.00     0.142 C 
HETATM   13  N2  UNL     1      21.666  37.069  45.650  1.00  0.00    -0.418 N 
ATOM     14  H2  UNL     1      20.813  36.524  45.533  1.00  0.00     0.153 HD
HETATM   15  C12 UNL     1      22.095  37.517  46.925  1.00  0.00     0.114 C 
HETATM   16  C13 UNL     1      21.636  36.646  48.066  1.00  0.00     0.024 C 
HETATM   17  C14 UNL     1      20.990  37.415  49.185  1.00  0.00     0.046 C 
HETATM   18  C15 UNL     1      19.608  37.909  48.781  1.00  0.00     0.061 C 
HETATM   19  N3  UNL     1      18.592  36.956  48.784  1.00  0.00    -0.364 N 
HETATM   20  C26 UNL     1      17.621  37.087  47.716  1.00  0.00     0.154 C 
HETATM   21  C27 UNL     1      17.835  36.130  46.591  1.00  0.00     0.291 C 
ENDROOT
BRANCH  19  22
HETATM   22  C16 UNL     1      18.218  36.201  49.863  1.00  0.00     0.251 C 
HETATM   23  O1  UNL     1      19.055  35.165  50.278  1.00  0.00    -0.364 OA
HETATM   24  C17 UNL     1      18.222  34.478  51.160  1.00  0.00     0.173 C 
HETATM   25  C18 UNL     1      17.334  35.510  51.843  1.00  0.00     0.063 C 
HETATM   26  C19 UNL     1      17.857  36.806  51.171  1.00  0.00     0.175 C 
BRANCH  26  27
HETATM   27  O2  UNL     1      18.851  37.227  51.990  1.00  0.00    -0.349 OA
BRANCH  27  28
HETATM   28  C20 UNL     1      18.593  38.363  52.722  1.00  0.00     0.292 C 
HETATM   29  O3  UNL     1      18.989  39.471  52.035  1.00  0.00    -0.348 OA
HETATM   30  C21 UNL     1      20.052  40.179  52.504  1.00  0.00     0.179 C 
HETATM   31  C23 UNL     1      20.062  40.494  53.962  1.00  0.00     0.180 C 
HETATM   32  C24 UNL     1      18.987  39.733  54.680  1.00  0.00     0.183 C 
HETATM   33  C25 UNL     1      19.070  38.293  54.148  1.00  0.00     0.204 C 
BRANCH  30  34
HETATM   34  C22 UNL     1      21.405  39.610  52.114  1.00  0.00     0.198 C 
BRANCH  34  35
HETATM   35  O4  UNL     1      22.197  40.567  51.481  1.00  0.00    -0.398 OA
ATOM     36  H4  UNL     1      23.107  40.297  51.448  1.00  0.00     0.209 HD
ENDBRANCH  34  35
ENDBRANCH  30  34
BRANCH  31  37
HETATM   37  O5  UNL     1      21.287  40.110  54.555  1.00  0.00    -0.390 OA
ATOM     38  H5  UNL     1      21.454  39.184  54.422  1.00  0.00     0.210 HD
ENDBRANCH  31  37
BRANCH  32  39
HETATM   39  O6  UNL     1      19.265  39.693  56.024  1.00  0.00    -0.390 OA
ATOM     40  H6  UNL     1      19.641  38.851  56.250  1.00  0.00     0.210 HD
ENDBRANCH  32  39
BRANCH  33  41
HETATM   41  O7  UNL     1      18.197  37.565  54.969  1.00  0.00    -0.388 OA
ATOM     42  H7  UNL     1      18.536  36.704  55.184  1.00  0.00     0.210 HD
ENDBRANCH  33  41
ENDBRANCH  27  28
ENDBRANCH  26  27
ENDBRANCH  19  22
TORSDOF 8
ENDMDL
MODEL 2
REMARK VINA RESULT: -8.429431819      2.350      4.826
REMARK  8 active torsions:
REMARK  status: ('A' for Active; 'I' for Inactive)
REMARK    1  A    between atoms: N3_19  and  C16_20 
REMARK    2  A    between atoms: C19_24  and  O2_25 
REMARK    3  A    between atoms: O2_25  and  C20_26 
REMARK    4  A    between atoms: C21_28  and  C22_29 
REMARK    5  A    between atoms: C22_29  and  O4_30 
REMARK    6  A    between atoms: C23_32  and  O5_33 
REMARK    7  A    between atoms: C24_35  and  O6_36 
REMARK    8  A    between atoms: C25_38  and  O7_39 
ROOT
HETATM    1  C1  UNL     1      20.301  37.330  50.943  1.00  0.00     0.309 C 
HETATM    2  N1  UNL     1      20.399  37.150  49.517  1.00  0.00     0.085 N 
HETATM    3  C2  UNL     1      21.739  37.516  49.108  1.00  0.00     0.272 C 
HETATM    4  C3  UNL     1      21.780  38.014  47.681  1.00  0.00     0.030 C 
HETATM    5  C4  UNL     1      22.249  36.918  46.778  1.00  0.00     0.002 C 
HETATM    6  C5  UNL     1      23.449  37.271  45.961  1.00  0.00     0.012 C 
HETATM    7  C6  UNL     1      23.087  37.437  44.498  1.00  0.00     0.094 C 
HETATM    8  C7  UNL     1      22.632  36.271  43.867  1.00  0.00    -0.102 C 
HETATM    9  C8  UNL     1      22.264  35.332  43.384  1.00  0.00    -0.079 C 
HETATM   10  C9  UNL     1      21.802  34.157  42.810  1.00  0.00     0.062 C 
HETATM   11  C10 UNL     1      21.427  33.063  43.455  1.00  0.00     0.001 C 
HETATM   12  C11 UNL     1      21.437  32.904  44.909  1.00  0.00     0.142 C 
HETATM   13  N2  UNL     1      20.527  33.730  45.622  1.00  0.00    -0.418 N 
ATOM     14  H2  UNL     1      20.848  34.409  46.312  1.00  0.00     0.153 HD
HETATM   15  C12 UNL     1      19.151  33.562  45.326  1.00  0.00     0.114 C 
HETATM   16  C13 UNL     1      18.319  34.797  45.559  1.00  0.00     0.024 C 
HETATM   17  C14 UNL     1      17.087  34.542  46.383  1.00  0.00     0.046 C 
HETATM   18  C15 UNL     1      17.446  34.301  47.841  1.00  0.00     0.061 C 
HETATM   19  N3  UNL     1      17.771  35.431  48.587  1.00  0.00    -0.364 N 
HETATM   20  C26 UNL     1      18.835  35.246  49.555  1.00  0.00     0.154 C 
HETATM   21  C27 UNL     1      20.154  35.777  49.103  1.00  0.00     0.291 C 
ENDROOT
BRANCH  19  22
HETATM   22  C16 UNL     1      16.962  36.521  48.767  1.00  0.00     0.251 C 
HETATM   23  O1  UNL     1      15.598  36.393  48.503  1.00  0.00    -0.364 OA
HETATM   24  C17 UNL     1      15.194  37.728  48.507  1.00  0.00     0.173 C 
HETATM   25  C18 UNL     1      16.047  38.457  49.537  1.00  0.00     0.063 C 
HETATM   26  C19 UNL     1      16.927  37.284  50.041  1.00  0.00     0.175 C 
BRANCH  26  27
HETATM   27  O2  UNL     1      16.232  36.774  51.087  1.00  0.00    -0.349 OA
BRANCH  27  28
HETATM   28  C20 UNL     1      16.831  36.877  52.321  1.00  0.00     0.292 C 
HETATM   29  O3  UNL     1      16.824  35.671  52.955  1.00  0.00    -0.348 OA
HETATM   30  C21 UNL     1      16.038  35.522  54.056  1.00  0.00     0.179 C 
HETATM   31  C23 UNL     1      16.109  36.600  55.085  1.00  0.00     0.180 C 
HETATM   32  C24 UNL     1      16.871  37.784  54.566  1.00  0.00     0.183 C 
HETATM   33  C25 UNL     1      16.336  38.034  53.147  1.00  0.00     0.204 C 
BRANCH  30  34
HETATM   34  C22 UNL     1      14.580  35.228  53.751  1.00  0.00     0.198 C 
BRANCH  34  35
HETATM   35  O4  UNL     1      14.033  34.344  54.680  1.00  0.00    -0.398 OA
ATOM     36  H4  UNL     1      14.475  34.404  55.518  1.00  0.00     0.209 HD
ENDBRANCH  34  35
ENDBRANCH  30  34
BRANCH  31  37
HETATM   37  O5  UNL     1      14.817  37.071  55.415  1.00  0.00    -0.390 OA
ATOM     38  H5  UNL     1      14.833  38.001  55.607  1.00  0.00     0.210 HD
ENDBRANCH  31  37
BRANCH  32  39
HETATM   39  O6  UNL     1      16.576  38.892  55.320  1.00  0.00    -0.390 OA
ATOM     40  H6  UNL     1      16.909  38.780  56.202  1.00  0.00     0.210 HD
ENDBRANCH  32  39
BRANCH  33  41
HETATM   41  O7  UNL     1      16.916  39.251  52.763  1.00  0.00    -0.388 OA
ATOM     42  H7  UNL     1      17.043  39.311  51.824  1.00  0.00     0.210 HD
ENDBRANCH  33  41
ENDBRANCH  27  28
ENDBRANCH  26  27
ENDBRANCH  19  22
TORSDOF 8
ENDMDL
MODEL 3
REMARK VINA RESULT: -8.425573013      2.877      5.052
REMARK  8 active torsions:
REMARK  status: ('A' for Active; 'I' for Inactive)
REMARK    1  A    between atoms: N3_19  and  C16_20 
REMARK    2  A    between atoms: C19_24  and  O2_25 
REMARK    3  A    between atoms: O2_25  and  C20_26 
REMARK    4  A    between atoms: C21_28  and  C22_29 
REMARK    5  A    between atoms: C22_29  and  O4_30 
REMARK    6  A    between atoms: C23_32  and  O5_33 
REMARK    7  A    between atoms: C24_35  and  O6_36 
REMARK    8  A    between atoms: C25_38  and  O7_39 
ROOT
HETATM    1  C1  UNL     1      20.380  37.143  50.922  1.00  0.00     0.309 C 
HETATM    2  N1  UNL     1      20.447  37.002  49.489  1.00  0.00     0.085 N 
HETATM    3  C2  UNL     1      21.754  37.446  49.053  1.00  0.00     0.272 C 
HETATM    4  C3  UNL     1      21.729  37.978  47.639  1.00  0.00     0.030 C 
HETATM    5  C4  UNL     1      22.228  36.929  46.696  1.00  0.00     0.002 C 
HETATM    6  C5  UNL     1      23.384  37.364  45.856  1.00  0.00     0.012 C 
HETATM    7  C6  UNL     1      22.973  37.544  44.408  1.00  0.00     0.094 C 
HETATM    8  C7  UNL     1      22.561  36.371  43.761  1.00  0.00    -0.102 C 
HETATM    9  C8  UNL     1      22.228  35.425  43.265  1.00  0.00    -0.079 C 
HETATM   10  C9  UNL     1      21.812  34.241  42.676  1.00  0.00     0.062 C 
HETATM   11  C10 UNL     1      21.512  33.115  43.304  1.00  0.00     0.001 C 
HETATM   12  C11 UNL     1      21.572  32.923  44.752  1.00  0.00     0.142 C 
HETATM   13  N2  UNL     1      20.641  33.684  45.510  1.00  0.00    -0.418 N 
ATOM     14  H2  UNL     1      20.946  34.363  46.207  1.00  0.00     0.153 HD
HETATM   15  C12 UNL     1      19.267  33.450  45.247  1.00  0.00     0.114 C 
HETATM   16  C13 UNL     1      18.380  34.634  45.533  1.00  0.00     0.024 C 
HETATM   17  C14 UNL     1      17.186  34.297  46.383  1.00  0.00     0.046 C 
HETATM   18  C15 UNL     1      17.599  34.041  47.825  1.00  0.00     0.061 C 
HETATM   19  N3  UNL     1      17.886  35.169  48.590  1.00  0.00    -0.364 N 
HETATM   20  C26 UNL     1      18.985  35.018  49.524  1.00  0.00     0.154 C 
HETATM   21  C27 UNL     1      20.261  35.628  49.049  1.00  0.00     0.291 C 
ENDROOT
BRANCH  19  22
HETATM   22  C16 UNL     1      17.027  36.210  48.818  1.00  0.00     0.251 C 
HETATM   23  O1  UNL     1      15.686  36.063  48.463  1.00  0.00    -0.364 OA
HETATM   24  C17 UNL     1      15.231  37.377  48.564  1.00  0.00     0.173 C 
HETATM   25  C18 UNL     1      15.998  38.038  49.703  1.00  0.00     0.063 C 
HETATM   26  C19 UNL     1      16.892  36.852  50.151  1.00  0.00     0.175 C 
BRANCH  26  27
HETATM   27  O2  UNL     1      16.160  36.227  51.104  1.00  0.00    -0.349 OA
BRANCH  27  28
HETATM   28  C20 UNL     1      16.750  36.108  52.341  1.00  0.00     0.292 C 
HETATM   29  O3  UNL     1      17.696  35.128  52.325  1.00  0.00    -0.348 OA
HETATM   30  C21 UNL     1      17.463  33.990  53.033  1.00  0.00     0.179 C 
HETATM   31  C23 UNL     1      16.973  34.155  54.432  1.00  0.00     0.180 C 
HETATM   32  C24 UNL     1      16.593  35.581  54.700  1.00  0.00     0.183 C 
HETATM   33  C25 UNL     1      15.770  36.029  53.482  1.00  0.00     0.204 C 
BRANCH  30  34
HETATM   34  C22 UNL     1      16.583  32.977  52.320  1.00  0.00     0.198 C 
BRANCH  34  35
HETATM   35  O4  UNL     1      16.912  31.672  52.682  1.00  0.00    -0.398 OA
ATOM     36  H4  UNL     1      16.864  31.082  51.939  1.00  0.00     0.209 HD
ENDBRANCH  34  35
ENDBRANCH  30  34
BRANCH  31  37
HETATM   37  O5  UNL     1      15.809  33.383  54.656  1.00  0.00    -0.390 OA
ATOM     38  H5  UNL     1      16.009  32.455  54.644  1.00  0.00     0.210 HD
ENDBRANCH  31  37
BRANCH  32  39
HETATM   39  O6  UNL     1      15.773  35.644  55.798  1.00  0.00    -0.390 OA
ATOM     40  H6  UNL     1      15.556  36.550  55.986  1.00  0.00     0.210 HD
ENDBRANCH  32  39
BRANCH  33  41
HETATM   41  O7  UNL     1      15.266  37.286  53.842  1.00  0.00    -0.388 OA
ATOM     42  H7  UNL     1      14.338  37.370  53.660  1.00  0.00     0.210 HD
ENDBRANCH  33  41
ENDBRANCH  27  28
ENDBRANCH  26  27
ENDBRANCH  19  22
TORSDOF 8
ENDMDL
MODEL 4
REMARK VINA RESULT: -8.349375503      4.984     10.103
REMARK  8 active torsions:
REMARK  status: ('A' for Active; 'I' for Inactive)
REMARK    1  A    between atoms: N3_19  and  C16_20 
REMARK    2  A    between atoms: C19_24  and  O2_25 
REMARK    3  A    between atoms: O2_25  and  C20_26 
REMARK    4  A    between atoms: C21_28  and  C22_29 
REMARK    5  A    between atoms: C22_29  and  O4_30 
REMARK    6  A    between atoms: C23_32  and  O5_33 
REMARK    7  A    between atoms: C24_35  and  O6_36 
REMARK    8  A    between atoms: C25_38  and  O7_39 
ROOT
HETATM    1  C1  UNL     1      22.957  37.269  44.853  1.00  0.00     0.309 C 
HETATM    2  N1  UNL     1      22.109  36.997  45.985  1.00  0.00     0.085 N 
HETATM    3  C2  UNL     1      22.437  37.944  47.030  1.00  0.00     0.272 C 
HETATM    4  C3  UNL     1      22.156  37.388  48.408  1.00  0.00     0.030 C 
HETATM    5  C4  UNL     1      20.850  37.917  48.909  1.00  0.00     0.002 C 
HETATM    6  C5  UNL     1      20.941  38.624  50.222  1.00  0.00     0.012 C 
HETATM    7  C6  UNL     1      20.293  37.812  51.327  1.00  0.00     0.094 C 
HETATM    8  C7  UNL     1      18.911  37.623  51.187  1.00  0.00    -0.102 C 
HETATM    9  C8  UNL     1      17.811  37.477  51.054  1.00  0.00    -0.079 C 
HETATM   10  C9  UNL     1      16.448  37.301  50.861  1.00  0.00     0.062 C 
HETATM   11  C10 UNL     1      15.777  37.535  49.744  1.00  0.00     0.001 C 
HETATM   12  C11 UNL     1      16.368  38.028  48.501  1.00  0.00     0.142 C 
HETATM   13  N2  UNL     1      17.277  37.142  47.861  1.00  0.00    -0.418 N 
ATOM     14  H2  UNL     1      18.252  37.397  47.703  1.00  0.00     0.153 HD
HETATM   15  C12 UNL     1      16.760  35.887  47.453  1.00  0.00     0.114 C 
HETATM   16  C13 UNL     1      17.790  34.789  47.400  1.00  0.00     0.024 C 
HETATM   17  C14 UNL     1      17.782  34.022  46.106  1.00  0.00     0.046 C 
HETATM   18  C15 UNL     1      18.363  34.856  44.974  1.00  0.00     0.061 C 
HETATM   19  N3  UNL     1      19.750  34.975  44.951  1.00  0.00    -0.364 N 
HETATM   20  C26 UNL     1      20.250  36.273  44.539  1.00  0.00     0.154 C 
HETATM   21  C27 UNL     1      20.694  37.131  45.676  1.00  0.00     0.291 C 
ENDROOT
BRANCH  19  22
HETATM   22  C16 UNL     1      20.634  33.931  44.893  1.00  0.00     0.251 C 
HETATM   23  O1  UNL     1      20.159  32.671  44.531  1.00  0.00    -0.364 OA
HETATM   24  C17 UNL     1      21.243  31.863  44.871  1.00  0.00     0.173 C 
HETATM   25  C18 UNL     1      22.509  32.671  44.618  1.00  0.00     0.063 C 
HETATM   26  C19 UNL     1      21.888  33.994  44.098  1.00  0.00     0.175 C 
BRANCH  26  27
HETATM   27  O2  UNL     1      21.817  33.822  42.756  1.00  0.00    -0.349 OA
BRANCH  27  28
HETATM   28  C20 UNL     1      22.480  34.752  41.990  1.00  0.00     0.292 C 
HETATM   29  O3  UNL     1      21.592  35.550  41.334  1.00  0.00    -0.348 OA
HETATM   30  C21 UNL     1      21.498  35.441  39.982  1.00  0.00     0.179 C 
HETATM   31  C23 UNL     1      22.778  35.427  39.216  1.00  0.00     0.180 C 
HETATM   32  C24 UNL     1      23.951  35.285  40.141  1.00  0.00     0.183 C 
HETATM   33  C25 UNL     1      23.570  34.171  41.129  1.00  0.00     0.204 C 
BRANCH  30  34
HETATM   34  C22 UNL     1      20.626  34.293  39.503  1.00  0.00     0.198 C 
BRANCH  34  35
HETATM   35  O4  UNL     1      19.896  34.645  38.369  1.00  0.00    -0.398 OA
ATOM     36  H4  UNL     1      20.468  34.868  37.644  1.00  0.00     0.209 HD
ENDBRANCH  34  35
ENDBRANCH  30  34
BRANCH  31  37
HETATM   37  O5  UNL     1      22.829  34.323  38.335  1.00  0.00    -0.390 OA
ATOM     38  H5  UNL     1      23.611  33.804  38.484  1.00  0.00     0.210 HD
ENDBRANCH  31  37
BRANCH  32  39
HETATM   39  O6  UNL     1      25.048  34.855  39.437  1.00  0.00    -0.390 OA
ATOM     40  H6  UNL     1      25.569  34.272  39.977  1.00  0.00     0.210 HD
ENDBRANCH  32  39
BRANCH  33  41
HETATM   41  O7  UNL     1      24.747  33.924  41.850  1.00  0.00    -0.388 OA
ATOM     42  H7  UNL     1      24.833  33.012  42.101  1.00  0.00     0.210 HD
ENDBRANCH  33  41
ENDBRANCH  27  28
ENDBRANCH  26  27
ENDBRANCH  19  22
TORSDOF 8
ENDMDL
MODEL 5
REMARK VINA RESULT: -8.306078202      1.119      1.234
REMARK  8 active torsions:
REMARK  status: ('A' for Active; 'I' for Inactive)
REMARK    1  A    between atoms: N3_19  and  C16_20 
REMARK    2  A    between atoms: C19_24  and  O2_25 
REMARK    3  A    between atoms: O2_25  and  C20_26 
REMARK    4  A    between atoms: C21_28  and  C22_29 
REMARK    5  A    between atoms: C22_29  and  O4_30 
REMARK    6  A    between atoms: C23_32  and  O5_33 
REMARK    7  A    between atoms: C24_35  and  O6_36 
REMARK    8  A    between atoms: C25_38  and  O7_39 
ROOT
HETATM    1  C1  UNL     1      15.043  34.845  48.546  1.00  0.00     0.309 C 
HETATM    2  N1  UNL     1      16.414  34.648  48.148  1.00  0.00     0.085 N 
HETATM    3  C2  UNL     1      16.424  33.811  46.967  1.00  0.00     0.272 C 
HETATM    4  C3  UNL     1      17.698  33.005  46.855  1.00  0.00     0.030 C 
HETATM    5  C4  UNL     1      18.631  33.666  45.890  1.00  0.00     0.002 C 
HETATM    6  C5  UNL     1      19.066  32.787  44.763  1.00  0.00     0.012 C 
HETATM    7  C6  UNL     1      20.526  32.401  44.903  1.00  0.00     0.094 C 
HETATM    8  C7  UNL     1      21.430  33.468  44.813  1.00  0.00    -0.102 C 
HETATM    9  C8  UNL     1      22.134  34.334  44.747  1.00  0.00    -0.079 C 
HETATM   10  C9  UNL     1      22.987  35.426  44.670  1.00  0.00     0.062 C 
HETATM   11  C10 UNL     1      22.638  36.700  44.750  1.00  0.00     0.001 C 
HETATM   12  C11 UNL     1      21.271  37.184  44.936  1.00  0.00     0.142 C 
HETATM   13  N2  UNL     1      20.671  36.861  46.183  1.00  0.00    -0.418 N 
ATOM     14  H2  UNL     1      19.823  36.298  46.239  1.00  0.00     0.153 HD
HETATM   15  C12 UNL     1      21.311  37.362  47.344  1.00  0.00     0.114 C 
HETATM   16  C13 UNL     1      21.085  36.526  48.577  1.00  0.00     0.024 C 
HETATM   17  C14 UNL     1      20.634  37.325  49.769  1.00  0.00     0.046 C 
HETATM   18  C15 UNL     1      19.191  37.781  49.604  1.00  0.00     0.061 C 
HETATM   19  N3  UNL     1      18.214  36.812  49.823  1.00  0.00    -0.364 N 
HETATM   20  C26 UNL     1      17.063  36.889  48.943  1.00  0.00     0.154 C 
HETATM   21  C27 UNL     1      17.094  35.894  47.831  1.00  0.00     0.291 C 
ENDROOT
BRANCH  19  22
HETATM   22  C16 UNL     1      18.057  36.091  50.975  1.00  0.00     0.251 C 
HETATM   23  O1  UNL     1      19.043  35.169  51.328  1.00  0.00    -0.364 OA
HETATM   24  C17 UNL     1      18.401  34.459  52.342  1.00  0.00     0.173 C 
HETATM   25  C18 UNL     1      17.501  35.438  53.084  1.00  0.00     0.063 C 
HETATM   26  C19 UNL     1      17.799  36.736  52.288  1.00  0.00     0.175 C 
BRANCH  26  27
HETATM   27  O2  UNL     1      18.836  37.301  52.951  1.00  0.00    -0.349 OA
BRANCH  27  28
HETATM   28  C20 UNL     1      18.520  38.328  53.810  1.00  0.00     0.292 C 
HETATM   29  O3  UNL     1      18.720  39.533  53.206  1.00  0.00    -0.348 OA
HETATM   30  C21 UNL     1      19.735  40.321  53.653  1.00  0.00     0.179 C 
HETATM   31  C23 UNL     1      19.844  40.506  55.129  1.00  0.00     0.180 C 
HETATM   32  C24 UNL     1      18.935  39.559  55.855  1.00  0.00     0.183 C 
HETATM   33  C25 UNL     1      19.132  38.193  55.179  1.00  0.00     0.204 C 
BRANCH  30  34
HETATM   34  C22 UNL     1      21.102  39.958  53.099  1.00  0.00     0.198 C 
BRANCH  34  35
HETATM   35  O4  UNL     1      21.170  40.177  51.724  1.00  0.00    -0.398 OA
ATOM     36  H4  UNL     1      22.068  40.182  51.417  1.00  0.00     0.209 HD
ENDBRANCH  34  35
ENDBRANCH  30  34
BRANCH  31  37
HETATM   37  O5  UNL     1      21.155  40.224  55.579  1.00  0.00    -0.390 OA
ATOM     38  H5  UNL     1      21.177  40.125  56.523  1.00  0.00     0.210 HD
ENDBRANCH  31  37
BRANCH  32  39
HETATM   39  O6  UNL     1      19.339  39.436  57.160  1.00  0.00    -0.390 OA
ATOM     40  H6  UNL     1      19.818  38.623  57.274  1.00  0.00     0.210 HD
ENDBRANCH  32  39
BRANCH  33  41
HETATM   41  O7  UNL     1      18.428  37.294  55.993  1.00  0.00    -0.388 OA
ATOM     42  H7  UNL     1      17.524  37.554  56.123  1.00  0.00     0.210 HD
ENDBRANCH  33  41
ENDBRANCH  27  28
ENDBRANCH  26  27
ENDBRANCH  19  22
TORSDOF 8
ENDMDL
