MODEL 1
REMARK VINA RESULT: -10.336059280      0.000      0.000
REMARK  5 active torsions:
REMARK  status: ('A' for Active; 'I' for Inactive)
REMARK    1  A    between atoms: C4_4  and  N1_5 
REMARK    2  A    between atoms: C10_13  and  N3_14 
REMARK    3  A    between atoms: C15_23  and  C16_24 
REMARK    4  A    between atoms: C16_24  and  N7_30 
REMARK    5  A    between atoms: N5_25  and  N6_27 
ROOT
HETATM    1  C16 UNL     1      19.872  36.843  46.997  1.00  0.00     0.128 C 
HETATM    2  N5  UNL     1      18.969  37.643  46.568  1.00  0.00    -0.291 N 
ATOM      3  H5  UNL     1      19.285  38.612  46.537  1.00  0.00     0.188 HD
ENDROOT
BRANCH   1   4
HETATM    4  C15 UNL     1      21.143  37.418  47.355  1.00  0.00     0.015 A 
HETATM    5  C2  UNL     1      21.387  37.905  48.618  1.00  0.00    -0.046 A 
HETATM    6  C1  UNL     1      20.368  37.906  49.697  1.00  0.00     0.049 C 
HETATM    7  C3  UNL     1      22.667  38.431  48.847  1.00  0.00     0.039 A 
HETATM    8  C4  UNL     1      23.644  38.472  47.879  1.00  0.00     0.058 A 
HETATM    9  C13 UNL     1      23.339  37.970  46.634  1.00  0.00     0.032 A 
HETATM   10  C14 UNL     1      22.110  37.441  46.341  1.00  0.00     0.018 A 
BRANCH   8  11
HETATM   11  N1  UNL     1      24.938  39.022  48.134  1.00  0.00    -0.250 N 
HETATM   12  C5  UNL     1      25.482  39.228  49.344  1.00  0.00     0.208 A 
HETATM   13  N2  UNL     1      26.707  39.755  49.183  1.00  0.00    -0.335 N 
HETATM   14  C6  UNL     1      26.953  39.889  47.854  1.00  0.00     0.131 A 
ATOM     15  H2  UNL     1      27.347  40.011  49.935  1.00  0.00     0.168 HD
HETATM   16  C7  UNL     1      28.157  40.414  47.248  1.00  0.00     0.009 A 
HETATM   17  N4  UNL     1      25.836  39.425  47.249  1.00  0.00    -0.277 N 
HETATM   18  C8  UNL     1      28.249  40.488  45.883  1.00  0.00     0.018 A 
HETATM   19  C12 UNL     1      29.194  40.828  48.043  1.00  0.00     0.018 A 
HETATM   20  C9  UNL     1      29.411  40.990  45.306  1.00  0.00     0.037 A 
HETATM   21  C10 UNL     1      30.463  41.410  46.086  1.00  0.00     0.102 A 
HETATM   22  C11 UNL     1      30.361  41.332  47.455  1.00  0.00     0.037 A 
ATOM     23  H4  UNL     1      25.703  39.391  46.238  1.00  0.00     0.189 HD
BRANCH  21  24
HETATM   24  N3  UNL     1      31.648  41.920  45.500  1.00  0.00    -0.116 N 
HETATM   25  O1  UNL     1      32.180  41.389  44.517  1.00  0.00    -0.532 OA
HETATM   26  O2  UNL     1      32.233  43.042  46.031  1.00  0.00    -0.532 OA
ENDBRANCH  21  24
ENDBRANCH   8  11
ENDBRANCH   1   4
BRANCH   1  27
HETATM   27  N7  UNL     1      19.513  35.494  47.011  1.00  0.00    -0.362 N 
HETATM   28  C17 UNL     1      19.857  34.667  45.884  1.00  0.00     0.152 C 
HETATM   29  C18 UNL     1      20.335  33.298  46.184  1.00  0.00     0.252 C 
HETATM   30  N8  UNL     1      20.437  32.482  44.992  1.00  0.00    -0.072 N 
HETATM   31  C19 UNL     1      19.275  31.681  44.728  1.00  0.00     0.259 C 
ATOM     32  H82 UNL     1      20.664  33.059  44.182  1.00  0.00     0.277 HD
ATOM     33  H81 UNL     1      21.272  31.897  45.029  1.00  0.00     0.277 HD
HETATM   34  C20 UNL     1      19.391  30.348  45.431  1.00  0.00     0.259 C 
HETATM   35  N9  UNL     1      18.226  30.117  46.247  1.00  0.00    -0.072 N 
HETATM   36  C21 UNL     1      17.025  30.028  45.436  1.00  0.00     0.259 C 
ATOM     37  H92 UNL     1      18.341  29.295  46.840  1.00  0.00     0.277 HD
ATOM     38  H91 UNL     1      18.133  30.823  46.978  1.00  0.00     0.277 HD
HETATM   39  C22 UNL     1      15.818  30.574  46.166  1.00  0.00     0.259 C 
HETATM   40  N10 UNL     1      16.231  30.942  47.505  1.00  0.00    -0.072 N 
HETATM   41  C23 UNL     1      15.302  31.842  48.146  1.00  0.00     0.259 C 
ATOM     42 2H10 UNL     1      16.393  30.114  48.078  1.00  0.00     0.277 HD
ATOM     43 1H10 UNL     1      17.175  31.329  47.503  1.00  0.00     0.277 HD
HETATM   44  C24 UNL     1      15.982  32.864  49.025  1.00  0.00     0.259 C 
HETATM   45  N11 UNL     1      17.356  33.088  48.690  1.00  0.00    -0.072 N 
HETATM   46  C25 UNL     1      17.532  34.193  47.733  1.00  0.00     0.252 C 
ATOM     47 2H11 UNL     1      17.918  33.236  49.528  1.00  0.00     0.277 HD
ATOM     48 1H11 UNL     1      17.794  32.233  48.347  1.00  0.00     0.277 HD
HETATM   49  C26 UNL     1      18.795  34.898  48.101  1.00  0.00     0.152 C 
ENDBRANCH   1  27
BRANCH   2  50
HETATM   50  N6  UNL     1      17.707  37.502  46.152  1.00  0.00    -0.344 N 
ATOM     51  H62 UNL     1      17.050  37.571  46.930  1.00  0.00     0.176 HD
ATOM     52  H61 UNL     1      17.262  37.343  45.248  1.00  0.00     0.176 HD
ENDBRANCH   2  50
TORSDOF 5
ENDMDL
MODEL 2
REMARK VINA RESULT: -10.256542975      5.159      6.953
REMARK  5 active torsions:
REMARK  status: ('A' for Active; 'I' for Inactive)
REMARK    1  A    between atoms: C4_4  and  N1_5 
REMARK    2  A    between atoms: C10_13  and  N3_14 
REMARK    3  A    between atoms: C15_23  and  C16_24 
REMARK    4  A    between atoms: C16_24  and  N7_30 
REMARK    5  A    between atoms: N5_25  and  N6_27 
ROOT
HETATM    1  C16 UNL     1      18.656  38.053  50.840  1.00  0.00     0.128 C 
HETATM    2  N5  UNL     1      18.458  39.216  51.337  1.00  0.00    -0.291 N 
ATOM      3  H5  UNL     1      19.063  39.927  50.926  1.00  0.00     0.188 HD
ENDROOT
BRANCH   1   4
HETATM    4  C15 UNL     1      19.666  37.938  49.819  1.00  0.00     0.015 A 
HETATM    5  C2  UNL     1      20.978  38.268  50.058  1.00  0.00    -0.046 A 
HETATM    6  C1  UNL     1      21.458  38.790  51.362  1.00  0.00     0.049 C 
HETATM    7  C3  UNL     1      21.868  38.103  48.986  1.00  0.00     0.039 A 
HETATM    8  C4  UNL     1      21.476  37.640  47.752  1.00  0.00     0.058 A 
HETATM    9  C13 UNL     1      20.147  37.327  47.573  1.00  0.00     0.032 A 
HETATM   10  C14 UNL     1      19.224  37.463  48.577  1.00  0.00     0.018 A 
BRANCH   8  11
HETATM   11  N1  UNL     1      22.399  37.489  46.672  1.00  0.00    -0.250 N 
HETATM   12  C5  UNL     1      23.693  37.847  46.687  1.00  0.00     0.208 A 
HETATM   13  N2  UNL     1      24.238  37.549  45.496  1.00  0.00    -0.335 N 
HETATM   14  C6  UNL     1      23.283  36.993  44.706  1.00  0.00     0.131 A 
ATOM     15  H2  UNL     1      25.209  37.713  45.229  1.00  0.00     0.168 HD
HETATM   16  C7  UNL     1      23.451  36.526  43.347  1.00  0.00     0.009 A 
HETATM   17  N4  UNL     1      22.169  36.977  45.474  1.00  0.00    -0.277 N 
HETATM   18  C8  UNL     1      22.380  35.989  42.681  1.00  0.00     0.018 A 
HETATM   19  C12 UNL     1      24.677  36.621  42.742  1.00  0.00     0.018 A 
HETATM   20  C9  UNL     1      22.550  35.538  41.376  1.00  0.00     0.037 A 
HETATM   21  C10 UNL     1      23.771  35.624  40.751  1.00  0.00     0.102 A 
HETATM   22  C11 UNL     1      24.839  36.165  41.428  1.00  0.00     0.037 A 
ATOM     23  H4  UNL     1      21.265  36.616  45.167  1.00  0.00     0.189 HD
BRANCH  21  24
HETATM   24  N3  UNL     1      23.945  35.164  39.422  1.00  0.00    -0.116 N 
HETATM   25  O1  UNL     1      23.317  35.646  38.470  1.00  0.00    -0.532 OA
HETATM   26  O2  UNL     1      24.837  34.152  39.170  1.00  0.00    -0.532 OA
ENDBRANCH  21  24
ENDBRANCH   8  11
ENDBRANCH   1   4
BRANCH   1  27
HETATM   27  N7  UNL     1      17.819  37.048  51.327  1.00  0.00    -0.362 N 
HETATM   28  C17 UNL     1      18.140  36.414  52.579  1.00  0.00     0.152 C 
HETATM   29  C18 UNL     1      17.009  36.127  53.489  1.00  0.00     0.252 C 
HETATM   30  N8  UNL     1      17.404  35.295  54.607  1.00  0.00    -0.072 N 
HETATM   31  C19 UNL     1      17.187  33.892  54.400  1.00  0.00     0.259 C 
ATOM     32  H82 UNL     1      18.377  35.473  54.857  1.00  0.00     0.277 HD
ATOM     33  H81 UNL     1      16.945  35.605  55.463  1.00  0.00     0.277 HD
HETATM   34  C20 UNL     1      15.794  33.509  54.845  1.00  0.00     0.259 C 
HETATM   35  N9  UNL     1      15.103  32.832  53.777  1.00  0.00    -0.072 N 
HETATM   36  C21 UNL     1      15.761  31.583  53.436  1.00  0.00     0.259 C 
ATOM     37  H92 UNL     1      14.118  32.689  53.999  1.00  0.00     0.277 HD
ATOM     38  H91 UNL     1      14.993  33.432  52.960  1.00  0.00     0.277 HD
HETATM   39  C22 UNL     1      15.631  31.270  51.961  1.00  0.00     0.259 C 
HETATM   40  N10 UNL     1      14.801  32.290  51.357  1.00  0.00    -0.072 N 
HETATM   41  C23 UNL     1      14.943  32.345  49.921  1.00  0.00     0.259 C 
ATOM     42 2H10 UNL     1      13.824  32.173  51.624  1.00  0.00     0.277 HD
ATOM     43 1H10 UNL     1      14.978  33.203  51.777  1.00  0.00     0.277 HD
HETATM   44  C24 UNL     1      14.861  33.750  49.373  1.00  0.00     0.259 C 
HETATM   45  N11 UNL     1      15.161  34.763  50.339  1.00  0.00    -0.072 N 
HETATM   46  C25 UNL     1      16.584  35.138  50.343  1.00  0.00     0.252 C 
ATOM     47 2H11 UNL     1      14.566  35.581  50.208  1.00  0.00     0.277 HD
ATOM     48 1H11 UNL     1      14.853  34.483  51.271  1.00  0.00     0.277 HD
HETATM   49  C26 UNL     1      16.654  36.604  50.616  1.00  0.00     0.152 C 
ENDBRANCH   1  27
BRANCH   2  50
HETATM   50  N6  UNL     1      17.641  39.715  52.270  1.00  0.00    -0.344 N 
ATOM     51  H62 UNL     1      16.970  40.368  51.864  1.00  0.00     0.176 HD
ATOM     52  H61 UNL     1      17.541  39.590  53.278  1.00  0.00     0.176 HD
ENDBRANCH   2  50
TORSDOF 5
ENDMDL
MODEL 3
REMARK VINA RESULT: -10.178262594      4.835      6.537
REMARK  5 active torsions:
REMARK  status: ('A' for Active; 'I' for Inactive)
REMARK    1  A    between atoms: C4_4  and  N1_5 
REMARK    2  A    between atoms: C10_13  and  N3_14 
REMARK    3  A    between atoms: C15_23  and  C16_24 
REMARK    4  A    between atoms: C16_24  and  N7_30 
REMARK    5  A    between atoms: N5_25  and  N6_27 
ROOT
HETATM    1  C16 UNL     1      19.542  37.841  50.007  1.00  0.00     0.128 C 
HETATM    2  N5  UNL     1      18.414  37.930  50.605  1.00  0.00    -0.291 N 
ATOM      3  H5  UNL     1      18.432  38.594  51.379  1.00  0.00     0.188 HD
ENDROOT
BRANCH   1   4
HETATM    4  C15 UNL     1      20.618  38.659  50.505  1.00  0.00     0.015 A 
HETATM    5  C2  UNL     1      20.499  39.380  51.669  1.00  0.00    -0.046 A 
HETATM    6  C1  UNL     1      19.261  39.400  52.488  1.00  0.00     0.049 C 
HETATM    7  C3  UNL     1      21.619  40.132  52.055  1.00  0.00     0.039 A 
HETATM    8  C4  UNL     1      22.785  40.165  51.326  1.00  0.00     0.058 A 
HETATM    9  C13 UNL     1      22.843  39.421  50.168  1.00  0.00     0.032 A 
HETATM   10  C14 UNL     1      21.787  38.665  49.733  1.00  0.00     0.018 A 
BRANCH   8  11
HETATM   11  N1  UNL     1      23.910  40.945  51.734  1.00  0.00    -0.250 N 
HETATM   12  C5  UNL     1      24.699  41.673  50.926  1.00  0.00     0.208 A 
HETATM   13  N2  UNL     1      25.647  42.268  51.669  1.00  0.00    -0.335 N 
HETATM   14  C6  UNL     1      25.466  41.919  52.968  1.00  0.00     0.131 A 
ATOM     15  H2  UNL     1      26.381  42.881  51.314  1.00  0.00     0.168 HD
HETATM   16  C7  UNL     1      26.267  42.343  54.096  1.00  0.00     0.009 A 
HETATM   17  N4  UNL     1      24.385  41.104  52.959  1.00  0.00    -0.277 N 
HETATM   18  C8  UNL     1      25.953  41.896  55.353  1.00  0.00     0.018 A 
HETATM   19  C12 UNL     1      27.326  43.189  53.897  1.00  0.00     0.018 A 
HETATM   20  C9  UNL     1      26.726  42.312  56.433  1.00  0.00     0.037 A 
HETATM   21  C10 UNL     1      27.792  43.161  56.256  1.00  0.00     0.102 A 
HETATM   22  C11 UNL     1      28.098  43.603  54.990  1.00  0.00     0.037 A 
ATOM     23  H4  UNL     1      23.988  40.668  53.791  1.00  0.00     0.189 HD
BRANCH  21  24
HETATM   24  N3  UNL     1      28.578  43.585  57.355  1.00  0.00    -0.116 N 
HETATM   25  O1  UNL     1      29.211  44.649  57.342  1.00  0.00    -0.532 OA
HETATM   26  O2  UNL     1      28.648  42.799  58.477  1.00  0.00    -0.532 OA
ENDBRANCH  21  24
ENDBRANCH   8  11
ENDBRANCH   1   4
BRANCH   1  27
HETATM   27  N7  UNL     1      19.563  36.986  48.904  1.00  0.00    -0.362 N 
HETATM   28  C17 UNL     1      19.786  35.579  49.112  1.00  0.00     0.152 C 
HETATM   29  C18 UNL     1      18.975  34.649  48.295  1.00  0.00     0.252 C 
HETATM   30  N8  UNL     1      19.429  33.278  48.415  1.00  0.00    -0.072 N 
HETATM   31  C19 UNL     1      20.352  32.874  47.393  1.00  0.00     0.259 C 
ATOM     32  H82 UNL     1      19.825  33.113  49.341  1.00  0.00     0.277 HD
ATOM     33  H81 UNL     1      18.634  32.640  48.450  1.00  0.00     0.277 HD
HETATM   34  C20 UNL     1      19.603  32.329  46.200  1.00  0.00     0.259 C 
HETATM   35  N9  UNL     1      20.012  33.019  45.003  1.00  0.00    -0.072 N 
HETATM   36  C21 UNL     1      21.417  32.791  44.719  1.00  0.00     0.259 C 
ATOM     37  H92 UNL     1      19.423  32.771  44.207  1.00  0.00     0.277 HD
ATOM     38  H91 UNL     1      19.797  34.015  45.051  1.00  0.00     0.277 HD
HETATM   39  C22 UNL     1      22.057  33.996  44.065  1.00  0.00     0.259 C 
HETATM   40  N10 UNL     1      21.025  34.987  43.843  1.00  0.00    -0.072 N 
HETATM   41  C23 UNL     1      21.562  36.309  43.621  1.00  0.00     0.259 C 
ATOM     42 2H10 UNL     1      20.409  34.709  43.080  1.00  0.00     0.277 HD
ATOM     43 1H10 UNL     1      20.349  34.989  44.608  1.00  0.00     0.277 HD
HETATM   44  C24 UNL     1      20.707  37.401  44.217  1.00  0.00     0.259 C 
HETATM   45  N11 UNL     1      19.851  36.950  45.274  1.00  0.00    -0.072 N 
HETATM   46  C25 UNL     1      20.473  37.085  46.601  1.00  0.00     0.252 C 
ATOM     47 2H11 UNL     1      18.949  37.423  45.242  1.00  0.00     0.277 HD
ATOM     48 1H11 UNL     1      19.541  35.992  45.110  1.00  0.00     0.277 HD
HETATM   49  C26 UNL     1      19.391  37.457  47.559  1.00  0.00     0.152 C 
ENDBRANCH   1  27
BRANCH   2  50
HETATM   50  N6  UNL     1      17.217  37.356  50.450  1.00  0.00    -0.344 N 
ATOM     51  H62 UNL     1      16.462  38.016  50.639  1.00  0.00     0.176 HD
ATOM     52  H61 UNL     1      16.896  36.423  50.190  1.00  0.00     0.176 HD
ENDBRANCH   2  50
TORSDOF 5
ENDMDL
MODEL 4
REMARK VINA RESULT: -10.170958959      5.860      7.575
REMARK  5 active torsions:
REMARK  status: ('A' for Active; 'I' for Inactive)
REMARK    1  A    between atoms: C4_4  and  N1_5 
REMARK    2  A    between atoms: C10_13  and  N3_14 
REMARK    3  A    between atoms: C15_23  and  C16_24 
REMARK    4  A    between atoms: C16_24  and  N7_30 
REMARK    5  A    between atoms: N5_25  and  N6_27 
ROOT
HETATM    1  C16 UNL     1      19.087  38.015  50.854  1.00  0.00     0.128 C 
HETATM    2  N5  UNL     1      18.596  38.080  49.673  1.00  0.00    -0.291 N 
ATOM      3  H5  UNL     1      19.163  38.648  49.043  1.00  0.00     0.188 HD
ENDROOT
BRANCH   1   4
HETATM    4  C15 UNL     1      20.315  38.729  51.096  1.00  0.00     0.015 A 
HETATM    5  C2  UNL     1      21.374  38.662  50.224  1.00  0.00    -0.046 A 
HETATM    6  C1  UNL     1      21.357  37.840  48.988  1.00  0.00     0.049 C 
HETATM    7  C3  UNL     1      22.512  39.410  50.565  1.00  0.00     0.039 A 
HETATM    8  C4  UNL     1      22.589  40.175  51.706  1.00  0.00     0.058 A 
HETATM    9  C13 UNL     1      21.494  40.200  52.541  1.00  0.00     0.032 A 
HETATM   10  C14 UNL     1      20.352  39.496  52.268  1.00  0.00     0.018 A 
BRANCH   8  11
HETATM   11  N1  UNL     1      23.762  40.921  52.038  1.00  0.00    -0.250 N 
HETATM   12  C5  UNL     1      24.557  41.565  51.169  1.00  0.00     0.208 A 
HETATM   13  N2  UNL     1      25.555  42.153  51.850  1.00  0.00    -0.335 N 
HETATM   14  C6  UNL     1      25.400  41.882  53.172  1.00  0.00     0.131 A 
ATOM     15  H2  UNL     1      26.306  42.710  51.441  1.00  0.00     0.168 HD
HETATM   16  C7  UNL     1      26.255  42.327  54.251  1.00  0.00     0.009 A 
HETATM   17  N4  UNL     1      24.282  41.122  53.238  1.00  0.00    -0.277 N 
HETATM   18  C8  UNL     1      25.961  41.963  55.539  1.00  0.00     0.018 A 
HETATM   19  C12 UNL     1      27.345  43.109  53.975  1.00  0.00     0.018 A 
HETATM   20  C9  UNL     1      26.785  42.398  56.572  1.00  0.00     0.037 A 
HETATM   21  C10 UNL     1      27.884  43.184  56.317  1.00  0.00     0.102 A 
HETATM   22  C11 UNL     1      28.170  43.543  55.021  1.00  0.00     0.037 A 
ATOM     23  H4  UNL     1      23.891  40.750  54.104  1.00  0.00     0.189 HD
BRANCH  21  24
HETATM   24  N3  UNL     1      28.724  43.627  57.369  1.00  0.00    -0.116 N 
HETATM   25  O1  UNL     1      29.407  44.655  57.278  1.00  0.00    -0.532 OA
HETATM   26  O2  UNL     1      28.789  42.902  58.531  1.00  0.00    -0.532 OA
ENDBRANCH  21  24
ENDBRANCH   8  11
ENDBRANCH   1   4
BRANCH   1  27
HETATM   27  N7  UNL     1      18.382  37.206  51.747  1.00  0.00    -0.362 N 
HETATM   28  C17 UNL     1      18.278  35.795  51.482  1.00  0.00     0.152 C 
HETATM   29  C18 UNL     1      18.409  34.889  52.645  1.00  0.00     0.252 C 
HETATM   30  N8  UNL     1      18.068  33.521  52.312  1.00  0.00    -0.072 N 
HETATM   31  C19 UNL     1      16.703  33.172  52.591  1.00  0.00     0.259 C 
ATOM     32  H82 UNL     1      18.296  33.323  51.338  1.00  0.00     0.277 HD
ATOM     33  H81 UNL     1      18.704  32.871  52.774  1.00  0.00     0.277 HD
HETATM   34  C20 UNL     1      16.574  32.666  54.009  1.00  0.00     0.259 C 
HETATM   35  N9  UNL     1      15.557  33.410  54.708  1.00  0.00    -0.072 N 
HETATM   36  C21 UNL     1      14.252  33.212  54.102  1.00  0.00     0.259 C 
ATOM     37  H92 UNL     1      15.547  33.187  55.703  1.00  0.00     0.277 HD
ATOM     38  H91 UNL     1      15.794  34.400  54.772  1.00  0.00     0.277 HD
HETATM   39  C22 UNL     1      13.392  34.452  54.215  1.00  0.00     0.259 C 
HETATM   40  N10 UNL     1      14.123  35.437  54.984  1.00  0.00    -0.072 N 
HETATM   41  C23 UNL     1      13.607  36.774  54.808  1.00  0.00     0.259 C 
ATOM     42 2H10 UNL     1      14.153  35.183  55.970  1.00  0.00     0.277 HD
ATOM     43 1H10 UNL     1      15.121  35.399  54.773  1.00  0.00     0.277 HD
HETATM   44  C24 UNL     1      14.686  37.830  54.813  1.00  0.00     0.259 C 
HETATM   45  N11 UNL     1      15.986  37.324  54.487  1.00  0.00    -0.072 N 
HETATM   46  C25 UNL     1      16.283  37.413  53.048  1.00  0.00     0.252 C 
ATOM     47 2H11 UNL     1      16.708  37.786  55.040  1.00  0.00     0.277 HD
ATOM     48 1H11 UNL     1      16.104  36.369  54.828  1.00  0.00     0.277 HD
HETATM   49  C26 UNL     1      17.735  37.731  52.916  1.00  0.00     0.152 C 
ENDBRANCH   1  27
BRANCH   2  50
HETATM   50  N6  UNL     1      17.513  37.575  49.075  1.00  0.00    -0.344 N 
ATOM     51  H62 UNL     1      16.672  38.091  49.336  1.00  0.00     0.176 HD
ATOM     52  H61 UNL     1      17.342  36.805  48.428  1.00  0.00     0.176 HD
ENDBRANCH   2  50
TORSDOF 5
ENDMDL
MODEL 5
REMARK VINA RESULT: -10.150930263      4.933      6.670
REMARK  5 active torsions:
REMARK  status: ('A' for Active; 'I' for Inactive)
REMARK    1  A    between atoms: C4_4  and  N1_5 
REMARK    2  A    between atoms: C10_13  and  N3_14 
REMARK    3  A    between atoms: C15_23  and  C16_24 
REMARK    4  A    between atoms: C16_24  and  N7_30 
REMARK    5  A    between atoms: N5_25  and  N6_27 
ROOT
HETATM    1  C16 UNL     1      19.909  35.993  48.984  1.00  0.00     0.128 C 
HETATM    2  N5  UNL     1      20.103  34.820  49.461  1.00  0.00    -0.291 N 
ATOM      3  H5  UNL     1      20.901  34.782  50.095  1.00  0.00     0.188 HD
ENDROOT
BRANCH   1   4
HETATM    4  C15 UNL     1      20.817  37.031  49.402  1.00  0.00     0.015 A 
HETATM    5  C2  UNL     1      21.792  37.519  48.565  1.00  0.00    -0.046 A 
HETATM    6  C1  UNL     1      22.011  37.007  47.190  1.00  0.00     0.049 C 
HETATM    7  C3  UNL     1      22.607  38.536  49.084  1.00  0.00     0.039 A 
HETATM    8  C4  UNL     1      22.461  39.036  50.358  1.00  0.00     0.058 A 
HETATM    9  C13 UNL     1      21.466  38.506  51.148  1.00  0.00     0.032 A 
HETATM   10  C14 UNL     1      20.634  37.512  50.705  1.00  0.00     0.018 A 
BRANCH   8  11
HETATM   11  N1  UNL     1      23.310  40.066  50.868  1.00  0.00    -0.250 N 
HETATM   12  C5  UNL     1      24.032  40.927  50.133  1.00  0.00     0.208 A 
HETATM   13  N2  UNL     1      24.700  41.748  50.961  1.00  0.00    -0.335 N 
HETATM   14  C6  UNL     1      24.403  41.410  52.242  1.00  0.00     0.131 A 
ATOM     15  H2  UNL     1      25.326  42.500  50.674  1.00  0.00     0.168 HD
HETATM   16  C7  UNL     1      24.908  42.044  53.441  1.00  0.00     0.009 A 
HETATM   17  N4  UNL     1      23.544  40.371  52.134  1.00  0.00    -0.277 N 
HETATM   18  C8  UNL     1      24.512  41.580  54.668  1.00  0.00     0.018 A 
HETATM   19  C12 UNL     1      25.771  43.103  53.338  1.00  0.00     0.018 A 
HETATM   20  C9  UNL     1      24.998  42.197  55.816  1.00  0.00     0.037 A 
HETATM   21  C10 UNL     1      25.864  43.261  55.735  1.00  0.00     0.102 A 
HETATM   22  C11 UNL     1      26.256  43.719  54.499  1.00  0.00     0.037 A 
ATOM     23  H4  UNL     1      23.130  39.883  52.929  1.00  0.00     0.189 HD
BRANCH  21  24
HETATM   24  N3  UNL     1      26.359  43.891  56.904  1.00  0.00    -0.116 N 
HETATM   25  O1  UNL     1      25.906  44.966  57.316  1.00  0.00    -0.532 OA
HETATM   26  O2  UNL     1      27.374  43.297  57.611  1.00  0.00    -0.532 OA
ENDBRANCH  21  24
ENDBRANCH   8  11
ENDBRANCH   1   4
BRANCH   1  27
HETATM   27  N7  UNL     1      18.797  36.119  48.150  1.00  0.00    -0.362 N 
HETATM   28  C17 UNL     1      17.540  36.532  48.717  1.00  0.00     0.152 C 
HETATM   29  C18 UNL     1      16.734  37.487  47.924  1.00  0.00     0.252 C 
HETATM   30  N8  UNL     1      15.403  37.661  48.469  1.00  0.00    -0.072 N 
HETATM   31  C19 UNL     1      14.409  36.812  47.874  1.00  0.00     0.259 C 
ATOM     32  H82 UNL     1      15.413  37.544  49.482  1.00  0.00     0.277 HD
ATOM     33  H81 UNL     1      15.118  38.639  48.410  1.00  0.00     0.277 HD
HETATM   34  C20 UNL     1      13.805  37.486  46.664  1.00  0.00     0.259 C 
HETATM   35  N9  UNL     1      13.901  36.619  45.517  1.00  0.00    -0.072 N 
HETATM   36  C21 UNL     1      13.132  35.403  45.712  1.00  0.00     0.259 C 
ATOM     37  H92 UNL     1      13.631  37.100  44.660  1.00  0.00     0.277 HD
ATOM     38  H91 UNL     1      14.872  36.414  45.281  1.00  0.00     0.277 HD
HETATM   39  C22 UNL     1      13.777  34.219  45.025  1.00  0.00     0.259 C 
HETATM   40  N10 UNL     1      14.936  34.698  44.301  1.00  0.00    -0.072 N 
HETATM   41  C23 UNL     1      15.856  33.638  43.960  1.00  0.00     0.259 C 
ATOM     42 2H10 UNL     1      14.659  35.222  43.472  1.00  0.00     0.277 HD
ATOM     43 1H10 UNL     1      15.409  35.441  44.816  1.00  0.00     0.277 HD
HETATM   44  C24 UNL     1      17.302  34.067  44.027  1.00  0.00     0.259 C 
HETATM   45  N11 UNL     1      17.525  35.209  44.861  1.00  0.00    -0.072 N 
HETATM   46  C25 UNL     1      17.852  34.842  46.249  1.00  0.00     0.252 C 
ATOM     47 2H11 UNL     1      18.241  35.818  44.465  1.00  0.00     0.277 HD
ATOM     48 1H11 UNL     1      16.730  35.848  44.829  1.00  0.00     0.277 HD
HETATM   49  C26 UNL     1      18.850  35.834  46.745  1.00  0.00     0.152 C 
ENDBRANCH   1  27
BRANCH   2  50
HETATM   50  N6  UNL     1      19.501  33.636  49.320  1.00  0.00    -0.344 N 
ATOM     51  H62 UNL     1      20.124  32.954  48.884  1.00  0.00     0.176 HD
ATOM     52  H61 UNL     1      18.577  33.268  49.546  1.00  0.00     0.176 HD
ENDBRANCH   2  50
TORSDOF 5
ENDMDL
