MODEL 1
REMARK VINA RESULT: -10.534350623      0.000      0.000
REMARK  8 active torsions:
REMARK  status: ('A' for Active; 'I' for Inactive)
REMARK    1  A    between atoms: C4_4  and  C5_5 
REMARK    2  A    between atoms: C5_5  and  O1_6 
REMARK    3  A    between atoms: N2_14  and  C10_15 
REMARK    4  A    between atoms: C10_15  and  O2_16 
REMARK    5  A    between atoms: C10_15  and  N3_18 
REMARK    6  A    between atoms: N4_21  and  C13_22 
REMARK    7  A    between atoms: C14_27  and  C15_28 
REMARK    8  A    between atoms: C16_32  and  C17_33 
ROOT
HETATM    1  C13 UNL     1      23.168  40.216  52.859  1.00  0.00     0.714 A 
HETATM    2  N5  UNL     1      23.988  40.732  51.926  1.00  0.00    -0.129 N 
ATOM      3  H5  UNL     1      24.770  41.360  52.115  1.00  0.00     0.205 HD
HETATM    4  N6  UNL     1      23.628  40.304  50.727  1.00  0.00    -0.268 N 
ATOM      5  H6  UNL     1      24.087  40.548  49.850  1.00  0.00     0.189 HD
HETATM    6  C14 UNL     1      22.564  39.496  50.848  1.00  0.00     0.182 A 
HETATM    7  N12 UNL     1      22.284  39.444  52.162  1.00  0.00    -0.169 N 
ATOM      8  H12 UNL     1      21.523  38.908  52.578  1.00  0.00     0.186 HD
ENDROOT
BRANCH   1   9
HETATM    9  N4  UNL     1      23.199  40.417  54.267  1.00  0.00    -0.104 N 
HETATM   10  C12 UNL     1      22.077  40.434  55.178  1.00  0.00     0.187 C 
HETATM   11  C11 UNL     1      22.747  40.725  56.528  1.00  0.00     0.172 C 
HETATM   12  N3  UNL     1      23.958  41.439  56.033  1.00  0.00    -0.238 N 
HETATM   13  N13 UNL     1      24.372  40.633  54.992  1.00  0.00     0.000 NA
BRANCH  12  14
HETATM   14  C10 UNL     1      24.504  42.614  56.532  1.00  0.00     0.234 C 
BRANCH  14  15
HETATM   15  N2  UNL     1      25.527  43.367  56.004  1.00  0.00    -0.346 N 
HETATM   16  C9  UNL     1      26.850  43.052  56.562  1.00  0.00     0.131 C 
HETATM   17  C8  UNL     1      27.961  43.771  55.827  1.00  0.00     0.061 C 
HETATM   18  C7  UNL     1      27.980  43.472  54.382  1.00  0.00    -0.028 A 
HETATM   19  C2  UNL     1      29.292  43.233  54.002  1.00  0.00    -0.052 A 
HETATM   20  C6  UNL     1      26.949  43.418  53.483  1.00  0.00     0.018 A 
HETATM   21  C1  UNL     1      30.415  43.286  54.929  1.00  0.00     0.049 C 
HETATM   22  C3  UNL     1      29.508  42.934  52.667  1.00  0.00     0.034 A 
HETATM   23  C4  UNL     1      28.451  42.885  51.782  1.00  0.00     0.033 A 
HETATM   24  N1  UNL     1      27.194  43.123  52.183  1.00  0.00    -0.361 N 
ATOM     25  H1  UNL     1      26.426  43.083  51.514  1.00  0.00     0.165 HD
HETATM   26  C24 UNL     1      25.465  43.637  53.661  1.00  0.00     0.077 C 
HETATM   27  C23 UNL     1      25.317  44.358  55.006  1.00  0.00     0.132 C 
BRANCH  23  28
HETATM   28  C5  UNL     1      28.713  42.563  50.359  1.00  0.00     0.221 C 
BRANCH  28  29
HETATM   29  O1  UNL     1      28.605  41.185  50.152  1.00  0.00    -0.395 OA
ATOM     30  H1  UNL     1      29.280  40.893  49.550  1.00  0.00     0.209 HD
ENDBRANCH  28  29
ENDBRANCH  23  28
ENDBRANCH  14  15
BRANCH  14  31
HETATM   31  O2  UNL     1      23.931  43.008  57.649  1.00  0.00    -0.332 OA
ATOM     32  H2  UNL     1      23.899  42.411  58.386  1.00  0.00     0.221 HD
ENDBRANCH  14  31
ENDBRANCH  12  14
ENDBRANCH   1   9
BRANCH   6  33
HETATM   33  C15 UNL     1      21.834  38.797  49.782  1.00  0.00     0.169 A 
HETATM   34  N7  UNL     1      20.514  38.592  49.875  1.00  0.00    -0.274 N 
HETATM   35  N8  UNL     1      19.825  37.958  48.919  1.00  0.00    -0.237 N 
ATOM     36  H7  UNL     1      20.019  38.929  50.701  1.00  0.00     0.189 HD
HETATM   37  C16 UNL     1      18.520  37.654  48.817  1.00  0.00     0.056 A 
HETATM   38  C21 UNL     1      20.484  37.515  47.832  1.00  0.00     0.171 A 
HETATM   39  C20 UNL     1      18.372  36.996  47.618  1.00  0.00     0.117 A 
HETATM   40  N9  UNL     1      19.564  36.925  47.042  1.00  0.00    -0.346 N 
ATOM     41  H9  UNL     1      19.756  36.491  46.139  1.00  0.00     0.167 HD
HETATM   42  C22 UNL     1      21.854  37.708  47.698  1.00  0.00     0.147 A 
HETATM   43  N10 UNL     1      22.432  37.266  46.642  1.00  0.00    -0.382 N 
HETATM   44  N11 UNL     1      22.486  38.352  48.695  1.00  0.00    -0.322 N 
ATOM     45 2H10 UNL     1      21.953  36.778  45.885  1.00  0.00     0.157 HD
ATOM     46 1H10 UNL     1      23.437  37.408  46.543  1.00  0.00     0.157 HD
ATOM     47  H11 UNL     1      23.491  38.508  48.624  1.00  0.00     0.169 HD
BRANCH  37  48
HETATM   48  C17 UNL     1      17.478  37.980  49.823  1.00  0.00     0.039 A 
HETATM   49  C18 UNL     1      16.074  38.014  49.355  1.00  0.00     0.011 A 
HETATM   50  C19 UNL     1      16.529  36.912  50.266  1.00  0.00     0.011 A 
ENDBRANCH  37  48
ENDBRANCH   6  33
TORSDOF 8
ENDMDL
MODEL 2
REMARK VINA RESULT: -10.499577643      3.308      9.955
REMARK  8 active torsions:
REMARK  status: ('A' for Active; 'I' for Inactive)
REMARK    1  A    between atoms: C4_4  and  C5_5 
REMARK    2  A    between atoms: C5_5  and  O1_6 
REMARK    3  A    between atoms: N2_14  and  C10_15 
REMARK    4  A    between atoms: C10_15  and  O2_16 
REMARK    5  A    between atoms: C10_15  and  N3_18 
REMARK    6  A    between atoms: N4_21  and  C13_22 
REMARK    7  A    between atoms: C14_27  and  C15_28 
REMARK    8  A    between atoms: C16_32  and  C17_33 
ROOT
HETATM    1  C13 UNL     1      20.703  41.119  56.544  1.00  0.00     0.714 A 
HETATM    2  N5  UNL     1      20.332  42.351  56.937  1.00  0.00    -0.129 N 
ATOM      3  H5  UNL     1      19.371  42.647  57.109  1.00  0.00     0.205 HD
HETATM    4  N6  UNL     1      21.401  43.120  57.068  1.00  0.00    -0.268 N 
ATOM      5  H6  UNL     1      21.394  44.099  57.354  1.00  0.00     0.189 HD
HETATM    6  C14 UNL     1      22.497  42.408  56.763  1.00  0.00     0.182 A 
HETATM    7  N12 UNL     1      22.062  41.177  56.442  1.00  0.00    -0.169 N 
ATOM      8  H12 UNL     1      22.661  40.400  56.162  1.00  0.00     0.186 HD
ENDROOT
BRANCH   1   9
HETATM    9  N4  UNL     1      19.876  39.991  56.288  1.00  0.00    -0.104 N 
HETATM   10  C12 UNL     1      19.904  38.709  56.956  1.00  0.00     0.187 C 
HETATM   11  C11 UNL     1      18.814  37.922  56.217  1.00  0.00     0.172 C 
HETATM   12  N3  UNL     1      18.850  38.647  54.916  1.00  0.00    -0.238 N 
HETATM   13  N13 UNL     1      18.877  39.969  55.313  1.00  0.00     0.000 NA
BRANCH  12  14
HETATM   14  C10 UNL     1      18.847  38.092  53.643  1.00  0.00     0.234 C 
BRANCH  14  15
HETATM   15  N2  UNL     1      19.236  38.676  52.460  1.00  0.00    -0.346 N 
HETATM   16  C9  UNL     1      20.660  38.493  52.142  1.00  0.00     0.131 C 
HETATM   17  C8  UNL     1      20.999  38.991  50.754  1.00  0.00     0.061 C 
HETATM   18  C7  UNL     1      20.198  38.342  49.700  1.00  0.00    -0.028 A 
HETATM   19  C2  UNL     1      21.044  37.998  48.656  1.00  0.00    -0.052 A 
HETATM   20  C6  UNL     1      18.855  38.080  49.653  1.00  0.00     0.018 A 
HETATM   21  C1  UNL     1      22.476  38.265  48.668  1.00  0.00     0.049 C 
HETATM   22  C3  UNL     1      20.463  37.374  47.565  1.00  0.00     0.034 A 
HETATM   23  C4  UNL     1      19.107  37.120  47.544  1.00  0.00     0.033 A 
HETATM   24  N1  UNL     1      18.318  37.468  48.570  1.00  0.00    -0.361 N 
ATOM     25  H1  UNL     1      17.318  37.272  48.536  1.00  0.00     0.165 HD
HETATM   26  C24 UNL     1      17.755  38.355  50.651  1.00  0.00     0.077 C 
HETATM   27  C23 UNL     1      18.335  39.390  51.622  1.00  0.00     0.132 C 
BRANCH  23  28
HETATM   28  C5  UNL     1      18.514  36.451  46.362  1.00  0.00     0.221 C 
BRANCH  28  29
HETATM   29  O1  UNL     1      18.782  37.192  45.208  1.00  0.00    -0.395 OA
ATOM     30  H1  UNL     1      18.356  36.792  44.458  1.00  0.00     0.209 HD
ENDBRANCH  28  29
ENDBRANCH  23  28
ENDBRANCH  14  15
BRANCH  14  31
HETATM   31  O2  UNL     1      18.406  36.852  53.629  1.00  0.00    -0.332 OA
ATOM     32  H2  UNL     1      17.469  36.696  53.640  1.00  0.00     0.221 HD
ENDBRANCH  14  31
ENDBRANCH  12  14
ENDBRANCH   1   9
BRANCH   6  33
HETATM   33  C15 UNL     1      23.896  42.856  56.771  1.00  0.00     0.169 A 
HETATM   34  N7  UNL     1      24.679  42.676  55.700  1.00  0.00    -0.274 N 
HETATM   35  N8  UNL     1      25.957  43.074  55.680  1.00  0.00    -0.237 N 
ATOM     36  H7  UNL     1      24.290  42.221  54.874  1.00  0.00     0.189 HD
HETATM   37  C16 UNL     1      26.899  42.991  54.726  1.00  0.00     0.056 A 
HETATM   38  C21 UNL     1      26.465  43.673  56.774  1.00  0.00     0.171 A 
HETATM   39  C20 UNL     1      28.033  43.562  55.256  1.00  0.00     0.117 A 
HETATM   40  N9  UNL     1      27.749  43.966  56.486  1.00  0.00    -0.346 N 
ATOM     41  H9  UNL     1      28.403  44.429  57.118  1.00  0.00     0.167 HD
HETATM   42  C22 UNL     1      25.684  43.878  57.906  1.00  0.00     0.147 A 
HETATM   43  N10 UNL     1      26.218  44.454  58.918  1.00  0.00    -0.382 N 
HETATM   44  N11 UNL     1      24.409  43.454  57.858  1.00  0.00    -0.322 N 
ATOM     45 2H10 UNL     1      27.185  44.776  58.954  1.00  0.00     0.157 HD
ATOM     46 1H10 UNL     1      25.645  44.605  59.749  1.00  0.00     0.157 HD
ATOM     47  H11 UNL     1      23.812  43.592  58.674  1.00  0.00     0.169 HD
BRANCH  37  48
HETATM   48  C17 UNL     1      26.712  42.391  53.380  1.00  0.00     0.039 A 
HETATM   49  C18 UNL     1      25.874  43.140  52.418  1.00  0.00     0.011 A 
HETATM   50  C19 UNL     1      27.354  43.040  52.196  1.00  0.00     0.011 A 
ENDBRANCH  37  48
ENDBRANCH   6  33
TORSDOF 8
ENDMDL
MODEL 3
REMARK VINA RESULT: -10.455752353      3.485      9.599
REMARK  8 active torsions:
REMARK  status: ('A' for Active; 'I' for Inactive)
REMARK    1  A    between atoms: C4_4  and  C5_5 
REMARK    2  A    between atoms: C5_5  and  O1_6 
REMARK    3  A    between atoms: N2_14  and  C10_15 
REMARK    4  A    between atoms: C10_15  and  O2_16 
REMARK    5  A    between atoms: C10_15  and  N3_18 
REMARK    6  A    between atoms: N4_21  and  C13_22 
REMARK    7  A    between atoms: C14_27  and  C15_28 
REMARK    8  A    between atoms: C16_32  and  C17_33 
ROOT
HETATM    1  C13 UNL     1      18.484  39.153  55.378  1.00  0.00     0.714 A 
HETATM    2  N5  UNL     1      19.010  38.476  56.415  1.00  0.00    -0.129 N 
ATOM      3  H5  UNL     1      18.742  37.532  56.696  1.00  0.00     0.205 HD
HETATM    4  N6  UNL     1      19.926  39.218  57.016  1.00  0.00    -0.268 N 
ATOM      5  H6  UNL     1      20.473  38.938  57.829  1.00  0.00     0.189 HD
HETATM    6  C14 UNL     1      20.022  40.398  56.384  1.00  0.00     0.182 A 
HETATM    7  N12 UNL     1      19.132  40.353  55.377  1.00  0.00    -0.169 N 
ATOM      8  H12 UNL     1      18.967  41.106  54.709  1.00  0.00     0.186 HD
ENDROOT
BRANCH   1   9
HETATM    9  N4  UNL     1      17.475  38.727  54.470  1.00  0.00    -0.104 N 
HETATM   10  C12 UNL     1      16.506  37.672  54.664  1.00  0.00     0.187 C 
HETATM   11  C11 UNL     1      15.734  37.679  53.338  1.00  0.00     0.172 C 
HETATM   12  N3  UNL     1      16.795  38.246  52.458  1.00  0.00    -0.238 N 
HETATM   13  N13 UNL     1      17.274  39.299  53.213  1.00  0.00     0.000 NA
BRANCH  12  14
HETATM   14  C10 UNL     1      17.170  37.802  51.198  1.00  0.00     0.234 C 
BRANCH  14  15
HETATM   15  N2  UNL     1      18.387  37.300  50.800  1.00  0.00    -0.346 N 
HETATM   16  C9  UNL     1      18.572  37.265  49.342  1.00  0.00     0.131 C 
HETATM   17  C8  UNL     1      19.984  36.879  48.959  1.00  0.00     0.061 C 
HETATM   18  C7  UNL     1      21.002  37.777  49.538  1.00  0.00    -0.028 A 
HETATM   19  C2  UNL     1      21.926  38.085  48.552  1.00  0.00    -0.052 A 
HETATM   20  C6  UNL     1      21.112  38.275  50.809  1.00  0.00     0.018 A 
HETATM   21  C1  UNL     1      21.844  37.570  47.191  1.00  0.00     0.049 C 
HETATM   22  C3  UNL     1      22.966  38.924  48.915  1.00  0.00     0.034 A 
HETATM   23  C4  UNL     1      23.054  39.413  50.202  1.00  0.00     0.033 A 
HETATM   24  N1  UNL     1      22.143  39.093  51.132  1.00  0.00    -0.361 N 
ATOM     25  H1  UNL     1      22.224  39.464  52.078  1.00  0.00     0.165 HD
HETATM   26  C24 UNL     1      20.243  38.084  52.028  1.00  0.00     0.077 C 
HETATM   27  C23 UNL     1      19.375  36.857  51.723  1.00  0.00     0.132 C 
BRANCH  23  28
HETATM   28  C5  UNL     1      24.179  40.309  50.561  1.00  0.00     0.221 C 
BRANCH  28  29
HETATM   29  O1  UNL     1      23.933  40.915  51.796  1.00  0.00    -0.395 OA
ATOM     30  H1  UNL     1      24.576  40.627  52.434  1.00  0.00     0.209 HD
ENDBRANCH  28  29
ENDBRANCH  23  28
ENDBRANCH  14  15
BRANCH  14  31
HETATM   31  O2  UNL     1      16.198  37.898  50.314  1.00  0.00    -0.332 OA
ATOM     32  H2  UNL     1      16.064  37.188  49.698  1.00  0.00     0.221 HD
ENDBRANCH  14  31
ENDBRANCH  12  14
ENDBRANCH   1   9
BRANCH   6  33
HETATM   33  C15 UNL     1      20.907  41.525  56.705  1.00  0.00     0.169 A 
HETATM   34  N7  UNL     1      22.200  41.502  56.355  1.00  0.00    -0.274 N 
HETATM   35  N8  UNL     1      23.029  42.515  56.635  1.00  0.00    -0.237 N 
ATOM     36  H7  UNL     1      22.563  40.688  55.859  1.00  0.00     0.189 HD
HETATM   37  C16 UNL     1      24.336  42.690  56.379  1.00  0.00     0.056 A 
HETATM   38  C21 UNL     1      22.543  43.586  57.289  1.00  0.00     0.171 A 
HETATM   39  C20 UNL     1      24.667  43.921  56.898  1.00  0.00     0.117 A 
HETATM   40  N9  UNL     1      23.575  44.442  57.439  1.00  0.00    -0.346 N 
ATOM     41  H9  UNL     1      23.523  45.351  57.897  1.00  0.00     0.167 HD
HETATM   42  C22 UNL     1      21.207  43.648  57.670  1.00  0.00     0.147 A 
HETATM   43  N10 UNL     1      20.798  44.693  58.290  1.00  0.00    -0.382 N 
HETATM   44  N11 UNL     1      20.429  42.597  57.358  1.00  0.00    -0.322 N 
ATOM     45 2H10 UNL     1      21.388  45.490  58.527  1.00  0.00     0.157 HD
ATOM     46 1H10 UNL     1      19.818  44.738  58.570  1.00  0.00     0.157 HD
ATOM     47  H11 UNL     1      19.445  42.615  57.624  1.00  0.00     0.169 HD
BRANCH  37  48
HETATM   48  C17 UNL     1      25.214  41.722  55.673  1.00  0.00     0.039 A 
HETATM   49  C18 UNL     1      25.909  42.201  54.459  1.00  0.00     0.011 A 
HETATM   50  C19 UNL     1      26.695  41.920  55.705  1.00  0.00     0.011 A 
ENDBRANCH  37  48
ENDBRANCH   6  33
TORSDOF 8
ENDMDL
MODEL 4
REMARK VINA RESULT: -10.361793248      3.352     10.129
REMARK  8 active torsions:
REMARK  status: ('A' for Active; 'I' for Inactive)
REMARK    1  A    between atoms: C4_4  and  C5_5 
REMARK    2  A    between atoms: C5_5  and  O1_6 
REMARK    3  A    between atoms: N2_14  and  C10_15 
REMARK    4  A    between atoms: C10_15  and  O2_16 
REMARK    5  A    between atoms: C10_15  and  N3_18 
REMARK    6  A    between atoms: N4_21  and  C13_22 
REMARK    7  A    between atoms: C14_27  and  C15_28 
REMARK    8  A    between atoms: C16_32  and  C17_33 
ROOT
HETATM    1  C13 UNL     1      18.913  39.172  55.037  1.00  0.00     0.714 A 
HETATM    2  N5  UNL     1      19.373  38.486  56.099  1.00  0.00    -0.129 N 
ATOM      3  H5  UNL     1      19.090  37.540  56.353  1.00  0.00     0.205 HD
HETATM    4  N6  UNL     1      20.247  39.225  56.764  1.00  0.00    -0.268 N 
ATOM      5  H6  UNL     1      20.742  38.938  57.608  1.00  0.00     0.189 HD
HETATM    6  C14 UNL     1      20.380  40.411  56.151  1.00  0.00     0.182 A 
HETATM    7  N12 UNL     1      19.557  40.374  55.089  1.00  0.00    -0.169 N 
ATOM      8  H12 UNL     1      19.432  41.134  54.420  1.00  0.00     0.186 HD
ENDROOT
BRANCH   1   9
HETATM    9  N4  UNL     1      17.965  38.754  54.063  1.00  0.00    -0.104 N 
HETATM   10  C12 UNL     1      17.031  37.655  54.160  1.00  0.00     0.187 C 
HETATM   11  C11 UNL     1      16.323  37.696  52.800  1.00  0.00     0.172 C 
HETATM   12  N3  UNL     1      17.400  38.345  52.000  1.00  0.00    -0.238 N 
HETATM   13  N13 UNL     1      17.800  39.378  52.825  1.00  0.00     0.000 NA
BRANCH  12  14
HETATM   14  C10 UNL     1      17.850  37.977  50.740  1.00  0.00     0.234 C 
BRANCH  14  15
HETATM   15  N2  UNL     1      18.864  37.104  50.421  1.00  0.00    -0.346 N 
HETATM   16  C9  UNL     1      18.462  36.032  49.497  1.00  0.00     0.131 C 
HETATM   17  C8  UNL     1      19.645  35.209  49.035  1.00  0.00     0.061 C 
HETATM   18  C7  UNL     1      20.689  36.022  48.382  1.00  0.00    -0.028 A 
HETATM   19  C2  UNL     1      21.104  35.362  47.235  1.00  0.00    -0.052 A 
HETATM   20  C6  UNL     1      21.229  37.223  48.756  1.00  0.00     0.018 A 
HETATM   21  C1  UNL     1      20.556  34.081  46.808  1.00  0.00     0.049 C 
HETATM   22  C3  UNL     1      22.091  35.979  46.485  1.00  0.00     0.034 A 
HETATM   23  C4  UNL     1      22.617  37.191  46.884  1.00  0.00     0.033 A 
HETATM   24  N1  UNL     1      22.193  37.801  48.000  1.00  0.00    -0.361 N 
ATOM     25  H1  UNL     1      22.595  38.695  48.279  1.00  0.00     0.165 HD
HETATM   26  C24 UNL     1      20.941  38.114  49.941  1.00  0.00     0.077 C 
HETATM   27  C23 UNL     1      20.182  37.233  50.939  1.00  0.00     0.132 C 
BRANCH  23  28
HETATM   28  C5  UNL     1      23.673  37.827  46.061  1.00  0.00     0.221 C 
BRANCH  28  29
HETATM   29  O1  UNL     1      24.746  38.209  46.870  1.00  0.00    -0.395 OA
ATOM     30  H1  UNL     1      25.040  37.471  47.392  1.00  0.00     0.209 HD
ENDBRANCH  28  29
ENDBRANCH  23  28
ENDBRANCH  14  15
BRANCH  14  31
HETATM   31  O2  UNL     1      17.188  38.569  49.769  1.00  0.00    -0.332 OA
ATOM     32  H2  UNL     1      17.106  39.515  49.776  1.00  0.00     0.221 HD
ENDBRANCH  14  31
ENDBRANCH  12  14
ENDBRANCH   1   9
BRANCH   6  33
HETATM   33  C15 UNL     1      21.240  41.537  56.540  1.00  0.00     0.169 A 
HETATM   34  N7  UNL     1      22.546  41.536  56.241  1.00  0.00    -0.274 N 
HETATM   35  N8  UNL     1      23.352  42.548  56.582  1.00  0.00    -0.237 N 
ATOM     36  H7  UNL     1      22.937  40.740  55.738  1.00  0.00     0.189 HD
HETATM   37  C16 UNL     1      24.667  42.743  56.384  1.00  0.00     0.056 A 
HETATM   38  C21 UNL     1      22.829  43.596  57.247  1.00  0.00     0.171 A 
HETATM   39  C20 UNL     1      24.963  43.962  56.950  1.00  0.00     0.117 A 
HETATM   40  N9  UNL     1      23.845  44.457  57.461  1.00  0.00    -0.346 N 
ATOM     41  H9  UNL     1      23.765  45.353  57.943  1.00  0.00     0.167 HD
HETATM   42  C22 UNL     1      21.479  43.635  57.575  1.00  0.00     0.147 A 
HETATM   43  N10 UNL     1      21.034  44.657  58.207  1.00  0.00    -0.382 N 
HETATM   44  N11 UNL     1      20.725  42.585  57.202  1.00  0.00    -0.322 N 
ATOM     45 2H10 UNL     1      21.605  45.453  58.490  1.00  0.00     0.157 HD
ATOM     46 1H10 UNL     1      20.043  44.685  58.448  1.00  0.00     0.157 HD
ATOM     47  H11 UNL     1      19.731  42.586  57.430  1.00  0.00     0.169 HD
BRANCH  37  48
HETATM   48  C17 UNL     1      25.581  41.804  55.687  1.00  0.00     0.039 A 
HETATM   49  C18 UNL     1      26.371  42.343  54.558  1.00  0.00     0.011 A 
HETATM   50  C19 UNL     1      27.059  41.975  55.839  1.00  0.00     0.011 A 
ENDBRANCH  37  48
ENDBRANCH   6  33
TORSDOF 8
ENDMDL
MODEL 5
REMARK VINA RESULT: -10.312574609      1.020      2.628
REMARK  8 active torsions:
REMARK  status: ('A' for Active; 'I' for Inactive)
REMARK    1  A    between atoms: C4_4  and  C5_5 
REMARK    2  A    between atoms: C5_5  and  O1_6 
REMARK    3  A    between atoms: N2_14  and  C10_15 
REMARK    4  A    between atoms: C10_15  and  O2_16 
REMARK    5  A    between atoms: C10_15  and  N3_18 
REMARK    6  A    between atoms: N4_21  and  C13_22 
REMARK    7  A    between atoms: C14_27  and  C15_28 
REMARK    8  A    between atoms: C16_32  and  C17_33 
ROOT
HETATM    1  C13 UNL     1      23.078  40.150  52.913  1.00  0.00     0.714 A 
HETATM    2  N5  UNL     1      23.901  40.569  51.935  1.00  0.00    -0.129 N 
ATOM      3  H5  UNL     1      24.738  41.135  52.075  1.00  0.00     0.205 HD
HETATM    4  N6  UNL     1      23.460  40.138  50.764  1.00  0.00    -0.268 N 
ATOM      5  H6  UNL     1      23.903  40.318  49.863  1.00  0.00     0.189 HD
HETATM    6  C14 UNL     1      22.338  39.425  50.950  1.00  0.00     0.182 A 
HETATM    7  N12 UNL     1      22.107  39.435  52.274  1.00  0.00    -0.169 N 
ATOM      8  H12 UNL     1      21.321  38.976  52.734  1.00  0.00     0.186 HD
ENDROOT
BRANCH   1   9
HETATM    9  N4  UNL     1      23.181  40.389  54.312  1.00  0.00    -0.104 N 
HETATM   10  C12 UNL     1      22.107  40.422  55.280  1.00  0.00     0.187 C 
HETATM   11  C11 UNL     1      22.843  40.753  56.584  1.00  0.00     0.172 C 
HETATM   12  N3  UNL     1      24.021  41.462  56.009  1.00  0.00    -0.238 N 
HETATM   13  N13 UNL     1      24.388  40.632  54.969  1.00  0.00     0.000 NA
BRANCH  12  14
HETATM   14  C10 UNL     1      24.583  42.654  56.448  1.00  0.00     0.234 C 
BRANCH  14  15
HETATM   15  N2  UNL     1      25.597  43.380  55.868  1.00  0.00    -0.346 N 
HETATM   16  C9  UNL     1      26.935  43.057  56.384  1.00  0.00     0.131 C 
HETATM   17  C8  UNL     1      28.028  43.743  55.594  1.00  0.00     0.061 C 
HETATM   18  C7  UNL     1      27.990  43.415  54.156  1.00  0.00    -0.028 A 
HETATM   19  C2  UNL     1      29.284  43.147  53.734  1.00  0.00    -0.052 A 
HETATM   20  C6  UNL     1      26.926  43.358  53.296  1.00  0.00     0.018 A 
HETATM   21  C1  UNL     1      30.440  43.203  54.618  1.00  0.00     0.049 C 
HETATM   22  C3  UNL     1      29.446  42.819  52.399  1.00  0.00     0.034 A 
HETATM   23  C4  UNL     1      28.356  42.767  51.553  1.00  0.00     0.033 A 
HETATM   24  N1  UNL     1      27.119  43.033  51.995  1.00  0.00    -0.361 N 
ATOM     25  H1  UNL     1      26.326  42.991  51.355  1.00  0.00     0.165 HD
HETATM   26  C24 UNL     1      25.453  43.602  53.523  1.00  0.00     0.077 C 
HETATM   27  C23 UNL     1      25.365  44.353  54.857  1.00  0.00     0.132 C 
BRANCH  23  28
HETATM   28  C5  UNL     1      28.561  42.413  50.129  1.00  0.00     0.221 C 
BRANCH  28  29
HETATM   29  O1  UNL     1      28.575  41.023  49.978  1.00  0.00    -0.395 OA
ATOM     30  H1  UNL     1      28.942  40.615  50.753  1.00  0.00     0.209 HD
ENDBRANCH  28  29
ENDBRANCH  23  28
ENDBRANCH  14  15
BRANCH  14  31
HETATM   31  O2  UNL     1      24.037  43.095  57.561  1.00  0.00    -0.332 OA
ATOM     32  H2  UNL     1      24.242  42.658  58.379  1.00  0.00     0.221 HD
ENDBRANCH  14  31
ENDBRANCH  12  14
ENDBRANCH   1   9
BRANCH   6  33
HETATM   33  C15 UNL     1      21.513  38.759  49.934  1.00  0.00     0.169 A 
HETATM   34  N7  UNL     1      22.056  38.317  48.792  1.00  0.00    -0.274 N 
HETATM   35  N8  UNL     1      21.327  37.707  47.849  1.00  0.00    -0.237 N 
ATOM     36  H7  UNL     1      23.055  38.450  48.636  1.00  0.00     0.189 HD
HETATM   37  C16 UNL     1      21.668  37.198  46.653  1.00  0.00     0.056 A 
HETATM   38  C21 UNL     1      20.009  37.536  48.061  1.00  0.00     0.171 A 
HETATM   39  C20 UNL     1      20.510  36.692  46.108  1.00  0.00     0.117 A 
HETATM   40  N9  UNL     1      19.526  36.905  46.970  1.00  0.00    -0.346 N 
ATOM     41  H9  UNL     1      18.553  36.632  46.831  1.00  0.00     0.167 HD
HETATM   42  C22 UNL     1      19.407  37.980  49.233  1.00  0.00     0.147 A 
HETATM   43  N10 UNL     1      18.149  37.789  49.383  1.00  0.00    -0.382 N 
HETATM   44  N11 UNL     1      20.197  38.584  50.139  1.00  0.00    -0.322 N 
ATOM     45 2H10 UNL     1      17.550  37.331  48.697  1.00  0.00     0.157 HD
ATOM     46 1H10 UNL     1      17.708  38.116  50.243  1.00  0.00     0.157 HD
ATOM     47  H11 UNL     1      19.784  38.920  51.008  1.00  0.00     0.169 HD
BRANCH  37  48
HETATM   48  C17 UNL     1      23.035  37.202  46.073  1.00  0.00     0.039 A 
HETATM   49  C18 UNL     1      23.359  36.132  45.104  1.00  0.00     0.011 A 
HETATM   50  C19 UNL     1      23.214  37.547  44.629  1.00  0.00     0.011 A 
ENDBRANCH  37  48
ENDBRANCH   6  33
TORSDOF 8
ENDMDL
