MODEL 1
REMARK VINA RESULT: -8.635333878      0.000      0.000
REMARK  13 active torsions:
REMARK  status: ('A' for Active; 'I' for Inactive)
REMARK    1  A    between atoms: C1_2  and  O2_3 
REMARK    2  A    between atoms: C1_2  and  C4_7 
REMARK    3  A    between atoms: O2_3  and  C2_4 
REMARK    4  A    between atoms: C2_4  and  C3_5 
REMARK    5  A    between atoms: C4_7  and  N1_8 
REMARK    6  A    between atoms: N1_8  and  C5_10 
REMARK    7  A    between atoms: C5_10  and  C6_12 
REMARK    8  A    between atoms: C6_12  and  C7_13 
REMARK    9  A    between atoms: C7_13  and  S2_14 
REMARK   10  A    between atoms: S2_14  and  C8_15 
REMARK   11  A    between atoms: C8_15  and  C9_16 
REMARK   12  A    between atoms: C11_18  and  C12_19 
REMARK   13  A    between atoms: C14_24  and  C15_25 
ROOT
HETATM    1  C7  UNL     1      62.461  43.203  24.391  1.00  0.00     0.081 C 
ENDROOT
BRANCH   1   2
HETATM    2  C6  UNL     1      61.635  42.917  25.662  1.00  0.00     0.079 C 
BRANCH   2   3
HETATM    3  C5  UNL     1      61.042  41.580  25.615  1.00  0.00     0.075 C 
HETATM    4  S1  UNL     1      59.337  41.546  25.649  1.00  0.00    -0.066 SA
BRANCH   3   5
HETATM    5  N1  UNL     1      61.667  40.357  25.565  1.00  0.00    -0.366 N 
ATOM      6  H1  UNL     1      61.627  39.885  26.468  1.00  0.00     0.161 HD
BRANCH   5   7
HETATM    7  C4  UNL     1      62.349  39.576  24.609  1.00  0.00     0.119 C 
HETATM    8  C17 UNL     1      63.821  39.686  24.494  1.00  0.00     0.041 C 
HETATM    9  C18 UNL     1      64.310  38.334  24.031  1.00  0.00     0.003 C 
HETATM   10  C19 UNL     1      63.286  37.340  24.490  1.00  0.00     0.003 C 
HETATM   11  C20 UNL     1      62.055  38.101  24.914  1.00  0.00     0.041 C 
BRANCH   7  12
HETATM   12  C1  UNL     1      61.789  39.787  23.235  1.00  0.00     0.287 C 
HETATM   13  O1  UNL     1      62.490  40.237  22.306  1.00  0.00    -0.262 OA
BRANCH  12  14
HETATM   14  O2  UNL     1      60.476  39.494  22.976  1.00  0.00    -0.317 OA
BRANCH  14  15
HETATM   15  C2  UNL     1      59.901  39.917  21.715  1.00  0.00     0.210 C 
BRANCH  15  16
HETATM   16  C3  UNL     1      58.533  40.516  22.046  1.00  0.00     0.248 C 
HETATM   17  F1  UNL     1      57.504  39.761  21.576  1.00  0.00    -0.253 F 
ENDBRANCH  15  16
ENDBRANCH  14  15
ENDBRANCH  12  14
ENDBRANCH   7  12
ENDBRANCH   5   7
ENDBRANCH   3   5
ENDBRANCH   2   3
ENDBRANCH   1   2
BRANCH   1  18
HETATM   18  S2  UNL     1      61.627  44.130  23.194  1.00  0.00    -0.164 SA
BRANCH  18  19
HETATM   19  C8  UNL     1      60.936  43.490  21.751  1.00  0.00     0.112 C 
BRANCH  19  20
HETATM   20  C9  UNL     1      61.812  43.395  20.558  1.00  0.00    -0.047 A 
HETATM   21  C10 UNL     1      62.669  44.505  20.372  1.00  0.00     0.024 A 
HETATM   22  C11 UNL     1      63.447  44.563  19.243  1.00  0.00     0.049 A 
HETATM   23  C13 UNL     1      63.384  43.552  18.316  1.00  0.00     0.032 A 
HETATM   24  C14 UNL     1      62.530  42.451  18.508  1.00  0.00     0.049 A 
HETATM   25  C16 UNL     1      61.746  42.397  19.653  1.00  0.00     0.024 A 
BRANCH  22  26
HETATM   26  C12 UNL     1      64.362  45.748  19.021  1.00  0.00     0.417 C 
HETATM   27  F2  UNL     1      63.767  46.842  19.572  1.00  0.00    -0.166 F 
HETATM   28  F3  UNL     1      64.551  45.961  17.656  1.00  0.00    -0.166 F 
HETATM   29  F4  UNL     1      65.553  45.542  19.651  1.00  0.00    -0.166 F 
ENDBRANCH  22  26
BRANCH  24  30
HETATM   30  C15 UNL     1      62.474  41.417  17.451  1.00  0.00     0.417 C 
HETATM   31  F5  UNL     1      62.401  40.179  18.039  1.00  0.00    -0.166 F 
HETATM   32  F6  UNL     1      63.682  41.456  16.733  1.00  0.00    -0.166 F 
HETATM   33  F7  UNL     1      61.416  41.666  16.616  1.00  0.00    -0.166 F 
ENDBRANCH  24  30
ENDBRANCH  19  20
ENDBRANCH  18  19
ENDBRANCH   1  18
TORSDOF 13
ENDMDL
MODEL 2
REMARK VINA RESULT: -8.589696156      5.684      9.911
REMARK  13 active torsions:
REMARK  status: ('A' for Active; 'I' for Inactive)
REMARK    1  A    between atoms: C1_2  and  O2_3 
REMARK    2  A    between atoms: C1_2  and  C4_7 
REMARK    3  A    between atoms: O2_3  and  C2_4 
REMARK    4  A    between atoms: C2_4  and  C3_5 
REMARK    5  A    between atoms: C4_7  and  N1_8 
REMARK    6  A    between atoms: N1_8  and  C5_10 
REMARK    7  A    between atoms: C5_10  and  C6_12 
REMARK    8  A    between atoms: C6_12  and  C7_13 
REMARK    9  A    between atoms: C7_13  and  S2_14 
REMARK   10  A    between atoms: S2_14  and  C8_15 
REMARK   11  A    between atoms: C8_15  and  C9_16 
REMARK   12  A    between atoms: C11_18  and  C12_19 
REMARK   13  A    between atoms: C14_24  and  C15_25 
ROOT
HETATM    1  C7  UNL     1      58.225  41.471  23.625  1.00  0.00     0.081 C 
ENDROOT
BRANCH   1   2
HETATM    2  C6  UNL     1      59.602  41.092  24.207  1.00  0.00     0.079 C 
BRANCH   2   3
HETATM    3  C5  UNL     1      60.372  40.285  23.259  1.00  0.00     0.075 C 
HETATM    4  S1  UNL     1      60.214  40.749  21.625  1.00  0.00    -0.066 SA
BRANCH   3   5
HETATM    5  N1  UNL     1      61.184  39.204  23.502  1.00  0.00    -0.366 N 
ATOM      6  H1  UNL     1      60.763  38.341  23.156  1.00  0.00     0.161 HD
BRANCH   5   7
HETATM    7  C4  UNL     1      62.439  38.958  24.098  1.00  0.00     0.119 C 
HETATM    8  C17 UNL     1      62.685  37.662  24.770  1.00  0.00     0.041 C 
HETATM    9  C18 UNL     1      64.161  37.384  24.620  1.00  0.00     0.003 C 
HETATM   10  C19 UNL     1      64.602  38.117  23.389  1.00  0.00     0.003 C 
HETATM   11  C20 UNL     1      63.508  39.081  23.004  1.00  0.00     0.041 C 
BRANCH   7  12
HETATM   12  C1  UNL     1      62.793  40.033  25.081  1.00  0.00     0.287 C 
HETATM   13  O1  UNL     1      62.427  39.973  26.272  1.00  0.00    -0.262 OA
BRANCH  12  14
HETATM   14  O2  UNL     1      63.526  41.118  24.678  1.00  0.00    -0.317 OA
BRANCH  14  15
HETATM   15  C2  UNL     1      62.977  42.444  24.877  1.00  0.00     0.210 C 
BRANCH  15  16
HETATM   16  C3  UNL     1      62.759  43.032  23.482  1.00  0.00     0.248 C 
HETATM   17  F1  UNL     1      63.278  42.250  22.497  1.00  0.00    -0.253 F 
ENDBRANCH  15  16
ENDBRANCH  14  15
ENDBRANCH  12  14
ENDBRANCH   7  12
ENDBRANCH   5   7
ENDBRANCH   3   5
ENDBRANCH   2   3
ENDBRANCH   1   2
BRANCH   1  18
HETATM   18  S2  UNL     1      56.936  41.450  24.776  1.00  0.00    -0.164 SA
BRANCH  18  19
HETATM   19  C8  UNL     1      57.099  41.820  26.450  1.00  0.00     0.112 C 
BRANCH  19  20
HETATM   20  C9  UNL     1      55.853  42.028  27.229  1.00  0.00    -0.047 A 
HETATM   21  C10 UNL     1      54.868  41.032  27.033  1.00  0.00     0.024 A 
HETATM   22  C11 UNL     1      53.641  41.185  27.627  1.00  0.00     0.049 A 
HETATM   23  C13 UNL     1      53.388  42.292  28.399  1.00  0.00     0.032 A 
HETATM   24  C14 UNL     1      54.373  43.278  28.590  1.00  0.00     0.049 A 
HETATM   25  C16 UNL     1      55.613  43.117  27.987  1.00  0.00     0.024 A 
BRANCH  22  26
HETATM   26  C12 UNL     1      52.570  40.136  27.421  1.00  0.00     0.417 C 
HETATM   27  F2  UNL     1      51.606  40.335  28.362  1.00  0.00    -0.166 F 
HETATM   28  F3  UNL     1      53.111  38.860  27.574  1.00  0.00    -0.166 F 
HETATM   29  F4  UNL     1      52.005  40.281  26.189  1.00  0.00    -0.166 F 
ENDBRANCH  22  26
BRANCH  24  30
HETATM   30  C15 UNL     1      54.023  44.470  29.395  1.00  0.00     0.417 C 
HETATM   31  F5  UNL     1      53.148  44.101  30.384  1.00  0.00    -0.166 F 
HETATM   32  F6  UNL     1      53.341  45.377  28.564  1.00  0.00    -0.166 F 
HETATM   33  F7  UNL     1      55.165  45.045  29.890  1.00  0.00    -0.166 F 
ENDBRANCH  24  30
ENDBRANCH  19  20
ENDBRANCH  18  19
ENDBRANCH   1  18
TORSDOF 13
ENDMDL
MODEL 3
REMARK VINA RESULT: -8.540321944      5.672      9.505
REMARK  13 active torsions:
REMARK  status: ('A' for Active; 'I' for Inactive)
REMARK    1  A    between atoms: C1_2  and  O2_3 
REMARK    2  A    between atoms: C1_2  and  C4_7 
REMARK    3  A    between atoms: O2_3  and  C2_4 
REMARK    4  A    between atoms: C2_4  and  C3_5 
REMARK    5  A    between atoms: C4_7  and  N1_8 
REMARK    6  A    between atoms: N1_8  and  C5_10 
REMARK    7  A    between atoms: C5_10  and  C6_12 
REMARK    8  A    between atoms: C6_12  and  C7_13 
REMARK    9  A    between atoms: C7_13  and  S2_14 
REMARK   10  A    between atoms: S2_14  and  C8_15 
REMARK   11  A    between atoms: C8_15  and  C9_16 
REMARK   12  A    between atoms: C11_18  and  C12_19 
REMARK   13  A    between atoms: C14_24  and  C15_25 
ROOT
HETATM    1  C7  UNL     1      59.311  41.168  24.946  1.00  0.00     0.081 C 
ENDROOT
BRANCH   1   2
HETATM    2  C6  UNL     1      59.529  41.353  23.430  1.00  0.00     0.079 C 
BRANCH   2   3
HETATM    3  C5  UNL     1      60.466  40.357  22.907  1.00  0.00     0.075 C 
HETATM    4  S1  UNL     1      60.824  40.507  21.247  1.00  0.00    -0.066 SA
BRANCH   3   5
HETATM    5  N1  UNL     1      61.078  39.316  23.563  1.00  0.00    -0.366 N 
ATOM      6  H1  UNL     1      60.447  38.521  23.664  1.00  0.00     0.161 HD
BRANCH   5   7
HETATM    7  C4  UNL     1      62.338  39.044  24.135  1.00  0.00     0.119 C 
HETATM    8  C17 UNL     1      62.578  37.733  24.780  1.00  0.00     0.041 C 
HETATM    9  C18 UNL     1      64.049  37.439  24.603  1.00  0.00     0.003 C 
HETATM   10  C19 UNL     1      64.480  38.190  23.379  1.00  0.00     0.003 C 
HETATM   11  C20 UNL     1      63.392  39.174  23.028  1.00  0.00     0.041 C 
BRANCH   7  12
HETATM   12  C1  UNL     1      62.720  40.096  25.132  1.00  0.00     0.287 C 
HETATM   13  O1  UNL     1      62.396  40.004  26.334  1.00  0.00    -0.262 OA
BRANCH  12  14
HETATM   14  O2  UNL     1      63.433  41.195  24.733  1.00  0.00    -0.317 OA
BRANCH  14  15
HETATM   15  C2  UNL     1      62.811  42.501  24.819  1.00  0.00     0.210 C 
BRANCH  15  16
HETATM   16  C3  UNL     1      62.917  43.120  23.424  1.00  0.00     0.248 C 
HETATM   17  F1  UNL     1      61.939  44.033  23.181  1.00  0.00    -0.253 F 
ENDBRANCH  15  16
ENDBRANCH  14  15
ENDBRANCH  12  14
ENDBRANCH   7  12
ENDBRANCH   5   7
ENDBRANCH   3   5
ENDBRANCH   2   3
ENDBRANCH   1   2
BRANCH   1  18
HETATM   18  S2  UNL     1      57.758  41.680  25.508  1.00  0.00    -0.164 SA
BRANCH  18  19
HETATM   19  C8  UNL     1      57.232  41.622  27.147  1.00  0.00     0.112 C 
BRANCH  19  20
HETATM   20  C9  UNL     1      55.779  41.774  27.404  1.00  0.00    -0.047 A 
HETATM   21  C10 UNL     1      55.430  42.943  28.119  1.00  0.00     0.024 A 
HETATM   22  C11 UNL     1      54.124  43.127  28.497  1.00  0.00     0.049 A 
HETATM   23  C13 UNL     1      53.180  42.183  28.177  1.00  0.00     0.032 A 
HETATM   24  C14 UNL     1      53.534  41.022  27.465  1.00  0.00     0.049 A 
HETATM   25  C16 UNL     1      54.857  40.842  27.085  1.00  0.00     0.024 A 
BRANCH  22  26
HETATM   26  C12 UNL     1      53.733  44.367  29.272  1.00  0.00     0.417 C 
HETATM   27  F2  UNL     1      54.878  45.020  29.615  1.00  0.00    -0.166 F 
HETATM   28  F3  UNL     1      53.037  44.012  30.427  1.00  0.00    -0.166 F 
HETATM   29  F4  UNL     1      52.986  45.192  28.487  1.00  0.00    -0.166 F 
ENDBRANCH  22  26
BRANCH  24  30
HETATM   30  C15 UNL     1      52.480  40.020  27.192  1.00  0.00     0.417 C 
HETATM   31  F5  UNL     1      52.954  38.773  27.509  1.00  0.00    -0.166 F 
HETATM   32  F6  UNL     1      52.223  40.019  25.808  1.00  0.00    -0.166 F 
HETATM   33  F7  UNL     1      51.342  40.344  27.886  1.00  0.00    -0.166 F 
ENDBRANCH  24  30
ENDBRANCH  19  20
ENDBRANCH  18  19
ENDBRANCH   1  18
TORSDOF 13
ENDMDL
MODEL 4
REMARK VINA RESULT: -8.448067538      3.788      7.883
REMARK  13 active torsions:
REMARK  status: ('A' for Active; 'I' for Inactive)
REMARK    1  A    between atoms: C1_2  and  O2_3 
REMARK    2  A    between atoms: C1_2  and  C4_7 
REMARK    3  A    between atoms: O2_3  and  C2_4 
REMARK    4  A    between atoms: C2_4  and  C3_5 
REMARK    5  A    between atoms: C4_7  and  N1_8 
REMARK    6  A    between atoms: N1_8  and  C5_10 
REMARK    7  A    between atoms: C5_10  and  C6_12 
REMARK    8  A    between atoms: C6_12  and  C7_13 
REMARK    9  A    between atoms: C7_13  and  S2_14 
REMARK   10  A    between atoms: S2_14  and  C8_15 
REMARK   11  A    between atoms: C8_15  and  C9_16 
REMARK   12  A    between atoms: C11_18  and  C12_19 
REMARK   13  A    between atoms: C14_24  and  C15_25 
ROOT
HETATM    1  C7  UNL     1      59.995  41.945  20.866  1.00  0.00     0.081 C 
ENDROOT
BRANCH   1   2
HETATM    2  C6  UNL     1      60.833  40.710  20.475  1.00  0.00     0.079 C 
BRANCH   2   3
HETATM    3  C5  UNL     1      62.200  40.818  20.986  1.00  0.00     0.075 C 
HETATM    4  S1  UNL     1      63.168  41.988  20.212  1.00  0.00    -0.066 SA
BRANCH   3   5
HETATM    5  N1  UNL     1      62.809  40.098  21.986  1.00  0.00    -0.366 N 
ATOM      6  H1  UNL     1      63.650  39.632  21.646  1.00  0.00     0.161 HD
BRANCH   5   7
HETATM    7  C4  UNL     1      62.591  39.825  23.353  1.00  0.00     0.119 C 
HETATM    8  C17 UNL     1      61.286  39.278  23.788  1.00  0.00     0.041 C 
HETATM    9  C18 UNL     1      61.569  38.429  25.004  1.00  0.00     0.003 C 
HETATM   10  C19 UNL     1      62.994  37.981  24.877  1.00  0.00     0.003 C 
HETATM   11  C20 UNL     1      63.650  38.809  23.801  1.00  0.00     0.041 C 
BRANCH   7  12
HETATM   12  C1  UNL     1      62.860  41.034  24.197  1.00  0.00     0.287 C 
HETATM   13  O1  UNL     1      63.766  41.042  25.055  1.00  0.00    -0.262 OA
BRANCH  12  14
HETATM   14  O2  UNL     1      62.097  42.162  24.045  1.00  0.00    -0.317 OA
BRANCH  14  15
HETATM   15  C2  UNL     1      62.742  43.390  23.628  1.00  0.00     0.210 C 
BRANCH  15  16
HETATM   16  C3  UNL     1      61.660  44.236  22.955  1.00  0.00     0.248 C 
HETATM   17  F1  UNL     1      62.108  44.865  21.835  1.00  0.00    -0.253 F 
ENDBRANCH  15  16
ENDBRANCH  14  15
ENDBRANCH  12  14
ENDBRANCH   7  12
ENDBRANCH   5   7
ENDBRANCH   3   5
ENDBRANCH   2   3
ENDBRANCH   1   2
BRANCH   1  18
HETATM   18  S2  UNL     1      58.888  41.672  22.165  1.00  0.00    -0.164 SA
BRANCH  18  19
HETATM   19  C8  UNL     1      57.348  40.915  22.010  1.00  0.00     0.112 C 
BRANCH  19  20
HETATM   20  C9  UNL     1      56.423  41.005  23.167  1.00  0.00    -0.047 A 
HETATM   21  C10 UNL     1      57.042  41.379  24.382  1.00  0.00     0.024 A 
HETATM   22  C11 UNL     1      56.294  41.392  25.533  1.00  0.00     0.049 A 
HETATM   23  C13 UNL     1      54.966  41.045  25.489  1.00  0.00     0.032 A 
HETATM   24  C14 UNL     1      54.358  40.674  24.276  1.00  0.00     0.049 A 
HETATM   25  C16 UNL     1      55.119  40.664  23.116  1.00  0.00     0.024 A 
BRANCH  22  26
HETATM   26  C12 UNL     1      56.940  41.780  26.845  1.00  0.00     0.417 C 
HETATM   27  F2  UNL     1      58.269  41.969  26.613  1.00  0.00    -0.166 F 
HETATM   28  F3  UNL     1      56.774  40.761  27.783  1.00  0.00    -0.166 F 
HETATM   29  F4  UNL     1      56.411  42.951  27.298  1.00  0.00    -0.166 F 
ENDBRANCH  22  26
BRANCH  24  30
HETATM   30  C15 UNL     1      52.936  40.266  24.303  1.00  0.00     0.417 C 
HETATM   31  F5  UNL     1      52.151  41.362  24.045  1.00  0.00    -0.166 F 
HETATM   32  F6  UNL     1      52.624  39.840  25.607  1.00  0.00    -0.166 F 
HETATM   33  F7  UNL     1      52.729  39.248  23.408  1.00  0.00    -0.166 F 
ENDBRANCH  24  30
ENDBRANCH  19  20
ENDBRANCH  18  19
ENDBRANCH   1  18
TORSDOF 13
ENDMDL
MODEL 5
REMARK VINA RESULT: -8.358077546      1.787      4.086
REMARK  13 active torsions:
REMARK  status: ('A' for Active; 'I' for Inactive)
REMARK    1  A    between atoms: C1_2  and  O2_3 
REMARK    2  A    between atoms: C1_2  and  C4_7 
REMARK    3  A    between atoms: O2_3  and  C2_4 
REMARK    4  A    between atoms: C2_4  and  C3_5 
REMARK    5  A    between atoms: C4_7  and  N1_8 
REMARK    6  A    between atoms: N1_8  and  C5_10 
REMARK    7  A    between atoms: C5_10  and  C6_12 
REMARK    8  A    between atoms: C6_12  and  C7_13 
REMARK    9  A    between atoms: C7_13  and  S2_14 
REMARK   10  A    between atoms: S2_14  and  C8_15 
REMARK   11  A    between atoms: C8_15  and  C9_16 
REMARK   12  A    between atoms: C11_18  and  C12_19 
REMARK   13  A    between atoms: C14_24  and  C15_25 
ROOT
HETATM    1  C7  UNL     1      58.355  41.036  21.932  1.00  0.00     0.081 C 
ENDROOT
BRANCH   1   2
HETATM    2  C6  UNL     1      59.293  39.827  22.126  1.00  0.00     0.079 C 
BRANCH   2   3
HETATM    3  C5  UNL     1      60.312  40.107  23.139  1.00  0.00     0.075 C 
HETATM    4  S1  UNL     1      59.751  40.948  24.512  1.00  0.00    -0.066 SA
BRANCH   3   5
HETATM    5  N1  UNL     1      61.652  39.802  23.126  1.00  0.00    -0.366 N 
ATOM      6  H1  UNL     1      62.089  40.095  22.253  1.00  0.00     0.161 HD
BRANCH   5   7
HETATM    7  C4  UNL     1      62.589  39.195  23.989  1.00  0.00     0.119 C 
HETATM    8  C17 UNL     1      62.265  37.895  24.618  1.00  0.00     0.041 C 
HETATM    9  C18 UNL     1      63.581  37.179  24.810  1.00  0.00     0.003 C 
HETATM   10  C19 UNL     1      64.509  37.728  23.768  1.00  0.00     0.003 C 
HETATM   11  C20 UNL     1      63.882  38.973  23.193  1.00  0.00     0.041 C 
BRANCH   7  12
HETATM   12  C1  UNL     1      62.992  40.125  25.093  1.00  0.00     0.287 C 
HETATM   13  O1  UNL     1      62.671  39.906  26.279  1.00  0.00    -0.262 OA
BRANCH  12  14
HETATM   14  O2  UNL     1      63.721  41.251  24.813  1.00  0.00    -0.317 OA
BRANCH  14  15
HETATM   15  C2  UNL     1      63.105  42.547  25.005  1.00  0.00     0.210 C 
BRANCH  15  16
HETATM   16  C3  UNL     1      62.965  43.167  23.613  1.00  0.00     0.248 C 
HETATM   17  F1  UNL     1      63.388  42.334  22.625  1.00  0.00    -0.253 F 
ENDBRANCH  15  16
ENDBRANCH  14  15
ENDBRANCH  12  14
ENDBRANCH   7  12
ENDBRANCH   5   7
ENDBRANCH   3   5
ENDBRANCH   2   3
ENDBRANCH   1   2
BRANCH   1  18
HETATM   18  S2  UNL     1      59.003  42.284  20.928  1.00  0.00    -0.164 SA
BRANCH  18  19
HETATM   19  C8  UNL     1      60.393  43.231  21.298  1.00  0.00     0.112 C 
BRANCH  19  20
HETATM   20  C9  UNL     1      61.388  43.436  20.218  1.00  0.00    -0.047 A 
HETATM   21  C10 UNL     1      61.487  42.363  19.302  1.00  0.00     0.024 A 
HETATM   22  C11 UNL     1      62.449  42.409  18.324  1.00  0.00     0.049 A 
HETATM   23  C13 UNL     1      63.295  43.488  18.248  1.00  0.00     0.032 A 
HETATM   24  C14 UNL     1      63.192  44.551  19.163  1.00  0.00     0.049 A 
HETATM   25  C16 UNL     1      62.215  44.500  20.148  1.00  0.00     0.024 A 
BRANCH  22  26
HETATM   26  C12 UNL     1      62.577  41.265  17.342  1.00  0.00     0.417 C 
HETATM   27  F2  UNL     1      61.542  41.358  16.460  1.00  0.00    -0.166 F 
HETATM   28  F3  UNL     1      62.507  40.045  18.012  1.00  0.00    -0.166 F 
HETATM   29  F4  UNL     1      63.744  41.374  16.648  1.00  0.00    -0.166 F 
ENDBRANCH  22  26
BRANCH  24  30
HETATM   30  C15 UNL     1      64.163  45.662  19.056  1.00  0.00     0.417 C 
HETATM   31  F5  UNL     1      65.303  45.328  19.743  1.00  0.00    -0.166 F 
HETATM   32  F6  UNL     1      63.616  46.788  19.698  1.00  0.00    -0.166 F 
HETATM   33  F7  UNL     1      64.406  45.940  17.736  1.00  0.00    -0.166 F 
ENDBRANCH  24  30
ENDBRANCH  19  20
ENDBRANCH  18  19
ENDBRANCH   1  18
TORSDOF 13
ENDMDL
