MODEL 1
REMARK VINA RESULT: -9.599896301      0.000      0.000
REMARK  11 active torsions:
REMARK  status: ('A' for Active; 'I' for Inactive)
REMARK    1  A    between atoms: C2_2  and  C3_3 
REMARK    2  A    between atoms: C3_3  and  C4_4 
REMARK    3  A    between atoms: C4_4  and  C5_6 
REMARK    4  A    between atoms: C6_7  and  C7_8 
REMARK    5  A    between atoms: C7_8  and  N1_9 
REMARK    6  A    between atoms: N1_9  and  C8_12 
REMARK    7  A    between atoms: C8_12  and  C9_13 
REMARK    8  A    between atoms: C9_13  and  N2_14 
REMARK    9  A    between atoms: C16_24  and  C17_25 
REMARK   10  A    between atoms: C20_28  and  C21_29 
REMARK   11  A    between atoms: C23_33  and  C24_34 
ROOT
HETATM    1  C5  UNL     1      59.179  40.900  23.891  1.00  0.00     0.054 A 
HETATM    2  C6  UNL     1      57.943  41.164  23.249  1.00  0.00     0.006 A 
HETATM    3  C15 UNL     1      58.023  40.502  22.055  1.00  0.00     0.152 A 
HETATM    4  O2  UNL     1      59.167  39.920  22.002  1.00  0.00    -0.320 OA
HETATM    5  C16 UNL     1      59.917  40.104  23.053  1.00  0.00     0.100 A 
ENDROOT
BRANCH   2   6
HETATM    6  C7  UNL     1      56.837  41.995  23.816  1.00  0.00     0.273 C 
BRANCH   6   7
HETATM    7  N1  UNL     1      55.623  41.582  23.164  1.00  0.00    -0.070 N 
ATOM      8  H12 UNL     1      54.974  42.359  23.042  1.00  0.00     0.277 HD
ATOM      9  H11 UNL     1      55.777  41.356  22.182  1.00  0.00     0.277 HD
BRANCH   7  10
HETATM   10  C8  UNL     1      55.020  40.492  23.872  1.00  0.00     0.262 C 
BRANCH  10  11
HETATM   11  C9  UNL     1      53.554  40.702  24.024  1.00  0.00     0.299 C 
BRANCH  11  12
HETATM   12  N2  UNL     1      53.087  40.359  25.365  1.00  0.00     0.090 N 
HETATM   13  C10 UNL     1      51.911  41.099  25.708  1.00  0.00     0.278 C 
HETATM   14  C11 UNL     1      52.212  41.968  26.919  1.00  0.00     0.109 C 
HETATM   15  C12 UNL     1      52.610  41.123  28.108  1.00  0.00     0.246 C 
HETATM   16  F1  UNL     1      53.276  41.938  28.999  1.00  0.00    -0.206 F 
HETATM   17  F2  UNL     1      51.441  40.647  28.671  1.00  0.00    -0.206 F 
HETATM   18  C13 UNL     1      53.476  39.959  27.672  1.00  0.00     0.109 C 
HETATM   19  C14 UNL     1      54.118  40.370  26.353  1.00  0.00     0.278 C 
ENDBRANCH  11  12
ENDBRANCH  10  11
ENDBRANCH   7  10
ENDBRANCH   6   7
ENDBRANCH   2   6
BRANCH   1  20
HETATM   20  C4  UNL     1      59.444  41.495  25.190  1.00  0.00     0.163 C 
HETATM   21  O1  UNL     1      58.806  41.193  26.253  1.00  0.00    -0.292 OA
BRANCH  20  22
HETATM   22  C3  UNL     1      60.513  42.520  25.312  1.00  0.00     0.084 C 
BRANCH  22  23
HETATM   23  C2  UNL     1      61.809  41.921  25.815  1.00  0.00     0.003 C 
HETATM   24  C1  UNL     1      62.922  42.408  24.919  1.00  0.00     0.005 C 
ENDBRANCH  22  23
ENDBRANCH  20  22
ENDBRANCH   1  20
BRANCH   5  25
HETATM   25  C17 UNL     1      61.264  39.554  23.236  1.00  0.00     0.014 A 
HETATM   26  C18 UNL     1      61.554  38.664  24.253  1.00  0.00     0.016 A 
HETATM   27  C19 UNL     1      62.844  38.153  24.462  1.00  0.00     0.013 A 
HETATM   28  C20 UNL     1      63.890  38.511  23.667  1.00  0.00     0.006 A 
HETATM   29  C22 UNL     1      63.620  39.391  22.657  1.00  0.00     0.029 A 
HETATM   30  C23 UNL     1      62.325  39.915  22.433  1.00  0.00     0.061 A 
BRANCH  28  31
HETATM   31  C21 UNL     1      65.268  37.972  23.880  1.00  0.00     0.386 C 
HETATM   32  F3  UNL     1      65.261  36.904  24.754  1.00  0.00    -0.209 F 
HETATM   33  F4  UNL     1      65.767  37.635  22.638  1.00  0.00    -0.209 F 
ENDBRANCH  28  31
BRANCH  30  34
HETATM   34  C24 UNL     1      62.196  40.869  21.328  1.00  0.00     0.418 C 
HETATM   35  F5  UNL     1      61.609  42.074  21.667  1.00  0.00    -0.166 F 
HETATM   36  F6  UNL     1      61.650  40.402  20.176  1.00  0.00    -0.166 F 
HETATM   37  F7  UNL     1      63.523  41.287  20.966  1.00  0.00    -0.166 F 
ENDBRANCH  30  34
ENDBRANCH   5  25
TORSDOF 11
ENDMDL
MODEL 2
REMARK VINA RESULT: -9.390900667      1.378      2.457
REMARK  11 active torsions:
REMARK  status: ('A' for Active; 'I' for Inactive)
REMARK    1  A    between atoms: C2_2  and  C3_3 
REMARK    2  A    between atoms: C3_3  and  C4_4 
REMARK    3  A    between atoms: C4_4  and  C5_6 
REMARK    4  A    between atoms: C6_7  and  C7_8 
REMARK    5  A    between atoms: C7_8  and  N1_9 
REMARK    6  A    between atoms: N1_9  and  C8_12 
REMARK    7  A    between atoms: C8_12  and  C9_13 
REMARK    8  A    between atoms: C9_13  and  N2_14 
REMARK    9  A    between atoms: C16_24  and  C17_25 
REMARK   10  A    between atoms: C20_28  and  C21_29 
REMARK   11  A    between atoms: C23_33  and  C24_34 
ROOT
HETATM    1  C5  UNL     1      58.793  40.873  23.602  1.00  0.00     0.054 A 
HETATM    2  C6  UNL     1      57.675  41.471  24.237  1.00  0.00     0.006 A 
HETATM    3  C15 UNL     1      58.029  41.560  25.554  1.00  0.00     0.152 A 
HETATM    4  O2  UNL     1      59.211  41.074  25.679  1.00  0.00    -0.320 OA
HETATM    5  C16 UNL     1      59.739  40.643  24.567  1.00  0.00     0.100 A 
ENDROOT
BRANCH   2   6
HETATM    6  C7  UNL     1      56.414  41.889  23.549  1.00  0.00     0.273 C 
BRANCH   6   7
HETATM    7  N1  UNL     1      55.500  40.781  23.633  1.00  0.00    -0.070 N 
ATOM      8  H12 UNL     1      55.541  40.192  22.802  1.00  0.00     0.277 HD
ATOM      9  H11 UNL     1      55.801  40.092  24.322  1.00  0.00     0.277 HD
BRANCH   7  10
HETATM   10  C8  UNL     1      54.170  41.246  23.892  1.00  0.00     0.262 C 
BRANCH  10  11
HETATM   11  C9  UNL     1      53.328  40.160  24.462  1.00  0.00     0.299 C 
BRANCH  11  12
HETATM   12  N2  UNL     1      53.227  40.250  25.917  1.00  0.00     0.090 N 
HETATM   13  C10 UNL     1      52.026  40.920  26.313  1.00  0.00     0.278 C 
HETATM   14  C11 UNL     1      52.396  42.183  27.075  1.00  0.00     0.109 C 
HETATM   15  C12 UNL     1      53.192  41.853  28.318  1.00  0.00     0.246 C 
HETATM   16  F1  UNL     1      53.855  42.998  28.708  1.00  0.00    -0.206 F 
HETATM   17  F2  UNL     1      52.284  41.469  29.285  1.00  0.00    -0.206 F 
HETATM   18  C13 UNL     1      54.160  40.720  28.049  1.00  0.00     0.109 C 
HETATM   19  C14 UNL     1      54.419  40.721  26.547  1.00  0.00     0.278 C 
ENDBRANCH  11  12
ENDBRANCH  10  11
ENDBRANCH   7  10
ENDBRANCH   6   7
ENDBRANCH   2   6
BRANCH   1  20
HETATM   20  C4  UNL     1      58.733  40.595  22.178  1.00  0.00     0.163 C 
HETATM   21  O1  UNL     1      57.890  39.801  21.643  1.00  0.00    -0.292 OA
BRANCH  20  22
HETATM   22  C3  UNL     1      59.702  41.261  21.269  1.00  0.00     0.084 C 
BRANCH  22  23
HETATM   23  C2  UNL     1      60.843  40.341  20.894  1.00  0.00     0.003 C 
HETATM   24  C1  UNL     1      62.035  41.200  20.544  1.00  0.00     0.005 C 
ENDBRANCH  22  23
ENDBRANCH  20  22
ENDBRANCH   1  20
BRANCH   5  25
HETATM   25  C17 UNL     1      61.070  40.040  24.442  1.00  0.00     0.014 A 
HETATM   26  C18 UNL     1      61.251  38.670  24.436  1.00  0.00     0.016 A 
HETATM   27  C19 UNL     1      62.520  38.077  24.350  1.00  0.00     0.013 A 
HETATM   28  C20 UNL     1      63.653  38.828  24.268  1.00  0.00     0.006 A 
HETATM   29  C22 UNL     1      63.492  40.185  24.272  1.00  0.00     0.029 A 
HETATM   30  C23 UNL     1      62.220  40.798  24.358  1.00  0.00     0.061 A 
BRANCH  28  31
HETATM   31  C21 UNL     1      65.009  38.207  24.174  1.00  0.00     0.386 C 
HETATM   32  F3  UNL     1      65.053  36.993  24.828  1.00  0.00    -0.209 F 
HETATM   33  F4  UNL     1      65.311  38.095  22.832  1.00  0.00    -0.209 F 
ENDBRANCH  28  31
BRANCH  30  34
HETATM   34  C24 UNL     1      62.208  42.263  24.380  1.00  0.00     0.418 C 
HETATM   35  F5  UNL     1      61.794  42.823  25.574  1.00  0.00    -0.166 F 
HETATM   36  F6  UNL     1      61.589  42.885  23.343  1.00  0.00    -0.166 F 
HETATM   37  F7  UNL     1      63.575  42.703  24.314  1.00  0.00    -0.166 F 
ENDBRANCH  30  34
ENDBRANCH   5  25
TORSDOF 11
ENDMDL
MODEL 3
REMARK VINA RESULT: -9.317629133      1.227      1.630
REMARK  11 active torsions:
REMARK  status: ('A' for Active; 'I' for Inactive)
REMARK    1  A    between atoms: C2_2  and  C3_3 
REMARK    2  A    between atoms: C3_3  and  C4_4 
REMARK    3  A    between atoms: C4_4  and  C5_6 
REMARK    4  A    between atoms: C6_7  and  C7_8 
REMARK    5  A    between atoms: C7_8  and  N1_9 
REMARK    6  A    between atoms: N1_9  and  C8_12 
REMARK    7  A    between atoms: C8_12  and  C9_13 
REMARK    8  A    between atoms: C9_13  and  N2_14 
REMARK    9  A    between atoms: C16_24  and  C17_25 
REMARK   10  A    between atoms: C20_28  and  C21_29 
REMARK   11  A    between atoms: C23_33  and  C24_34 
ROOT
HETATM    1  C5  UNL     1      59.638  41.008  24.067  1.00  0.00     0.054 A 
HETATM    2  C6  UNL     1      58.340  41.268  23.562  1.00  0.00     0.006 A 
HETATM    3  C15 UNL     1      58.235  40.480  22.450  1.00  0.00     0.152 A 
HETATM    4  O2  UNL     1      59.337  39.835  22.317  1.00  0.00    -0.320 OA
HETATM    5  C16 UNL     1      60.227  40.089  23.237  1.00  0.00     0.100 A 
ENDROOT
BRANCH   2   6
HETATM    6  C7  UNL     1      57.351  42.213  24.168  1.00  0.00     0.273 C 
BRANCH   6   7
HETATM    7  N1  UNL     1      56.603  41.470  25.147  1.00  0.00    -0.070 N 
ATOM      8  H12 UNL     1      55.654  41.275  24.830  1.00  0.00     0.277 HD
ATOM      9  H11 UNL     1      56.936  40.510  25.229  1.00  0.00     0.277 HD
BRANCH   7  10
HETATM   10  C8  UNL     1      56.615  42.148  26.408  1.00  0.00     0.262 C 
BRANCH  10  11
HETATM   11  C9  UNL     1      56.477  41.183  27.533  1.00  0.00     0.299 C 
BRANCH  11  12
HETATM   12  N2  UNL     1      55.107  41.117  28.035  1.00  0.00     0.090 N 
HETATM   13  C10 UNL     1      54.462  39.908  27.625  1.00  0.00     0.278 C 
HETATM   14  C11 UNL     1      53.262  40.259  26.759  1.00  0.00     0.109 C 
HETATM   15  C12 UNL     1      52.265  41.097  27.526  1.00  0.00     0.246 C 
HETATM   16  F1  UNL     1      51.457  41.735  26.608  1.00  0.00    -0.206 F 
HETATM   17  F2  UNL     1      51.521  40.226  28.300  1.00  0.00    -0.206 F 
HETATM   18  C13 UNL     1      52.976  42.092  28.420  1.00  0.00     0.109 C 
HETATM   19  C14 UNL     1      54.355  42.311  27.809  1.00  0.00     0.278 C 
ENDBRANCH  11  12
ENDBRANCH  10  11
ENDBRANCH   7  10
ENDBRANCH   6   7
ENDBRANCH   2   6
BRANCH   1  20
HETATM   20  C4  UNL     1      60.095  41.722  25.246  1.00  0.00     0.163 C 
HETATM   21  O1  UNL     1      59.660  41.501  26.425  1.00  0.00    -0.292 OA
BRANCH  20  22
HETATM   22  C3  UNL     1      61.129  42.780  25.097  1.00  0.00     0.084 C 
BRANCH  22  23
HETATM   23  C2  UNL     1      62.527  42.227  25.277  1.00  0.00     0.003 C 
HETATM   24  C1  UNL     1      63.412  42.858  24.229  1.00  0.00     0.005 C 
ENDBRANCH  22  23
ENDBRANCH  20  22
ENDBRANCH   1  20
BRANCH   5  25
HETATM   25  C17 UNL     1      61.563  39.490  23.308  1.00  0.00     0.014 A 
HETATM   26  C18 UNL     1      61.912  38.607  24.312  1.00  0.00     0.016 A 
HETATM   27  C19 UNL     1      63.196  38.050  24.414  1.00  0.00     0.013 A 
HETATM   28  C20 UNL     1      64.177  38.353  23.519  1.00  0.00     0.006 A 
HETATM   29  C22 UNL     1      63.849  39.225  22.520  1.00  0.00     0.029 A 
HETATM   30  C23 UNL     1      62.559  39.795  22.403  1.00  0.00     0.061 A 
BRANCH  28  31
HETATM   31  C21 UNL     1      65.548  37.765  23.617  1.00  0.00     0.386 C 
HETATM   32  F3  UNL     1      65.684  36.992  24.752  1.00  0.00    -0.209 F 
HETATM   33  F4  UNL     1      65.761  37.044  22.459  1.00  0.00    -0.209 F 
ENDBRANCH  28  31
BRANCH  30  34
HETATM   34  C24 UNL     1      62.364  40.735  21.295  1.00  0.00     0.418 C 
HETATM   35  F5  UNL     1      61.705  41.902  21.633  1.00  0.00    -0.166 F 
HETATM   36  F6  UNL     1      61.843  40.228  20.148  1.00  0.00    -0.166 F 
HETATM   37  F7  UNL     1      63.660  41.233  20.925  1.00  0.00    -0.166 F 
ENDBRANCH  30  34
ENDBRANCH   5  25
TORSDOF 11
ENDMDL
MODEL 4
REMARK VINA RESULT: -9.217477223      1.252      2.391
REMARK  11 active torsions:
REMARK  status: ('A' for Active; 'I' for Inactive)
REMARK    1  A    between atoms: C2_2  and  C3_3 
REMARK    2  A    between atoms: C3_3  and  C4_4 
REMARK    3  A    between atoms: C4_4  and  C5_6 
REMARK    4  A    between atoms: C6_7  and  C7_8 
REMARK    5  A    between atoms: C7_8  and  N1_9 
REMARK    6  A    between atoms: N1_9  and  C8_12 
REMARK    7  A    between atoms: C8_12  and  C9_13 
REMARK    8  A    between atoms: C9_13  and  N2_14 
REMARK    9  A    between atoms: C16_24  and  C17_25 
REMARK   10  A    between atoms: C20_28  and  C21_29 
REMARK   11  A    between atoms: C23_33  and  C24_34 
ROOT
HETATM    1  C5  UNL     1      59.466  40.586  23.443  1.00  0.00     0.054 A 
HETATM    2  C6  UNL     1      58.419  41.331  24.043  1.00  0.00     0.006 A 
HETATM    3  C15 UNL     1      58.778  41.437  25.358  1.00  0.00     0.152 A 
HETATM    4  O2  UNL     1      59.898  40.828  25.513  1.00  0.00    -0.320 OA
HETATM    5  C16 UNL     1      60.378  40.294  24.424  1.00  0.00     0.100 A 
ENDROOT
BRANCH   2   6
HETATM    6  C7  UNL     1      57.215  41.856  23.329  1.00  0.00     0.273 C 
BRANCH   6   7
HETATM    7  N1  UNL     1      56.082  41.624  24.184  1.00  0.00    -0.070 N 
ATOM      8  H12 UNL     1      56.362  41.491  25.156  1.00  0.00     0.277 HD
ATOM      9  H11 UNL     1      55.518  42.465  24.302  1.00  0.00     0.277 HD
BRANCH   7  10
HETATM   10  C8  UNL     1      55.304  40.524  23.699  1.00  0.00     0.262 C 
BRANCH  10  11
HETATM   11  C9  UNL     1      53.849  40.788  23.863  1.00  0.00     0.299 C 
BRANCH  11  12
HETATM   12  N2  UNL     1      53.349  40.329  25.156  1.00  0.00     0.090 N 
HETATM   13  C10 UNL     1      52.011  40.781  25.386  1.00  0.00     0.278 C 
HETATM   14  C11 UNL     1      51.998  41.677  26.615  1.00  0.00     0.109 C 
HETATM   15  C12 UNL     1      52.465  40.924  27.840  1.00  0.00     0.246 C 
HETATM   16  F1  UNL     1      52.847  41.853  28.784  1.00  0.00    -0.206 F 
HETATM   17  F2  UNL     1      51.386  40.190  28.295  1.00  0.00    -0.206 F 
HETATM   18  C13 UNL     1      53.606  39.990  27.493  1.00  0.00     0.109 C 
HETATM   19  C14 UNL     1      54.257  40.554  26.236  1.00  0.00     0.278 C 
ENDBRANCH  11  12
ENDBRANCH  10  11
ENDBRANCH   7  10
ENDBRANCH   6   7
ENDBRANCH   2   6
BRANCH   1  20
HETATM   20  C4  UNL     1      59.381  40.256  22.031  1.00  0.00     0.163 C 
HETATM   21  O1  UNL     1      58.643  39.326  21.562  1.00  0.00    -0.292 OA
BRANCH  20  22
HETATM   22  C3  UNL     1      60.191  41.030  21.056  1.00  0.00     0.084 C 
BRANCH  22  23
HETATM   23  C2  UNL     1      61.375  40.234  20.553  1.00  0.00     0.003 C 
HETATM   24  C1  UNL     1      62.163  41.117  19.615  1.00  0.00     0.005 C 
ENDBRANCH  22  23
ENDBRANCH  20  22
ENDBRANCH   1  20
BRANCH   5  25
HETATM   25  C17 UNL     1      61.634  39.543  24.335  1.00  0.00     0.014 A 
HETATM   26  C18 UNL     1      61.703  38.200  24.652  1.00  0.00     0.016 A 
HETATM   27  C19 UNL     1      62.903  37.474  24.604  1.00  0.00     0.013 A 
HETATM   28  C20 UNL     1      64.076  38.061  24.239  1.00  0.00     0.006 A 
HETATM   29  C22 UNL     1      64.026  39.389  23.922  1.00  0.00     0.029 A 
HETATM   30  C23 UNL     1      62.825  40.134  23.965  1.00  0.00     0.061 A 
BRANCH  28  31
HETATM   31  C21 UNL     1      65.360  37.297  24.183  1.00  0.00     0.386 C 
HETATM   32  F3  UNL     1      65.333  36.339  23.190  1.00  0.00    -0.209 F 
HETATM   33  F4  UNL     1      66.371  38.219  23.999  1.00  0.00    -0.209 F 
ENDBRANCH  28  31
BRANCH  30  34
HETATM   34  C24 UNL     1      62.933  41.556  23.625  1.00  0.00     0.418 C 
HETATM   35  F5  UNL     1      61.761  42.277  23.764  1.00  0.00    -0.166 F 
HETATM   36  F6  UNL     1      63.519  41.858  22.438  1.00  0.00    -0.166 F 
HETATM   37  F7  UNL     1      63.769  42.171  24.619  1.00  0.00    -0.166 F 
ENDBRANCH  30  34
ENDBRANCH   5  25
TORSDOF 11
ENDMDL
MODEL 5
REMARK VINA RESULT: -9.117362267      2.540      4.336
REMARK  11 active torsions:
REMARK  status: ('A' for Active; 'I' for Inactive)
REMARK    1  A    between atoms: C2_2  and  C3_3 
REMARK    2  A    between atoms: C3_3  and  C4_4 
REMARK    3  A    between atoms: C4_4  and  C5_6 
REMARK    4  A    between atoms: C6_7  and  C7_8 
REMARK    5  A    between atoms: C7_8  and  N1_9 
REMARK    6  A    between atoms: N1_9  and  C8_12 
REMARK    7  A    between atoms: C8_12  and  C9_13 
REMARK    8  A    between atoms: C9_13  and  N2_14 
REMARK    9  A    between atoms: C16_24  and  C17_25 
REMARK   10  A    between atoms: C20_28  and  C21_29 
REMARK   11  A    between atoms: C23_33  and  C24_34 
ROOT
HETATM    1  C5  UNL     1      60.434  41.850  23.796  1.00  0.00     0.054 A 
HETATM    2  C6  UNL     1      59.236  41.325  24.342  1.00  0.00     0.006 A 
HETATM    3  C15 UNL     1      58.332  41.384  23.318  1.00  0.00     0.152 A 
HETATM    4  O2  UNL     1      58.926  41.885  22.295  1.00  0.00    -0.320 OA
HETATM    5  C16 UNL     1      60.179  42.189  22.493  1.00  0.00     0.100 A 
ENDROOT
BRANCH   2   6
HETATM    6  C7  UNL     1      59.071  40.828  25.743  1.00  0.00     0.273 C 
BRANCH   6   7
HETATM    7  N1  UNL     1      58.359  41.845  26.469  1.00  0.00    -0.070 N 
ATOM      8  H12 UNL     1      58.716  41.955  27.418  1.00  0.00     0.277 HD
ATOM      9  H11 UNL     1      58.569  42.780  26.119  1.00  0.00     0.277 HD
BRANCH   7  10
HETATM   10  C8  UNL     1      56.952  41.578  26.458  1.00  0.00     0.262 C 
BRANCH  10  11
HETATM   11  C9  UNL     1      56.259  42.322  27.545  1.00  0.00     0.299 C 
BRANCH  11  12
HETATM   12  N2  UNL     1      55.054  41.635  28.001  1.00  0.00     0.090 N 
HETATM   13  C10 UNL     1      54.804  40.458  27.225  1.00  0.00     0.278 C 
HETATM   14  C11 UNL     1      53.466  40.610  26.518  1.00  0.00     0.109 C 
HETATM   15  C12 UNL     1      52.341  40.775  27.514  1.00  0.00     0.246 C 
HETATM   16  F1  UNL     1      51.270  41.334  26.850  1.00  0.00    -0.206 F 
HETATM   17  F2  UNL     1      52.019  39.510  27.969  1.00  0.00    -0.206 F 
HETATM   18  C13 UNL     1      52.779  41.639  28.679  1.00  0.00     0.109 C 
HETATM   19  C14 UNL     1      53.929  42.498  28.170  1.00  0.00     0.278 C 
ENDBRANCH  11  12
ENDBRANCH  10  11
ENDBRANCH   7  10
ENDBRANCH   6   7
ENDBRANCH   2   6
BRANCH   1  20
HETATM   20  C4  UNL     1      61.608  41.966  24.645  1.00  0.00     0.163 C 
HETATM   21  O1  UNL     1      61.725  42.824  25.583  1.00  0.00    -0.292 OA
BRANCH  20  22
HETATM   22  C3  UNL     1      62.753  41.044  24.428  1.00  0.00     0.084 C 
BRANCH  22  23
HETATM   23  C2  UNL     1      62.695  39.849  25.353  1.00  0.00     0.003 C 
HETATM   24  C1  UNL     1      62.126  38.688  24.575  1.00  0.00     0.005 C 
ENDBRANCH  22  23
ENDBRANCH  20  22
ENDBRANCH   1  20
BRANCH   5  25
HETATM   25  C17 UNL     1      61.073  42.778  21.491  1.00  0.00     0.014 A 
HETATM   26  C18 UNL     1      61.205  44.146  21.346  1.00  0.00     0.016 A 
HETATM   27  C19 UNL     1      62.030  44.725  20.371  1.00  0.00     0.013 A 
HETATM   28  C20 UNL     1      62.754  43.962  19.505  1.00  0.00     0.006 A 
HETATM   29  C22 UNL     1      62.636  42.607  19.635  1.00  0.00     0.029 A 
HETATM   30  C23 UNL     1      61.808  42.008  20.613  1.00  0.00     0.061 A 
BRANCH  28  31
HETATM   31  C21 UNL     1      63.638  44.569  18.464  1.00  0.00     0.386 C 
HETATM   32  F3  UNL     1      62.900  45.192  17.478  1.00  0.00    -0.209 F 
HETATM   33  F4  UNL     1      64.491  45.439  19.114  1.00  0.00    -0.209 F 
ENDBRANCH  28  31
BRANCH  30  34
HETATM   34  C24 UNL     1      61.762  40.543  20.612  1.00  0.00     0.418 C 
HETATM   35  F5  UNL     1      60.500  40.001  20.774  1.00  0.00    -0.166 F 
HETATM   36  F6  UNL     1      62.644  39.903  21.422  1.00  0.00    -0.166 F 
HETATM   37  F7  UNL     1      62.094  40.106  19.283  1.00  0.00    -0.166 F 
ENDBRANCH  30  34
ENDBRANCH   5  25
TORSDOF 11
ENDMDL
