MODEL 1
REMARK VINA RESULT: -9.723024986      0.000      0.000
REMARK  11 active torsions:
REMARK  status: ('A' for Active; 'I' for Inactive)
REMARK    1  A    between atoms: C2_2  and  C9_12 
REMARK       I    between atoms: N1_3  and  C3_5 
REMARK    2  A    between atoms: C3_5  and  C4_7 
REMARK    3  A    between atoms: C4_7  and  C5_8 
REMARK    4  A    between atoms: C5_8  and  C6_9 
REMARK    5  A    between atoms: C9_12  and  C10_13 
REMARK    6  A    between atoms: C10_13  and  C11_14 
REMARK    7  A    between atoms: N2_24  and  O2_26 
REMARK    8  A    between atoms: O2_26  and  C17_27 
REMARK    9  A    between atoms: C17_27  and  C18_28 
REMARK   10  A    between atoms: C18_28  and  O3_29 
REMARK   11  A    between atoms: C18_28  and  C19_31 
ROOT
HETATM    1  C9  UNL     1      62.708  41.339  21.944  1.00  0.00     0.058 C 
HETATM    2  N2  UNL     1      63.110  40.081  22.118  1.00  0.00    -0.269 N 
ATOM      3  H2  UNL     1      63.584  39.629  21.336  1.00  0.00     0.194 HD
ENDROOT
BRANCH   1   4
HETATM    4  C2  UNL     1      63.009  41.883  20.653  1.00  0.00     0.033 C 
HETATM    5  C1  UNL     1      64.233  42.778  20.552  1.00  0.00     0.070 C 
HETATM    6  N1  UNL     1      62.381  41.708  19.586  1.00  0.00    -0.329 N 
HETATM    7  C3  UNL     1      62.555  42.162  18.286  1.00  0.00     0.222 C 
ATOM      8  H1  UNL     1      61.567  41.103  19.693  1.00  0.00     0.168 HD
HETATM    9  O1  UNL     1      62.688  41.238  17.401  1.00  0.00    -0.273 OA
BRANCH   7  10
HETATM   10  C4  UNL     1      62.599  43.558  17.847  1.00  0.00     0.103 C 
BRANCH  10  11
HETATM   11  C5  UNL     1      61.418  44.357  18.209  1.00  0.00     0.013 C 
BRANCH  11  12
HETATM   12  C6  UNL     1      61.531  45.417  19.224  1.00  0.00    -0.022 C 
HETATM   13  C7  UNL     1      62.932  45.950  19.418  1.00  0.00     0.009 C 
HETATM   14  C8  UNL     1      61.128  44.882  20.619  1.00  0.00     0.009 C 
ENDBRANCH  11  12
ENDBRANCH  10  11
ENDBRANCH   7  10
ENDBRANCH   1   4
BRANCH   1  15
HETATM   15  C10 UNL     1      62.011  41.921  23.048  1.00  0.00     0.104 C 
BRANCH  15  16
HETATM   16  C11 UNL     1      60.621  41.582  23.337  1.00  0.00     0.011 A 
HETATM   17  C12 UNL     1      59.747  41.215  22.345  1.00  0.00     0.146 A 
HETATM   18  F1  UNL     1      60.139  40.992  21.062  1.00  0.00    -0.204 F 
HETATM   19  C13 UNL     1      58.396  40.956  22.568  1.00  0.00     0.074 A 
HETATM   20 CL1  UNL     1      57.304  40.491  21.264  1.00  0.00    -0.081 Cl
HETATM   21  C14 UNL     1      57.883  41.062  23.827  1.00  0.00     0.052 A 
HETATM   22  C15 UNL     1      58.754  41.429  24.849  1.00  0.00     0.058 A 
HETATM   23 CL2  UNL     1      58.049  41.553  26.458  1.00  0.00    -0.082 Cl
HETATM   24  C16 UNL     1      60.089  41.686  24.630  1.00  0.00     0.065 A 
HETATM   25 CL3  UNL     1      61.063  42.138  26.001  1.00  0.00    -0.082 Cl
ENDBRANCH  15  16
ENDBRANCH   1  15
BRANCH   2  26
HETATM   26  O2  UNL     1      62.942  39.363  23.231  1.00  0.00    -0.277 OA
BRANCH  26  27
HETATM   27  C17 UNL     1      63.890  39.198  24.249  1.00  0.00     0.242 C 
BRANCH  27  28
HETATM   28  C18 UNL     1      64.438  37.837  24.382  1.00  0.00     0.251 C 
BRANCH  28  29
HETATM   29  O3  UNL     1      63.356  36.930  24.314  1.00  0.00    -0.384 OA
ATOM     30  H3  UNL     1      63.469  36.292  25.008  1.00  0.00     0.210 HD
ENDBRANCH  28  29
BRANCH  28  31
HETATM   31  C19 UNL     1      65.440  37.417  23.366  1.00  0.00     0.415 C 
HETATM   32  F2  UNL     1      66.709  37.837  23.791  1.00  0.00    -0.168 F 
HETATM   33  F3  UNL     1      65.528  36.038  23.315  1.00  0.00    -0.168 F 
HETATM   34  F4  UNL     1      65.261  37.932  22.124  1.00  0.00    -0.168 F 
ENDBRANCH  28  31
ENDBRANCH  27  28
ENDBRANCH  26  27
ENDBRANCH   2  26
TORSDOF 11
ENDMDL
MODEL 2
REMARK VINA RESULT: -9.416707930      2.903      5.451
REMARK  11 active torsions:
REMARK  status: ('A' for Active; 'I' for Inactive)
REMARK    1  A    between atoms: C2_2  and  C9_12 
REMARK       I    between atoms: N1_3  and  C3_5 
REMARK    2  A    between atoms: C3_5  and  C4_7 
REMARK    3  A    between atoms: C4_7  and  C5_8 
REMARK    4  A    between atoms: C5_8  and  C6_9 
REMARK    5  A    between atoms: C9_12  and  C10_13 
REMARK    6  A    between atoms: C10_13  and  C11_14 
REMARK    7  A    between atoms: N2_24  and  O2_26 
REMARK    8  A    between atoms: O2_26  and  C17_27 
REMARK    9  A    between atoms: C17_27  and  C18_28 
REMARK   10  A    between atoms: C18_28  and  O3_29 
REMARK   11  A    between atoms: C18_28  and  C19_31 
ROOT
HETATM    1  C9  UNL     1      61.477  41.001  22.721  1.00  0.00     0.058 C 
HETATM    2  N2  UNL     1      61.818  40.961  24.008  1.00  0.00    -0.269 N 
ATOM      3  H2  UNL     1      61.085  41.140  24.693  1.00  0.00     0.194 HD
ENDROOT
BRANCH   1   4
HETATM    4  C2  UNL     1      60.095  41.298  22.486  1.00  0.00     0.033 C 
HETATM    5  C1  UNL     1      59.754  42.730  22.108  1.00  0.00     0.070 C 
HETATM    6  N1  UNL     1      59.123  40.514  22.554  1.00  0.00    -0.329 N 
HETATM    7  C3  UNL     1      57.758  40.661  22.355  1.00  0.00     0.222 C 
ATOM      8  H1  UNL     1      59.391  39.563  22.810  1.00  0.00     0.168 HD
HETATM    9  O1  UNL     1      57.256  39.901  21.447  1.00  0.00    -0.273 OA
BRANCH   7  10
HETATM   10  C4  UNL     1      56.865  41.576  23.066  1.00  0.00     0.103 C 
BRANCH  10  11
HETATM   11  C5  UNL     1      56.597  41.215  24.467  1.00  0.00     0.013 C 
BRANCH  11  12
HETATM   12  C6  UNL     1      57.265  41.946  25.556  1.00  0.00    -0.022 C 
HETATM   13  C7  UNL     1      58.662  41.462  25.867  1.00  0.00     0.009 C 
HETATM   14  C8  UNL     1      56.494  41.771  26.886  1.00  0.00     0.009 C 
ENDBRANCH  11  12
ENDBRANCH  10  11
ENDBRANCH   7  10
ENDBRANCH   1   4
BRANCH   1  15
HETATM   15  C10 UNL     1      62.543  40.787  21.794  1.00  0.00     0.104 C 
BRANCH  15  16
HETATM   16  C11 UNL     1      62.638  41.546  20.551  1.00  0.00     0.011 A 
HETATM   17  C12 UNL     1      62.462  40.951  19.327  1.00  0.00     0.146 A 
HETATM   18  F1  UNL     1      62.039  39.666  19.186  1.00  0.00    -0.204 F 
HETATM   19  C13 UNL     1      62.617  41.622  18.117  1.00  0.00     0.074 A 
HETATM   20 CL1  UNL     1      62.385  40.820  16.564  1.00  0.00    -0.081 Cl
HETATM   21  C14 UNL     1      62.960  42.943  18.111  1.00  0.00     0.052 A 
HETATM   22  C15 UNL     1      63.141  43.566  19.342  1.00  0.00     0.058 A 
HETATM   23 CL2  UNL     1      63.582  45.270  19.288  1.00  0.00    -0.082 Cl
HETATM   24  C16 UNL     1      62.988  42.904  20.540  1.00  0.00     0.065 A 
HETATM   25 CL3  UNL     1      63.245  43.808  22.006  1.00  0.00    -0.082 Cl
ENDBRANCH  15  16
ENDBRANCH   1  15
BRANCH   2  26
HETATM   26  O2  UNL     1      63.044  40.706  24.474  1.00  0.00    -0.277 OA
BRANCH  26  27
HETATM   27  C17 UNL     1      63.363  39.772  25.468  1.00  0.00     0.242 C 
BRANCH  27  28
HETATM   28  C18 UNL     1      63.168  38.361  25.090  1.00  0.00     0.251 C 
BRANCH  28  29
HETATM   29  O3  UNL     1      61.841  38.222  24.621  1.00  0.00    -0.384 OA
ATOM     30  H3  UNL     1      61.753  37.348  24.260  1.00  0.00     0.210 HD
ENDBRANCH  28  29
BRANCH  28  31
HETATM   31  C19 UNL     1      64.073  37.819  24.042  1.00  0.00     0.415 C 
HETATM   32  F2  UNL     1      65.400  37.997  24.463  1.00  0.00    -0.168 F 
HETATM   33  F3  UNL     1      63.923  36.448  23.936  1.00  0.00    -0.168 F 
HETATM   34  F4  UNL     1      63.975  38.406  22.824  1.00  0.00    -0.168 F 
ENDBRANCH  28  31
ENDBRANCH  27  28
ENDBRANCH  26  27
ENDBRANCH   2  26
TORSDOF 11
ENDMDL
MODEL 3
REMARK VINA RESULT: -9.381171678      2.746      5.430
REMARK  11 active torsions:
REMARK  status: ('A' for Active; 'I' for Inactive)
REMARK    1  A    between atoms: C2_2  and  C9_12 
REMARK       I    between atoms: N1_3  and  C3_5 
REMARK    2  A    between atoms: C3_5  and  C4_7 
REMARK    3  A    between atoms: C4_7  and  C5_8 
REMARK    4  A    between atoms: C5_8  and  C6_9 
REMARK    5  A    between atoms: C9_12  and  C10_13 
REMARK    6  A    between atoms: C10_13  and  C11_14 
REMARK    7  A    between atoms: N2_24  and  O2_26 
REMARK    8  A    between atoms: O2_26  and  C17_27 
REMARK    9  A    between atoms: C17_27  and  C18_28 
REMARK   10  A    between atoms: C18_28  and  O3_29 
REMARK   11  A    between atoms: C18_28  and  C19_31 
ROOT
HETATM    1  C9  UNL     1      61.268  41.131  22.786  1.00  0.00     0.058 C 
HETATM    2  N2  UNL     1      61.520  40.190  23.695  1.00  0.00    -0.269 N 
ATOM      3  H2  UNL     1      60.719  39.746  24.144  1.00  0.00     0.194 HD
ENDROOT
BRANCH   1   4
HETATM    4  C2  UNL     1      59.875  41.385  22.571  1.00  0.00     0.033 C 
HETATM    5  C1  UNL     1      59.478  42.819  22.259  1.00  0.00     0.070 C 
HETATM    6  N1  UNL     1      58.933  40.563  22.608  1.00  0.00    -0.329 N 
HETATM    7  C3  UNL     1      57.562  40.667  22.422  1.00  0.00     0.222 C 
ATOM      8  H1  UNL     1      59.238  39.613  22.819  1.00  0.00     0.168 HD
HETATM    9  O1  UNL     1      57.084  39.929  21.482  1.00  0.00    -0.273 OA
BRANCH   7  10
HETATM   10  C4  UNL     1      56.640  41.516  23.177  1.00  0.00     0.103 C 
BRANCH  10  11
HETATM   11  C5  UNL     1      56.508  41.171  24.601  1.00  0.00     0.013 C 
BRANCH  11  12
HETATM   12  C6  UNL     1      57.241  41.946  25.616  1.00  0.00    -0.022 C 
HETATM   13  C7  UNL     1      58.633  41.436  25.905  1.00  0.00     0.009 C 
HETATM   14  C8  UNL     1      56.517  41.880  26.981  1.00  0.00     0.009 C 
ENDBRANCH  11  12
ENDBRANCH  10  11
ENDBRANCH   7  10
ENDBRANCH   1   4
BRANCH   1  15
HETATM   15  C10 UNL     1      62.418  41.756  22.212  1.00  0.00     0.104 C 
BRANCH  15  16
HETATM   16  C11 UNL     1      62.400  42.284  20.852  1.00  0.00     0.011 A 
HETATM   17  C12 UNL     1      62.443  41.457  19.757  1.00  0.00     0.146 A 
HETATM   18  F1  UNL     1      62.349  40.104  19.851  1.00  0.00    -0.204 F 
HETATM   19  C13 UNL     1      62.503  41.922  18.445  1.00  0.00     0.074 A 
HETATM   20 CL1  UNL     1      62.561  40.826  17.065  1.00  0.00    -0.081 Cl
HETATM   21  C14 UNL     1      62.520  43.263  18.200  1.00  0.00     0.052 A 
HETATM   22  C15 UNL     1      62.474  44.119  19.296  1.00  0.00     0.058 A 
HETATM   23 CL2  UNL     1      62.496  45.842  18.933  1.00  0.00    -0.082 Cl
HETATM   24  C16 UNL     1      62.414  43.662  20.594  1.00  0.00     0.065 A 
HETATM   25 CL3  UNL     1      62.362  44.846  21.870  1.00  0.00    -0.082 Cl
ENDBRANCH  15  16
ENDBRANCH   1  15
BRANCH   2  26
HETATM   26  O2  UNL     1      62.736  39.780  24.066  1.00  0.00    -0.277 OA
BRANCH  26  27
HETATM   27  C17 UNL     1      63.588  38.961  23.316  1.00  0.00     0.242 C 
BRANCH  27  28
HETATM   28  C18 UNL     1      64.370  37.985  24.096  1.00  0.00     0.251 C 
BRANCH  28  29
HETATM   29  O3  UNL     1      63.495  36.945  24.483  1.00  0.00    -0.384 OA
ATOM     30  H3  UNL     1      63.290  37.067  25.402  1.00  0.00     0.210 HD
ENDBRANCH  28  29
BRANCH  28  31
HETATM   31  C19 UNL     1      65.534  37.363  23.412  1.00  0.00     0.415 C 
HETATM   32  F2  UNL     1      65.628  37.895  22.117  1.00  0.00    -0.168 F 
HETATM   33  F3  UNL     1      66.714  37.737  24.029  1.00  0.00    -0.168 F 
HETATM   34  F4  UNL     1      65.475  36.015  23.270  1.00  0.00    -0.168 F 
ENDBRANCH  28  31
ENDBRANCH  27  28
ENDBRANCH  26  27
ENDBRANCH   2  26
TORSDOF 11
ENDMDL
MODEL 4
REMARK VINA RESULT: -9.353815576      1.837      2.301
REMARK  11 active torsions:
REMARK  status: ('A' for Active; 'I' for Inactive)
REMARK    1  A    between atoms: C2_2  and  C9_12 
REMARK       I    between atoms: N1_3  and  C3_5 
REMARK    2  A    between atoms: C3_5  and  C4_7 
REMARK    3  A    between atoms: C4_7  and  C5_8 
REMARK    4  A    between atoms: C5_8  and  C6_9 
REMARK    5  A    between atoms: C9_12  and  C10_13 
REMARK    6  A    between atoms: C10_13  and  C11_14 
REMARK    7  A    between atoms: N2_24  and  O2_26 
REMARK    8  A    between atoms: O2_26  and  C17_27 
REMARK    9  A    between atoms: C17_27  and  C18_28 
REMARK   10  A    between atoms: C18_28  and  O3_29 
REMARK   11  A    between atoms: C18_28  and  C19_31 
ROOT
HETATM    1  C9  UNL     1      62.862  41.857  22.380  1.00  0.00     0.058 C 
HETATM    2  N2  UNL     1      63.365  40.803  21.739  1.00  0.00    -0.269 N 
ATOM      3  H2  UNL     1      63.798  40.971  20.831  1.00  0.00     0.194 HD
ENDROOT
BRANCH   1   4
HETATM    4  C2  UNL     1      63.006  43.098  21.680  1.00  0.00     0.033 C 
HETATM    5  C1  UNL     1      62.162  44.265  22.167  1.00  0.00     0.070 C 
HETATM    6  N1  UNL     1      63.752  43.344  20.707  1.00  0.00    -0.329 N 
HETATM    7  C3  UNL     1      63.990  44.479  19.945  1.00  0.00     0.222 C 
ATOM      8  H1  UNL     1      64.303  42.539  20.409  1.00  0.00     0.168 HD
HETATM    9  O1  UNL     1      65.214  44.878  19.932  1.00  0.00    -0.273 OA
BRANCH   7  10
HETATM   10  C4  UNL     1      63.004  45.240  19.177  1.00  0.00     0.103 C 
BRANCH  10  11
HETATM   11  C5  UNL     1      62.633  44.644  17.884  1.00  0.00     0.013 C 
BRANCH  11  12
HETATM   12  C6  UNL     1      61.556  43.643  17.818  1.00  0.00    -0.022 C 
HETATM   13  C7  UNL     1      60.570  43.709  18.961  1.00  0.00     0.009 C 
HETATM   14  C8  UNL     1      62.135  42.210  17.893  1.00  0.00     0.009 C 
ENDBRANCH  11  12
ENDBRANCH  10  11
ENDBRANCH   7  10
ENDBRANCH   1   4
BRANCH   1  15
HETATM   15  C10 UNL     1      62.227  41.572  23.629  1.00  0.00     0.104 C 
BRANCH  15  16
HETATM   16  C11 UNL     1      60.785  41.372  23.724  1.00  0.00     0.011 A 
HETATM   17  C12 UNL     1      60.027  41.054  22.625  1.00  0.00     0.146 A 
HETATM   18  F1  UNL     1      60.572  40.752  21.416  1.00  0.00    -0.204 F 
HETATM   19  C13 UNL     1      58.641  40.927  22.659  1.00  0.00     0.074 A 
HETATM   20 CL1  UNL     1      57.702  40.520  21.223  1.00  0.00    -0.081 Cl
HETATM   21  C14 UNL     1      57.969  41.122  23.830  1.00  0.00     0.052 A 
HETATM   22  C15 UNL     1      58.719  41.442  24.957  1.00  0.00     0.058 A 
HETATM   23 CL2  UNL     1      57.811  41.684  26.446  1.00  0.00    -0.082 Cl
HETATM   24  C16 UNL     1      60.090  41.568  24.926  1.00  0.00     0.065 A 
HETATM   25 CL3  UNL     1      60.902  41.975  26.412  1.00  0.00    -0.082 Cl
ENDBRANCH  15  16
ENDBRANCH   1  15
BRANCH   2  26
HETATM   26  O2  UNL     1      63.349  39.546  22.188  1.00  0.00    -0.277 OA
BRANCH  26  27
HETATM   27  C17 UNL     1      64.426  38.875  22.780  1.00  0.00     0.242 C 
BRANCH  27  28
HETATM   28  C18 UNL     1      64.058  37.789  23.707  1.00  0.00     0.251 C 
BRANCH  28  29
HETATM   29  O3  UNL     1      65.248  37.302  24.292  1.00  0.00    -0.384 OA
ATOM     30  H3  UNL     1      65.015  36.576  24.859  1.00  0.00     0.210 HD
ENDBRANCH  28  29
BRANCH  28  31
HETATM   31  C19 UNL     1      63.125  38.141  24.810  1.00  0.00     0.415 C 
HETATM   32  F2  UNL     1      63.238  37.169  25.816  1.00  0.00    -0.168 F 
HETATM   33  F3  UNL     1      63.519  39.319  25.418  1.00  0.00    -0.168 F 
HETATM   34  F4  UNL     1      61.813  38.193  24.472  1.00  0.00    -0.168 F 
ENDBRANCH  28  31
ENDBRANCH  27  28
ENDBRANCH  26  27
ENDBRANCH   2  26
TORSDOF 11
ENDMDL
MODEL 5
REMARK VINA RESULT: -9.229630363      2.083      3.057
REMARK  11 active torsions:
REMARK  status: ('A' for Active; 'I' for Inactive)
REMARK    1  A    between atoms: C2_2  and  C9_12 
REMARK       I    between atoms: N1_3  and  C3_5 
REMARK    2  A    between atoms: C3_5  and  C4_7 
REMARK    3  A    between atoms: C4_7  and  C5_8 
REMARK    4  A    between atoms: C5_8  and  C6_9 
REMARK    5  A    between atoms: C9_12  and  C10_13 
REMARK    6  A    between atoms: C10_13  and  C11_14 
REMARK    7  A    between atoms: N2_24  and  O2_26 
REMARK    8  A    between atoms: O2_26  and  C17_27 
REMARK    9  A    between atoms: C17_27  and  C18_28 
REMARK   10  A    between atoms: C18_28  and  O3_29 
REMARK   11  A    between atoms: C18_28  and  C19_31 
ROOT
HETATM    1  C9  UNL     1      62.807  41.499  22.620  1.00  0.00     0.058 C 
HETATM    2  N2  UNL     1      63.450  40.499  22.019  1.00  0.00    -0.269 N 
ATOM      3  H2  UNL     1      63.986  40.724  21.180  1.00  0.00     0.194 HD
ENDROOT
BRANCH   1   4
HETATM    4  C2  UNL     1      62.967  42.772  21.983  1.00  0.00     0.033 C 
HETATM    5  C1  UNL     1      62.235  43.949  22.606  1.00  0.00     0.070 C 
HETATM    6  N1  UNL     1      63.644  43.037  20.965  1.00  0.00    -0.329 N 
HETATM    7  C3  UNL     1      63.885  44.202  20.252  1.00  0.00     0.222 C 
ATOM      8  H1  UNL     1      64.120  42.223  20.576  1.00  0.00     0.168 HD
HETATM    9  O1  UNL     1      65.125  44.535  20.158  1.00  0.00    -0.273 OA
BRANCH   7  10
HETATM   10  C4  UNL     1      62.885  45.061  19.616  1.00  0.00     0.103 C 
BRANCH  10  11
HETATM   11  C5  UNL     1      62.528  44.681  18.241  1.00  0.00     0.013 C 
BRANCH  11  12
HETATM   12  C6  UNL     1      61.510  43.644  18.006  1.00  0.00    -0.022 C 
HETATM   13  C7  UNL     1      60.524  43.469  19.137  1.00  0.00     0.009 C 
HETATM   14  C8  UNL     1      62.171  42.253  17.854  1.00  0.00     0.009 C 
ENDBRANCH  11  12
ENDBRANCH  10  11
ENDBRANCH   7  10
ENDBRANCH   1   4
BRANCH   1  15
HETATM   15  C10 UNL     1      62.036  41.133  23.767  1.00  0.00     0.104 C 
BRANCH  15  16
HETATM   16  C11 UNL     1      60.577  41.175  23.750  1.00  0.00     0.011 A 
HETATM   17  C12 UNL     1      59.851  41.479  24.873  1.00  0.00     0.146 A 
HETATM   18  F1  UNL     1      60.426  41.910  26.028  1.00  0.00    -0.204 F 
HETATM   19  C13 UNL     1      58.459  41.457  24.919  1.00  0.00     0.074 A 
HETATM   20 CL1  UNL     1      57.563  41.852  26.385  1.00  0.00    -0.081 Cl
HETATM   21  C14 UNL     1      57.748  41.120  23.804  1.00  0.00     0.052 A 
HETATM   22  C15 UNL     1      58.466  40.811  22.652  1.00  0.00     0.058 A 
HETATM   23 CL2  UNL     1      57.508  40.383  21.238  1.00  0.00    -0.082 Cl
HETATM   24  C16 UNL     1      59.842  40.832  22.606  1.00  0.00     0.065 A 
HETATM   25 CL3  UNL     1      60.609  40.422  21.097  1.00  0.00    -0.082 Cl
ENDBRANCH  15  16
ENDBRANCH   1  15
BRANCH   2  26
HETATM   26  O2  UNL     1      63.451  39.226  22.424  1.00  0.00    -0.277 OA
BRANCH  26  27
HETATM   27  C17 UNL     1      64.579  38.493  22.814  1.00  0.00     0.242 C 
BRANCH  27  28
HETATM   28  C18 UNL     1      64.323  37.421  23.792  1.00  0.00     0.251 C 
BRANCH  28  29
HETATM   29  O3  UNL     1      65.561  37.067  24.375  1.00  0.00    -0.384 OA
ATOM     30  H3  UNL     1      65.475  37.162  25.316  1.00  0.00     0.210 HD
ENDBRANCH  28  29
BRANCH  28  31
HETATM   31  C19 UNL     1      63.380  37.737  24.898  1.00  0.00     0.415 C 
HETATM   32  F2  UNL     1      63.592  36.822  25.940  1.00  0.00    -0.168 F 
HETATM   33  F3  UNL     1      63.679  38.969  25.450  1.00  0.00    -0.168 F 
HETATM   34  F4  UNL     1      62.063  37.661  24.582  1.00  0.00    -0.168 F 
ENDBRANCH  28  31
ENDBRANCH  27  28
ENDBRANCH  26  27
ENDBRANCH   2  26
TORSDOF 11
ENDMDL
