MODEL 1
REMARK VINA RESULT: -10.175004863      0.000      0.000
REMARK  11 active torsions:
REMARK  status: ('A' for Active; 'I' for Inactive)
REMARK    1  A    between atoms: C2_2  and  C3_3 
REMARK    2  A    between atoms: C3_3  and  C4_4 
REMARK    3  A    between atoms: C4_4  and  C5_5 
REMARK    4  A    between atoms: C7_7  and  C8_8 
REMARK    5  A    between atoms: C8_8  and  O1_9 
REMARK    6  A    between atoms: O1_9  and  C9_10 
REMARK    7  A    between atoms: C10_11  and  C11_12 
REMARK    8  A    between atoms: C15_22  and  C16_23 
REMARK    9  A    between atoms: C18_25  and  O3_26 
REMARK   10  A    between atoms: O3_26  and  C19_27 
REMARK   11  A    between atoms: C22_32  and  C23_33 
ROOT
HETATM    1  C9  UNL     1      58.478  41.455  24.683  1.00  0.00     0.119 C 
HETATM    2  C10 UNL     1      57.226  41.688  25.069  1.00  0.00     0.187 C 
HETATM    3  O2  UNL     1      56.362  42.011  24.001  1.00  0.00    -0.339 OA
HETATM    4  C12 UNL     1      56.450  41.351  22.775  1.00  0.00     0.260 C 
HETATM    5  C13 UNL     1      57.833  41.126  22.250  1.00  0.00     0.295 C 
HETATM    6  F4  UNL     1      57.935  41.794  21.036  1.00  0.00    -0.198 F 
HETATM    7  F5  UNL     1      58.037  39.773  21.986  1.00  0.00    -0.198 F 
HETATM    8  C14 UNL     1      58.842  41.554  23.239  1.00  0.00     0.052 C 
HETATM    9  C15 UNL     1      60.030  42.052  22.985  1.00  0.00     0.028 C 
ENDROOT
BRANCH   1  10
HETATM   10  O1  UNL     1      59.382  41.133  25.649  1.00  0.00    -0.344 OA
BRANCH  10  11
HETATM   11  C8  UNL     1      60.710  41.588  25.602  1.00  0.00     0.203 C 
BRANCH  11  12
HETATM   12  C7  UNL     1      61.722  40.509  25.507  1.00  0.00     0.002 C 
HETATM   13  C5  UNL     1      62.966  40.664  25.070  1.00  0.00    -0.085 C 
HETATM   14  C6  UNL     1      63.390  42.025  24.656  1.00  0.00     0.043 C 
BRANCH  13  15
HETATM   15  C4  UNL     1      63.882  39.528  25.017  1.00  0.00     0.037 C 
BRANCH  15  16
HETATM   16  C3  UNL     1      63.270  38.178  24.910  1.00  0.00     0.030 C 
BRANCH  16  17
HETATM   17  C2  UNL     1      64.066  37.154  24.234  1.00  0.00    -0.037 C 
HETATM   18  C1  UNL     1      65.166  37.462  23.555  1.00  0.00     0.007 C 
ENDBRANCH  16  17
ENDBRANCH  15  16
ENDBRANCH  13  15
ENDBRANCH  11  12
ENDBRANCH  10  11
ENDBRANCH   1  10
BRANCH   9  19
HETATM   19  C16 UNL     1      60.532  42.209  21.636  1.00  0.00    -0.016 A 
HETATM   20  C17 UNL     1      60.244  43.297  20.851  1.00  0.00     0.049 A 
HETATM   21  C18 UNL     1      60.735  43.469  19.557  1.00  0.00     0.075 A 
HETATM   22  C20 UNL     1      61.548  42.460  19.095  1.00  0.00     0.038 A 
HETATM   23  C21 UNL     1      61.856  41.357  19.855  1.00  0.00     0.022 A 
HETATM   24  C22 UNL     1      61.354  41.216  21.133  1.00  0.00     0.051 A 
BRANCH  21  25
HETATM   25  O3  UNL     1      60.400  44.588  18.837  1.00  0.00    -0.290 OA
BRANCH  25  26
HETATM   26  C19 UNL     1      61.259  45.639  18.516  1.00  0.00     0.505 C 
HETATM   27  F6  UNL     1      61.992  45.922  19.683  1.00  0.00    -0.184 F 
HETATM   28  F7  UNL     1      62.191  45.284  17.553  1.00  0.00    -0.184 F 
ENDBRANCH  25  26
ENDBRANCH  21  25
BRANCH  24  29
HETATM   29  C23 UNL     1      61.718  40.042  21.906  1.00  0.00     0.210 C 
HETATM   30  O4  UNL     1      62.912  39.700  21.971  1.00  0.00    -0.644 OA
HETATM   31  O5  UNL     1      60.758  39.320  22.559  1.00  0.00    -0.644 OA
ENDBRANCH  24  29
ENDBRANCH   9  19
BRANCH   2  32
HETATM   32  C11 UNL     1      56.772  41.619  26.476  1.00  0.00     0.441 C 
HETATM   33  F1  UNL     1      56.737  42.860  27.022  1.00  0.00    -0.164 F 
HETATM   34  F2  UNL     1      57.595  40.771  27.232  1.00  0.00    -0.164 F 
HETATM   35  F3  UNL     1      55.462  41.124  26.536  1.00  0.00    -0.164 F 
ENDBRANCH   2  32
TORSDOF 11
ENDMDL
MODEL 2
REMARK VINA RESULT: -9.867638185      1.967      6.286
REMARK  11 active torsions:
REMARK  status: ('A' for Active; 'I' for Inactive)
REMARK    1  A    between atoms: C2_2  and  C3_3 
REMARK    2  A    between atoms: C3_3  and  C4_4 
REMARK    3  A    between atoms: C4_4  and  C5_5 
REMARK    4  A    between atoms: C7_7  and  C8_8 
REMARK    5  A    between atoms: C8_8  and  O1_9 
REMARK    6  A    between atoms: O1_9  and  C9_10 
REMARK    7  A    between atoms: C10_11  and  C11_12 
REMARK    8  A    between atoms: C15_22  and  C16_23 
REMARK    9  A    between atoms: C18_25  and  O3_26 
REMARK   10  A    between atoms: O3_26  and  C19_27 
REMARK   11  A    between atoms: C22_32  and  C23_33 
ROOT
HETATM    1  C9  UNL     1      61.286  41.355  20.720  1.00  0.00     0.119 C 
HETATM    2  C10 UNL     1      61.440  41.989  19.559  1.00  0.00     0.187 C 
HETATM    3  O2  UNL     1      60.519  43.042  19.370  1.00  0.00    -0.339 OA
HETATM    4  C12 UNL     1      60.160  43.886  20.421  1.00  0.00     0.260 C 
HETATM    5  C13 UNL     1      59.899  43.222  21.736  1.00  0.00     0.295 C 
HETATM    6  F4  UNL     1      58.578  43.481  22.083  1.00  0.00    -0.198 F 
HETATM    7  F5  UNL     1      60.696  43.785  22.731  1.00  0.00    -0.198 F 
HETATM    8  C14 UNL     1      60.211  41.781  21.664  1.00  0.00     0.052 C 
HETATM    9  C15 UNL     1      59.617  40.813  22.322  1.00  0.00     0.028 C 
ENDROOT
BRANCH   1  10
HETATM   10  O1  UNL     1      62.136  40.325  20.988  1.00  0.00    -0.344 OA
BRANCH  10  11
HETATM   11  C8  UNL     1      63.122  40.420  21.983  1.00  0.00     0.203 C 
BRANCH  11  12
HETATM   12  C7  UNL     1      63.145  39.280  22.932  1.00  0.00     0.002 C 
HETATM   13  C5  UNL     1      63.480  39.360  24.213  1.00  0.00    -0.085 C 
HETATM   14  C6  UNL     1      63.846  40.693  24.753  1.00  0.00     0.043 C 
BRANCH  13  15
HETATM   15  C4  UNL     1      63.469  38.169  25.059  1.00  0.00     0.037 C 
BRANCH  15  16
HETATM   16  C3  UNL     1      64.016  36.921  24.465  1.00  0.00     0.030 C 
BRANCH  16  17
HETATM   17  C2  UNL     1      65.415  36.962  24.040  1.00  0.00    -0.037 C 
HETATM   18  C1  UNL     1      65.758  37.313  22.805  1.00  0.00     0.007 C 
ENDBRANCH  16  17
ENDBRANCH  15  16
ENDBRANCH  13  15
ENDBRANCH  11  12
ENDBRANCH  10  11
ENDBRANCH   1  10
BRANCH   9  19
HETATM   19  C16 UNL     1      58.558  41.063  23.278  1.00  0.00    -0.016 A 
HETATM   20  C17 UNL     1      57.233  41.126  22.928  1.00  0.00     0.049 A 
HETATM   21  C18 UNL     1      56.202  41.348  23.840  1.00  0.00     0.075 A 
HETATM   22  C20 UNL     1      56.596  41.505  25.149  1.00  0.00     0.038 A 
HETATM   23  C21 UNL     1      57.914  41.449  25.533  1.00  0.00     0.022 A 
HETATM   24  C22 UNL     1      58.912  41.227  24.605  1.00  0.00     0.051 A 
BRANCH  21  25
HETATM   25  O3  UNL     1      54.901  41.396  23.410  1.00  0.00    -0.290 OA
BRANCH  25  26
HETATM   26  C19 UNL     1      53.916  40.445  23.682  1.00  0.00     0.505 C 
HETATM   27  F6  UNL     1      53.810  40.375  25.083  1.00  0.00    -0.184 F 
HETATM   28  F7  UNL     1      52.667  40.831  23.220  1.00  0.00    -0.184 F 
ENDBRANCH  25  26
ENDBRANCH  21  25
BRANCH  24  29
HETATM   29  C23 UNL     1      60.290  41.159  25.058  1.00  0.00     0.210 C 
HETATM   30  O4  UNL     1      60.742  40.079  25.478  1.00  0.00    -0.644 OA
HETATM   31  O5  UNL     1      61.085  42.272  25.020  1.00  0.00    -0.644 OA
ENDBRANCH  24  29
ENDBRANCH   9  19
BRANCH   2  32
HETATM   32  C11 UNL     1      62.472  41.637  18.560  1.00  0.00     0.441 C 
HETATM   33  F1  UNL     1      62.440  40.305  18.299  1.00  0.00    -0.164 F 
HETATM   34  F2  UNL     1      63.749  42.024  18.991  1.00  0.00    -0.164 F 
HETATM   35  F3  UNL     1      62.207  42.283  17.344  1.00  0.00    -0.164 F 
ENDBRANCH   2  32
TORSDOF 11
ENDMDL
MODEL 3
REMARK VINA RESULT: -9.700724292      1.092      1.432
REMARK  11 active torsions:
REMARK  status: ('A' for Active; 'I' for Inactive)
REMARK    1  A    between atoms: C2_2  and  C3_3 
REMARK    2  A    between atoms: C3_3  and  C4_4 
REMARK    3  A    between atoms: C4_4  and  C5_5 
REMARK    4  A    between atoms: C7_7  and  C8_8 
REMARK    5  A    between atoms: C8_8  and  O1_9 
REMARK    6  A    between atoms: O1_9  and  C9_10 
REMARK    7  A    between atoms: C10_11  and  C11_12 
REMARK    8  A    between atoms: C15_22  and  C16_23 
REMARK    9  A    between atoms: C18_25  and  O3_26 
REMARK   10  A    between atoms: O3_26  and  C19_27 
REMARK   11  A    between atoms: C22_32  and  C23_33 
ROOT
HETATM    1  C9  UNL     1      58.928  41.678  24.269  1.00  0.00     0.119 C 
HETATM    2  C10 UNL     1      57.619  41.503  24.440  1.00  0.00     0.187 C 
HETATM    3  O2  UNL     1      56.920  41.295  23.232  1.00  0.00    -0.339 OA
HETATM    4  C12 UNL     1      57.455  40.509  22.212  1.00  0.00     0.260 C 
HETATM    5  C13 UNL     1      58.908  40.714  21.921  1.00  0.00     0.295 C 
HETATM    6  F4  UNL     1      59.015  41.150  20.605  1.00  0.00    -0.198 F 
HETATM    7  F5  UNL     1      59.596  39.505  22.003  1.00  0.00    -0.198 F 
HETATM    8  C14 UNL     1      59.509  41.647  22.894  1.00  0.00     0.052 C 
HETATM    9  C15 UNL     1      60.490  42.491  22.673  1.00  0.00     0.028 C 
ENDROOT
BRANCH   1  10
HETATM   10  O1  UNL     1      59.684  41.882  25.383  1.00  0.00    -0.344 OA
BRANCH  10  11
HETATM   11  C8  UNL     1      60.973  41.341  25.512  1.00  0.00     0.203 C 
BRANCH  11  12
HETATM   12  C7  UNL     1      61.084  39.921  25.102  1.00  0.00     0.002 C 
HETATM   13  C5  UNL     1      62.113  39.127  25.369  1.00  0.00    -0.085 C 
HETATM   14  C6  UNL     1      63.240  39.692  26.153  1.00  0.00     0.043 C 
BRANCH  13  15
HETATM   15  C4  UNL     1      62.119  37.739  24.914  1.00  0.00     0.037 C 
BRANCH  15  16
HETATM   16  C3  UNL     1      63.436  37.051  24.875  1.00  0.00     0.030 C 
BRANCH  16  17
HETATM   17  C2  UNL     1      64.315  37.391  23.756  1.00  0.00    -0.037 C 
HETATM   18  C1  UNL     1      65.638  37.335  23.867  1.00  0.00     0.007 C 
ENDBRANCH  16  17
ENDBRANCH  15  16
ENDBRANCH  13  15
ENDBRANCH  11  12
ENDBRANCH  10  11
ENDBRANCH   1  10
BRANCH   9  19
HETATM   19  C16 UNL     1      61.161  42.581  21.393  1.00  0.00    -0.016 A 
HETATM   20  C17 UNL     1      60.731  43.396  20.377  1.00  0.00     0.049 A 
HETATM   21  C18 UNL     1      61.377  43.505  19.146  1.00  0.00     0.075 A 
HETATM   22  C20 UNL     1      62.503  42.729  19.000  1.00  0.00     0.038 A 
HETATM   23  C21 UNL     1      62.961  41.901  19.997  1.00  0.00     0.022 A 
HETATM   24  C22 UNL     1      62.298  41.815  21.205  1.00  0.00     0.051 A 
BRANCH  21  25
HETATM   25  O3  UNL     1      60.883  44.346  18.181  1.00  0.00    -0.290 OA
BRANCH  25  26
HETATM   26  C19 UNL     1      61.442  45.565  17.797  1.00  0.00     0.505 C 
HETATM   27  F6  UNL     1      61.489  46.362  18.955  1.00  0.00    -0.184 F 
HETATM   28  F7  UNL     1      62.753  45.434  17.367  1.00  0.00    -0.184 F 
ENDBRANCH  25  26
ENDBRANCH  21  25
BRANCH  24  29
HETATM   29  C23 UNL     1      62.826  40.940  22.236  1.00  0.00     0.210 C 
HETATM   30  O4  UNL     1      62.709  39.708  22.110  1.00  0.00    -0.644 OA
HETATM   31  O5  UNL     1      63.449  41.464  23.336  1.00  0.00    -0.644 OA
ENDBRANCH  24  29
ENDBRANCH   9  19
BRANCH   2  32
HETATM   32  C11 UNL     1      56.953  41.521  25.761  1.00  0.00     0.441 C 
HETATM   33  F1  UNL     1      57.691  40.835  26.670  1.00  0.00    -0.164 F 
HETATM   34  F2  UNL     1      55.656  40.995  25.681  1.00  0.00    -0.164 F 
HETATM   35  F3  UNL     1      56.864  42.836  26.238  1.00  0.00    -0.164 F 
ENDBRANCH   2  32
TORSDOF 11
ENDMDL
MODEL 4
REMARK VINA RESULT: -9.667287004      3.242      7.387
REMARK  11 active torsions:
REMARK  status: ('A' for Active; 'I' for Inactive)
REMARK    1  A    between atoms: C2_2  and  C3_3 
REMARK    2  A    between atoms: C3_3  and  C4_4 
REMARK    3  A    between atoms: C4_4  and  C5_5 
REMARK    4  A    between atoms: C7_7  and  C8_8 
REMARK    5  A    between atoms: C8_8  and  O1_9 
REMARK    6  A    between atoms: O1_9  and  C9_10 
REMARK    7  A    between atoms: C10_11  and  C11_12 
REMARK    8  A    between atoms: C15_22  and  C16_23 
REMARK    9  A    between atoms: C18_25  and  O3_26 
REMARK   10  A    between atoms: O3_26  and  C19_27 
REMARK   11  A    between atoms: C22_32  and  C23_33 
ROOT
HETATM    1  C9  UNL     1      61.150  43.084  20.886  1.00  0.00     0.119 C 
HETATM    2  C10 UNL     1      61.663  44.255  20.517  1.00  0.00     0.187 C 
HETATM    3  O2  UNL     1      62.959  44.485  21.029  1.00  0.00    -0.339 OA
HETATM    4  C12 UNL     1      63.903  43.461  21.092  1.00  0.00     0.260 C 
HETATM    5  C13 UNL     1      63.402  42.136  21.573  1.00  0.00     0.295 C 
HETATM    6  F4  UNL     1      64.100  41.819  22.732  1.00  0.00    -0.198 F 
HETATM    7  F5  UNL     1      63.692  41.140  20.642  1.00  0.00    -0.198 F 
HETATM    8  C14 UNL     1      61.939  42.169  21.764  1.00  0.00     0.052 C 
HETATM    9  C15 UNL     1      61.246  41.500  22.655  1.00  0.00     0.028 C 
ENDROOT
BRANCH   1  10
HETATM   10  O1  UNL     1      59.903  42.776  20.436  1.00  0.00    -0.344 OA
BRANCH  10  11
HETATM   11  C8  UNL     1      59.243  41.600  20.828  1.00  0.00     0.203 C 
BRANCH  11  12
HETATM   12  C7  UNL     1      58.186  41.804  21.848  1.00  0.00     0.002 C 
HETATM   13  C5  UNL     1      57.340  40.872  22.268  1.00  0.00    -0.085 C 
HETATM   14  C6  UNL     1      57.465  39.511  21.689  1.00  0.00     0.043 C 
BRANCH  13  15
HETATM   15  C4  UNL     1      56.333  41.184  23.280  1.00  0.00     0.037 C 
BRANCH  15  16
HETATM   16  C3  UNL     1      55.074  40.395  23.237  1.00  0.00     0.030 C 
BRANCH  16  17
HETATM   17  C2  UNL     1      54.054  40.743  24.226  1.00  0.00    -0.037 C 
HETATM   18  C1  UNL     1      52.773  40.440  24.043  1.00  0.00     0.007 C 
ENDBRANCH  16  17
ENDBRANCH  15  16
ENDBRANCH  13  15
ENDBRANCH  11  12
ENDBRANCH  10  11
ENDBRANCH   1  10
BRANCH   9  19
HETATM   19  C16 UNL     1      61.864  40.569  23.577  1.00  0.00    -0.016 A 
HETATM   20  C17 UNL     1      62.597  39.484  23.167  1.00  0.00     0.049 A 
HETATM   21  C18 UNL     1      63.212  38.590  24.043  1.00  0.00     0.075 A 
HETATM   22  C20 UNL     1      63.040  38.862  25.381  1.00  0.00     0.038 A 
HETATM   23  C21 UNL     1      62.312  39.940  25.826  1.00  0.00     0.022 A 
HETATM   24  C22 UNL     1      61.715  40.806  24.932  1.00  0.00     0.051 A 
BRANCH  21  25
HETATM   25  O3  UNL     1      63.929  37.529  23.553  1.00  0.00    -0.290 OA
BRANCH  25  26
HETATM   26  C19 UNL     1      65.293  37.532  23.258  1.00  0.00     0.505 C 
HETATM   27  F6  UNL     1      65.737  36.208  23.420  1.00  0.00    -0.184 F 
HETATM   28  F7  UNL     1      65.548  37.865  21.937  1.00  0.00    -0.184 F 
ENDBRANCH  25  26
ENDBRANCH  21  25
BRANCH  24  29
HETATM   29  C23 UNL     1      60.968  41.941  25.446  1.00  0.00     0.210 C 
HETATM   30  O4  UNL     1      61.502  43.064  25.468  1.00  0.00    -0.644 OA
HETATM   31  O5  UNL     1      59.688  41.777  25.898  1.00  0.00    -0.644 OA
ENDBRANCH  24  29
ENDBRANCH   9  19
BRANCH   2  32
HETATM   32  C11 UNL     1      60.956  45.228  19.655  1.00  0.00     0.441 C 
HETATM   33  F1  UNL     1      59.916  45.783  20.327  1.00  0.00    -0.164 F 
HETATM   34  F2  UNL     1      60.512  44.625  18.470  1.00  0.00    -0.164 F 
HETATM   35  F3  UNL     1      61.814  46.283  19.315  1.00  0.00    -0.164 F 
ENDBRANCH   2  32
TORSDOF 11
ENDMDL
MODEL 5
REMARK VINA RESULT: -9.440608890      3.188      7.182
REMARK  11 active torsions:
REMARK  status: ('A' for Active; 'I' for Inactive)
REMARK    1  A    between atoms: C2_2  and  C3_3 
REMARK    2  A    between atoms: C3_3  and  C4_4 
REMARK    3  A    between atoms: C4_4  and  C5_5 
REMARK    4  A    between atoms: C7_7  and  C8_8 
REMARK    5  A    between atoms: C8_8  and  O1_9 
REMARK    6  A    between atoms: O1_9  and  C9_10 
REMARK    7  A    between atoms: C10_11  and  C11_12 
REMARK    8  A    between atoms: C15_22  and  C16_23 
REMARK    9  A    between atoms: C18_25  and  O3_26 
REMARK   10  A    between atoms: O3_26  and  C19_27 
REMARK   11  A    between atoms: C22_32  and  C23_33 
ROOT
HETATM    1  C9  UNL     1      61.164  43.110  20.832  1.00  0.00     0.119 C 
HETATM    2  C10 UNL     1      61.656  44.288  20.455  1.00  0.00     0.187 C 
HETATM    3  O2  UNL     1      62.952  44.539  20.955  1.00  0.00    -0.339 OA
HETATM    4  C12 UNL     1      63.913  43.530  21.013  1.00  0.00     0.260 C 
HETATM    5  C13 UNL     1      63.436  42.198  21.501  1.00  0.00     0.295 C 
HETATM    6  F4  UNL     1      64.149  41.895  22.656  1.00  0.00    -0.198 F 
HETATM    7  F5  UNL     1      63.733  41.205  20.570  1.00  0.00    -0.198 F 
HETATM    8  C14 UNL     1      61.975  42.210  21.705  1.00  0.00     0.052 C 
HETATM    9  C15 UNL     1      61.300  41.533  22.604  1.00  0.00     0.028 C 
ENDROOT
BRANCH   1  10
HETATM   10  O1  UNL     1      59.918  42.783  20.393  1.00  0.00    -0.344 OA
BRANCH  10  11
HETATM   11  C8  UNL     1      59.284  41.592  20.784  1.00  0.00     0.203 C 
BRANCH  11  12
HETATM   12  C7  UNL     1      58.303  41.754  21.884  1.00  0.00     0.002 C 
HETATM   13  C5  UNL     1      57.449  40.823  22.289  1.00  0.00    -0.085 C 
HETATM   14  C6  UNL     1      57.481  39.507  21.603  1.00  0.00     0.043 C 
BRANCH  13  15
HETATM   15  C4  UNL     1      56.521  41.091  23.385  1.00  0.00     0.037 C 
BRANCH  15  16
HETATM   16  C3  UNL     1      57.106  41.639  24.638  1.00  0.00     0.030 C 
BRANCH  16  17
HETATM   17  C2  UNL     1      56.304  41.483  25.852  1.00  0.00    -0.037 C 
HETATM   18  C1  UNL     1      56.711  41.964  27.022  1.00  0.00     0.007 C 
ENDBRANCH  16  17
ENDBRANCH  15  16
ENDBRANCH  13  15
ENDBRANCH  11  12
ENDBRANCH  10  11
ENDBRANCH   1  10
BRANCH   9  19
HETATM   19  C16 UNL     1      61.940  40.614  23.523  1.00  0.00    -0.016 A 
HETATM   20  C17 UNL     1      62.634  39.505  23.111  1.00  0.00     0.049 A 
HETATM   21  C18 UNL     1      63.270  38.622  23.983  1.00  0.00     0.075 A 
HETATM   22  C20 UNL     1      63.160  38.931  25.319  1.00  0.00     0.038 A 
HETATM   23  C21 UNL     1      62.472  40.034  25.766  1.00  0.00     0.022 A 
HETATM   24  C22 UNL     1      61.853  40.889  24.876  1.00  0.00     0.051 A 
BRANCH  21  25
HETATM   25  O3  UNL     1      63.946  37.535  23.491  1.00  0.00    -0.290 OA
BRANCH  25  26
HETATM   26  C19 UNL     1      65.319  37.469  23.250  1.00  0.00     0.505 C 
HETATM   27  F6  UNL     1      65.671  36.110  23.333  1.00  0.00    -0.184 F 
HETATM   28  F7  UNL     1      65.650  37.874  21.966  1.00  0.00    -0.184 F 
ENDBRANCH  25  26
ENDBRANCH  21  25
BRANCH  24  29
HETATM   29  C23 UNL     1      61.149  42.050  25.391  1.00  0.00     0.210 C 
HETATM   30  O4  UNL     1      60.116  41.890  26.064  1.00  0.00    -0.644 OA
HETATM   31  O5  UNL     1      61.620  43.310  25.141  1.00  0.00    -0.644 OA
ENDBRANCH  24  29
ENDBRANCH   9  19
BRANCH   2  32
HETATM   32  C11 UNL     1      60.927  45.248  19.597  1.00  0.00     0.441 C 
HETATM   33  F1  UNL     1      59.933  45.847  20.300  1.00  0.00    -0.164 F 
HETATM   34  F2  UNL     1      60.413  44.617  18.456  1.00  0.00    -0.164 F 
HETATM   35  F3  UNL     1      61.788  46.273  19.180  1.00  0.00    -0.164 F 
ENDBRANCH   2  32
TORSDOF 11
ENDMDL
