MODEL 1
REMARK VINA RESULT: -8.676536584      0.000      0.000
REMARK  11 active torsions:
REMARK  status: ('A' for Active; 'I' for Inactive)
REMARK    1  A    between atoms: N1_2  and  C1_4 
REMARK    2  A    between atoms: C1_4  and  C2_6 
REMARK    3  A    between atoms: C2_6  and  C3_8 
REMARK    4  A    between atoms: C3_8  and  C4_9 
REMARK    5  A    between atoms: C4_9  and  C5_10 
REMARK    6  A    between atoms: C5_10  and  C6_11 
REMARK    7  A    between atoms: C6_11  and  C7_12 
REMARK    8  A    between atoms: C7_12  and  N2_14 
REMARK    9  A    between atoms: N2_14  and  C8_16 
REMARK   10  A    between atoms: C11_20  and  S2_21 
REMARK   11  A    between atoms: S2_21  and  C12_22 
ROOT
HETATM    1  N2  UNL     1      60.790  42.335  23.492  1.00  0.00    -0.348 N 
ATOM      2  H2  UNL     1      60.116  42.669  24.182  1.00  0.00     0.166 HD
ENDROOT
BRANCH   1   3
HETATM    3  C7  UNL     1      60.967  43.038  22.281  1.00  0.00     0.078 C 
HETATM    4  S1  UNL     1      61.637  44.526  22.301  1.00  0.00    -0.065 SA
BRANCH   3   5
HETATM    5  C6  UNL     1      60.606  42.456  20.958  1.00  0.00     0.069 C 
BRANCH   5   6
HETATM    6  C5  UNL     1      61.746  41.664  20.378  1.00  0.00     0.007 C 
BRANCH   6   7
HETATM    7  C4  UNL     1      61.995  41.866  18.933  1.00  0.00     0.002 C 
BRANCH   7   8
HETATM    8  C3  UNL     1      63.055  42.820  18.522  1.00  0.00     0.024 C 
BRANCH   8   9
HETATM    9  C2  UNL     1      63.614  43.742  19.532  1.00  0.00     0.126 C 
HETATM   10 CL2  UNL     1      65.124  43.200  20.257  1.00  0.00    -0.121 Cl
BRANCH   9  11
HETATM   11  C1  UNL     1      63.968  45.063  18.801  1.00  0.00     0.269 C 
HETATM   12 CL1  UNL     1      65.657  45.413  19.217  1.00  0.00    -0.094 Cl
BRANCH  11  13
HETATM   13  N1  UNL     1      63.114  46.119  19.246  1.00  0.00    -0.134 N 
HETATM   14  O1  UNL     1      63.593  47.090  19.852  1.00  0.00    -0.535 OA
HETATM   15  O2  UNL     1      61.750  46.118  19.034  1.00  0.00    -0.535 OA
ENDBRANCH  11  13
ENDBRANCH   9  11
ENDBRANCH   8   9
ENDBRANCH   7   8
ENDBRANCH   6   7
ENDBRANCH   5   6
ENDBRANCH   3   5
ENDBRANCH   1   3
BRANCH   1  16
HETATM   16  C8  UNL     1      61.545  41.171  23.749  1.00  0.00     0.077 A 
HETATM   17  C9  UNL     1      62.792  41.217  24.343  1.00  0.00     0.063 A 
HETATM   18 CL3  UNL     1      63.430  42.813  24.775  1.00  0.00    -0.082 Cl
HETATM   19  C10 UNL     1      63.499  40.072  24.582  1.00  0.00     0.045 A 
HETATM   20  C11 UNL     1      62.969  38.853  24.230  1.00  0.00     0.012 A 
HETATM   21  C13 UNL     1      61.728  38.804  23.639  1.00  0.00     0.045 A 
HETATM   22  C14 UNL     1      61.000  39.943  23.389  1.00  0.00     0.063 A 
HETATM   23 CL4  UNL     1      59.404  39.899  22.632  1.00  0.00    -0.082 Cl
BRANCH  20  24
HETATM   24  S2  UNL     1      63.848  37.342  24.521  1.00  0.00    -0.016 SA
BRANCH  24  25
HETATM   25  C12 UNL     1      65.300  37.301  23.457  1.00  0.00     0.448 C 
HETATM   26  F1  UNL     1      66.417  37.811  24.087  1.00  0.00    -0.160 F 
HETATM   27  F2  UNL     1      65.522  35.983  23.101  1.00  0.00    -0.160 F 
HETATM   28  F3  UNL     1      65.023  38.008  22.307  1.00  0.00    -0.160 F 
ENDBRANCH  24  25
ENDBRANCH  20  24
ENDBRANCH   1  16
TORSDOF 11
ENDMDL
MODEL 2
REMARK VINA RESULT: -8.605006140      0.046      1.736
REMARK  11 active torsions:
REMARK  status: ('A' for Active; 'I' for Inactive)
REMARK    1  A    between atoms: N1_2  and  C1_4 
REMARK    2  A    between atoms: C1_4  and  C2_6 
REMARK    3  A    between atoms: C2_6  and  C3_8 
REMARK    4  A    between atoms: C3_8  and  C4_9 
REMARK    5  A    between atoms: C4_9  and  C5_10 
REMARK    6  A    between atoms: C5_10  and  C6_11 
REMARK    7  A    between atoms: C6_11  and  C7_12 
REMARK    8  A    between atoms: C7_12  and  N2_14 
REMARK    9  A    between atoms: N2_14  and  C8_16 
REMARK   10  A    between atoms: C11_20  and  S2_21 
REMARK   11  A    between atoms: S2_21  and  C12_22 
ROOT
HETATM    1  N2  UNL     1      60.831  42.366  23.558  1.00  0.00    -0.348 N 
ATOM      2  H2  UNL     1      60.218  42.747  24.279  1.00  0.00     0.166 HD
ENDROOT
BRANCH   1   3
HETATM    3  C7  UNL     1      60.992  43.051  22.333  1.00  0.00     0.078 C 
HETATM    4  S1  UNL     1      61.671  44.535  22.320  1.00  0.00    -0.065 SA
BRANCH   3   5
HETATM    5  C6  UNL     1      60.606  42.451  21.025  1.00  0.00     0.069 C 
BRANCH   5   6
HETATM    6  C5  UNL     1      61.745  41.676  20.420  1.00  0.00     0.007 C 
BRANCH   6   7
HETATM    7  C4  UNL     1      61.963  41.887  18.971  1.00  0.00     0.002 C 
BRANCH   7   8
HETATM    8  C3  UNL     1      63.029  42.827  18.544  1.00  0.00     0.024 C 
BRANCH   8   9
HETATM    9  C2  UNL     1      63.615  43.742  19.544  1.00  0.00     0.126 C 
HETATM   10 CL2  UNL     1      65.133  43.185  20.241  1.00  0.00    -0.121 Cl
BRANCH   9  11
HETATM   11  C1  UNL     1      63.968  45.061  18.808  1.00  0.00     0.269 C 
HETATM   12 CL1  UNL     1      65.657  45.414  19.223  1.00  0.00    -0.094 Cl
BRANCH  11  13
HETATM   13  N1  UNL     1      63.113  46.118  19.249  1.00  0.00    -0.134 N 
HETATM   14  O1  UNL     1      63.592  47.097  19.841  1.00  0.00    -0.535 OA
HETATM   15  O2  UNL     1      61.748  46.109  19.047  1.00  0.00    -0.535 OA
ENDBRANCH  11  13
ENDBRANCH   9  11
ENDBRANCH   8   9
ENDBRANCH   7   8
ENDBRANCH   6   7
ENDBRANCH   5   6
ENDBRANCH   3   5
ENDBRANCH   1   3
BRANCH   1  16
HETATM   16  C8  UNL     1      61.519  41.155  23.785  1.00  0.00     0.077 A 
HETATM   17  C9  UNL     1      60.986  39.928  23.437  1.00  0.00     0.063 A 
HETATM   18 CL3  UNL     1      59.379  39.921  22.689  1.00  0.00    -0.082 Cl
HETATM   19  C10 UNL     1      61.678  38.772  23.667  1.00  0.00     0.045 A 
HETATM   20  C11 UNL     1      62.921  38.820  24.251  1.00  0.00     0.012 A 
HETATM   21  C13 UNL     1      63.454  40.040  24.598  1.00  0.00     0.045 A 
HETATM   22  C14 UNL     1      62.776  41.216  24.376  1.00  0.00     0.063 A 
HETATM   23 CL4  UNL     1      63.446  42.791  24.815  1.00  0.00    -0.082 Cl
BRANCH  20  24
HETATM   24  S2  UNL     1      63.855  37.348  24.567  1.00  0.00    -0.016 SA
BRANCH  24  25
HETATM   25  C12 UNL     1      65.283  37.320  23.469  1.00  0.00     0.448 C 
HETATM   26  F1  UNL     1      66.411  37.833  24.076  1.00  0.00    -0.160 F 
HETATM   27  F2  UNL     1      65.503  36.006  23.101  1.00  0.00    -0.160 F 
HETATM   28  F3  UNL     1      64.976  38.032  22.330  1.00  0.00    -0.160 F 
ENDBRANCH  24  25
ENDBRANCH  20  24
ENDBRANCH   1  16
TORSDOF 11
ENDMDL
MODEL 3
REMARK VINA RESULT: -8.511598288      1.497      1.592
REMARK  11 active torsions:
REMARK  status: ('A' for Active; 'I' for Inactive)
REMARK    1  A    between atoms: N1_2  and  C1_4 
REMARK    2  A    between atoms: C1_4  and  C2_6 
REMARK    3  A    between atoms: C2_6  and  C3_8 
REMARK    4  A    between atoms: C3_8  and  C4_9 
REMARK    5  A    between atoms: C4_9  and  C5_10 
REMARK    6  A    between atoms: C5_10  and  C6_11 
REMARK    7  A    between atoms: C6_11  and  C7_12 
REMARK    8  A    between atoms: C7_12  and  N2_14 
REMARK    9  A    between atoms: N2_14  and  C8_16 
REMARK   10  A    between atoms: C11_20  and  S2_21 
REMARK   11  A    between atoms: S2_21  and  C12_22 
ROOT
HETATM    1  N2  UNL     1      60.835  42.372  23.497  1.00  0.00    -0.348 N 
ATOM      2  H2  UNL     1      60.148  42.697  24.177  1.00  0.00     0.166 HD
ENDROOT
BRANCH   1   3
HETATM    3  C7  UNL     1      61.045  43.097  22.304  1.00  0.00     0.078 C 
HETATM    4  S1  UNL     1      61.687  44.595  22.371  1.00  0.00    -0.065 SA
BRANCH   3   5
HETATM    5  C6  UNL     1      60.743  42.529  20.959  1.00  0.00     0.069 C 
BRANCH   5   6
HETATM    6  C5  UNL     1      61.990  42.028  20.284  1.00  0.00     0.007 C 
BRANCH   6   7
HETATM    7  C4  UNL     1      62.051  42.232  18.819  1.00  0.00     0.002 C 
BRANCH   7   8
HETATM    8  C3  UNL     1      63.117  43.106  18.269  1.00  0.00     0.024 C 
BRANCH   8   9
HETATM    9  C2  UNL     1      62.918  44.569  18.286  1.00  0.00     0.126 C 
HETATM   10 CL2  UNL     1      61.235  45.075  18.378  1.00  0.00    -0.121 Cl
BRANCH   9  11
HETATM   11  C1  UNL     1      63.574  45.108  19.584  1.00  0.00     0.269 C 
HETATM   12 CL1  UNL     1      63.535  46.877  19.452  1.00  0.00    -0.094 Cl
BRANCH  11  13
HETATM   13  N1  UNL     1      64.921  44.643  19.688  1.00  0.00    -0.134 N 
HETATM   14  O1  UNL     1      65.838  45.272  19.139  1.00  0.00    -0.535 OA
HETATM   15  O2  UNL     1      65.267  43.503  20.384  1.00  0.00    -0.535 OA
ENDBRANCH  11  13
ENDBRANCH   9  11
ENDBRANCH   8   9
ENDBRANCH   7   8
ENDBRANCH   6   7
ENDBRANCH   5   6
ENDBRANCH   3   5
ENDBRANCH   1   3
BRANCH   1  16
HETATM   16  C8  UNL     1      61.577  41.198  23.749  1.00  0.00     0.077 A 
HETATM   17  C9  UNL     1      62.814  41.226  24.366  1.00  0.00     0.063 A 
HETATM   18 CL3  UNL     1      63.454  42.810  24.836  1.00  0.00    -0.082 Cl
HETATM   19  C10 UNL     1      63.507  40.071  24.599  1.00  0.00     0.045 A 
HETATM   20  C11 UNL     1      62.976  38.862  24.218  1.00  0.00     0.012 A 
HETATM   21  C13 UNL     1      61.745  38.832  23.604  1.00  0.00     0.045 A 
HETATM   22  C14 UNL     1      61.030  39.980  23.359  1.00  0.00     0.063 A 
HETATM   23 CL4  UNL     1      59.448  39.960  22.572  1.00  0.00    -0.082 Cl
BRANCH  20  24
HETATM   24  S2  UNL     1      63.838  37.340  24.501  1.00  0.00    -0.016 SA
BRANCH  24  25
HETATM   25  C12 UNL     1      65.302  37.298  23.452  1.00  0.00     0.448 C 
HETATM   26  F1  UNL     1      66.409  37.821  24.089  1.00  0.00    -0.160 F 
HETATM   27  F2  UNL     1      65.535  35.979  23.110  1.00  0.00    -0.160 F 
HETATM   28  F3  UNL     1      65.032  37.994  22.293  1.00  0.00    -0.160 F 
ENDBRANCH  24  25
ENDBRANCH  20  24
ENDBRANCH   1  16
TORSDOF 11
ENDMDL
MODEL 4
REMARK VINA RESULT: -8.470379105      1.395      1.675
REMARK  11 active torsions:
REMARK  status: ('A' for Active; 'I' for Inactive)
REMARK    1  A    between atoms: N1_2  and  C1_4 
REMARK    2  A    between atoms: C1_4  and  C2_6 
REMARK    3  A    between atoms: C2_6  and  C3_8 
REMARK    4  A    between atoms: C3_8  and  C4_9 
REMARK    5  A    between atoms: C4_9  and  C5_10 
REMARK    6  A    between atoms: C5_10  and  C6_11 
REMARK    7  A    between atoms: C6_11  and  C7_12 
REMARK    8  A    between atoms: C7_12  and  N2_14 
REMARK    9  A    between atoms: N2_14  and  C8_16 
REMARK   10  A    between atoms: C11_20  and  S2_21 
REMARK   11  A    between atoms: S2_21  and  C12_22 
ROOT
HETATM    1  N2  UNL     1      60.826  42.338  23.703  1.00  0.00    -0.348 N 
ATOM      2  H2  UNL     1      60.156  42.648  24.406  1.00  0.00     0.166 HD
ENDROOT
BRANCH   1   3
HETATM    3  C7  UNL     1      61.007  43.090  22.521  1.00  0.00     0.078 C 
HETATM    4  S1  UNL     1      61.657  44.585  22.605  1.00  0.00    -0.065 SA
BRANCH   3   5
HETATM    5  C6  UNL     1      60.669  42.554  21.172  1.00  0.00     0.069 C 
BRANCH   5   6
HETATM    6  C5  UNL     1      61.764  41.669  20.644  1.00  0.00     0.007 C 
BRANCH   6   7
HETATM    7  C4  UNL     1      63.093  42.308  20.510  1.00  0.00     0.002 C 
BRANCH   7   8
HETATM    8  C3  UNL     1      63.620  42.570  19.148  1.00  0.00     0.024 C 
BRANCH   8   9
HETATM    9  C2  UNL     1      63.065  43.699  18.374  1.00  0.00     0.126 C 
HETATM   10 CL2  UNL     1      61.509  43.371  17.619  1.00  0.00    -0.121 Cl
BRANCH   9  11
HETATM   11  C1  UNL     1      62.794  44.852  19.375  1.00  0.00     0.269 C 
HETATM   12 CL1  UNL     1      61.290  45.624  18.833  1.00  0.00    -0.094 Cl
BRANCH  11  13
HETATM   13  N1  UNL     1      63.873  45.789  19.356  1.00  0.00    -0.134 N 
HETATM   14  O1  UNL     1      63.683  46.960  19.722  1.00  0.00    -0.535 OA
HETATM   15  O2  UNL     1      65.146  45.456  18.944  1.00  0.00    -0.535 OA
ENDBRANCH  11  13
ENDBRANCH   9  11
ENDBRANCH   8   9
ENDBRANCH   7   8
ENDBRANCH   6   7
ENDBRANCH   5   6
ENDBRANCH   3   5
ENDBRANCH   1   3
BRANCH   1  16
HETATM   16  C8  UNL     1      61.574  41.160  23.910  1.00  0.00     0.077 A 
HETATM   17  C9  UNL     1      62.839  41.178  24.468  1.00  0.00     0.063 A 
HETATM   18 CL3  UNL     1      63.509  42.755  24.917  1.00  0.00    -0.082 Cl
HETATM   19  C10 UNL     1      63.538  40.018  24.660  1.00  0.00     0.045 A 
HETATM   20  C11 UNL     1      62.983  38.815  24.296  1.00  0.00     0.012 A 
HETATM   21  C13 UNL     1      61.724  38.794  23.741  1.00  0.00     0.045 A 
HETATM   22  C14 UNL     1      61.003  39.947  23.539  1.00  0.00     0.063 A 
HETATM   23 CL4  UNL     1      59.385  39.939  22.828  1.00  0.00    -0.082 Cl
BRANCH  20  24
HETATM   24  S2  UNL     1      63.851  37.286  24.526  1.00  0.00    -0.016 SA
BRANCH  24  25
HETATM   25  C12 UNL     1      65.273  37.254  23.421  1.00  0.00     0.448 C 
HETATM   26  F1  UNL     1      65.058  38.003  22.282  1.00  0.00    -0.160 F 
HETATM   27  F2  UNL     1      66.356  37.756  24.118  1.00  0.00    -0.160 F 
HETATM   28  F3  UNL     1      65.549  35.943  23.098  1.00  0.00    -0.160 F 
ENDBRANCH  24  25
ENDBRANCH  20  24
ENDBRANCH   1  16
TORSDOF 11
ENDMDL
MODEL 5
REMARK VINA RESULT: -8.447827125      1.494      2.359
REMARK  11 active torsions:
REMARK  status: ('A' for Active; 'I' for Inactive)
REMARK    1  A    between atoms: N1_2  and  C1_4 
REMARK    2  A    between atoms: C1_4  and  C2_6 
REMARK    3  A    between atoms: C2_6  and  C3_8 
REMARK    4  A    between atoms: C3_8  and  C4_9 
REMARK    5  A    between atoms: C4_9  and  C5_10 
REMARK    6  A    between atoms: C5_10  and  C6_11 
REMARK    7  A    between atoms: C6_11  and  C7_12 
REMARK    8  A    between atoms: C7_12  and  N2_14 
REMARK    9  A    between atoms: N2_14  and  C8_16 
REMARK   10  A    between atoms: C11_20  and  S2_21 
REMARK   11  A    between atoms: S2_21  and  C12_22 
ROOT
HETATM    1  N2  UNL     1      60.857  42.390  23.489  1.00  0.00    -0.348 N 
ATOM      2  H2  UNL     1      60.225  42.766  24.196  1.00  0.00     0.166 HD
ENDROOT
BRANCH   1   3
HETATM    3  C7  UNL     1      61.052  43.084  22.275  1.00  0.00     0.078 C 
HETATM    4  S1  UNL     1      61.703  44.580  22.295  1.00  0.00    -0.065 SA
BRANCH   3   5
HETATM    5  C6  UNL     1      60.727  42.485  20.950  1.00  0.00     0.069 C 
BRANCH   5   6
HETATM    6  C5  UNL     1      61.969  42.022  20.239  1.00  0.00     0.007 C 
BRANCH   6   7
HETATM    7  C4  UNL     1      62.007  42.286  18.782  1.00  0.00     0.002 C 
BRANCH   7   8
HETATM    8  C3  UNL     1      63.101  43.133  18.244  1.00  0.00     0.024 C 
BRANCH   8   9
HETATM    9  C2  UNL     1      62.940  44.601  18.263  1.00  0.00     0.126 C 
HETATM   10 CL2  UNL     1      61.269  45.150  18.330  1.00  0.00    -0.121 Cl
BRANCH   9  11
HETATM   11  C1  UNL     1      63.588  45.117  19.574  1.00  0.00     0.269 C 
HETATM   12 CL1  UNL     1      63.556  46.889  19.469  1.00  0.00    -0.094 Cl
BRANCH  11  13
HETATM   13  N1  UNL     1      64.933  44.646  19.681  1.00  0.00    -0.134 N 
HETATM   14  O1  UNL     1      65.850  45.256  19.111  1.00  0.00    -0.535 OA
HETATM   15  O2  UNL     1      65.276  43.521  20.402  1.00  0.00    -0.535 OA
ENDBRANCH  11  13
ENDBRANCH   9  11
ENDBRANCH   8   9
ENDBRANCH   7   8
ENDBRANCH   6   7
ENDBRANCH   5   6
ENDBRANCH   3   5
ENDBRANCH   1   3
BRANCH   1  16
HETATM   16  C8  UNL     1      61.536  41.176  23.724  1.00  0.00     0.077 A 
HETATM   17  C9  UNL     1      61.010  39.952  23.354  1.00  0.00     0.063 A 
HETATM   18 CL3  UNL     1      59.423  39.954  22.565  1.00  0.00    -0.082 Cl
HETATM   19  C10 UNL     1      61.694  38.793  23.592  1.00  0.00     0.045 A 
HETATM   20  C11 UNL     1      62.922  38.835  24.208  1.00  0.00     0.012 A 
HETATM   21  C13 UNL     1      63.449  40.051  24.577  1.00  0.00     0.045 A 
HETATM   22  C14 UNL     1      62.779  41.229  24.348  1.00  0.00     0.063 A 
HETATM   23 CL4  UNL     1      63.440  42.801  24.815  1.00  0.00    -0.082 Cl
BRANCH  20  24
HETATM   24  S2  UNL     1      63.845  37.358  24.536  1.00  0.00    -0.016 SA
BRANCH  24  25
HETATM   25  C12 UNL     1      65.287  37.323  23.457  1.00  0.00     0.448 C 
HETATM   26  F1  UNL     1      66.406  37.846  24.072  1.00  0.00    -0.160 F 
HETATM   27  F2  UNL     1      65.515  36.006  23.105  1.00  0.00    -0.160 F 
HETATM   28  F3  UNL     1      64.992  38.022  22.306  1.00  0.00    -0.160 F 
ENDBRANCH  24  25
ENDBRANCH  20  24
ENDBRANCH   1  16
TORSDOF 11
ENDMDL
