MODEL 1
REMARK VINA RESULT: -5.344178946      0.000      0.000
REMARK  5 active torsions:
REMARK  status: ('A' for Active; 'I' for Inactive)
REMARK    1  A    between atoms: N1_2  and  C3_4 
REMARK    2  A    between atoms: C3_4  and  C4_5 
REMARK    3  A    between atoms: C4_5  and  N2_6 
REMARK       I    between atoms: N2_6  and  C5_8 
REMARK       I    between atoms: C5_8  and  N5_13 
REMARK    4  A    between atoms: N5_13  and  C7_15 
REMARK    5  A    between atoms: C8_16  and  N6_17 
ROOT
HETATM    1  N2  UNL     1      11.284  53.073  18.960  1.00  0.00    -0.223 N 
ATOM      2  H2  UNL     1      11.855  53.713  18.407  1.00  0.00     0.177 HD
HETATM    3  C5  UNL     1      11.892  52.330  20.017  1.00  0.00     0.694 C 
HETATM    4  N3  UNL     1      12.104  51.053  19.948  1.00  0.00    -0.126 N 
ATOM      5  H3  UNL     1      11.829  50.547  19.106  1.00  0.00     0.197 HD
HETATM    6  C6  UNL     1      12.700  50.354  21.000  1.00  0.00     0.196 C 
HETATM    7  N4  UNL     1      13.186  49.750  21.869  1.00  0.00    -0.171 NA
HETATM    8  N5  UNL     1      12.301  52.971  21.223  1.00  0.00    -0.146 N 
ATOM      9  H5  UNL     1      12.257  52.451  22.099  1.00  0.00     0.195 HD
ENDROOT
BRANCH   1  10
HETATM   10  C4  UNL     1       9.875  52.938  18.654  1.00  0.00     0.168 C 
BRANCH  10  11
HETATM   11  C3  UNL     1       9.115  52.169  19.684  1.00  0.00     0.291 C 
BRANCH  11  12
HETATM   12  N1  UNL     1       8.286  51.124  19.142  1.00  0.00     0.081 N 
HETATM   13  C1  UNL     1       8.240  51.173  17.686  1.00  0.00     0.309 C 
HETATM   14  C2  UNL     1       8.703  49.804  19.577  1.00  0.00     0.309 C 
ENDBRANCH  11  12
ENDBRANCH  10  11
ENDBRANCH   1  10
BRANCH   8  15
HETATM   15  C7  UNL     1      12.761  54.291  21.239  1.00  0.00     0.048 C 
HETATM   16  C8  UNL     1      13.173  55.439  21.257  1.00  0.00     0.027 C 
BRANCH  16  17
HETATM   17  N6  UNL     1      13.656  56.758  21.273  1.00  0.00    -0.358 N 
ATOM     18  H62 UNL     1      13.363  55.839  20.939  1.00  0.00     0.166 HD
ATOM     19  H61 UNL     1      14.006  57.715  21.291  1.00  0.00     0.166 HD
ENDBRANCH  16  17
ENDBRANCH   8  15
TORSDOF 5
ENDMDL
MODEL 2
REMARK VINA RESULT: -4.875465261      1.847      4.893
REMARK  5 active torsions:
REMARK  status: ('A' for Active; 'I' for Inactive)
REMARK    1  A    between atoms: N1_2  and  C3_4 
REMARK    2  A    between atoms: C3_4  and  C4_5 
REMARK    3  A    between atoms: C4_5  and  N2_6 
REMARK       I    between atoms: N2_6  and  C5_8 
REMARK       I    between atoms: C5_8  and  N5_13 
REMARK    4  A    between atoms: N5_13  and  C7_15 
REMARK    5  A    between atoms: C8_16  and  N6_17 
ROOT
HETATM    1  N2  UNL     1      10.519  51.980  20.787  1.00  0.00    -0.223 N 
ATOM      2  H2  UNL     1      10.172  52.819  21.253  1.00  0.00     0.177 HD
HETATM    3  C5  UNL     1       9.703  51.338  19.807  1.00  0.00     0.694 C 
HETATM    4  N3  UNL     1       9.121  50.199  20.014  1.00  0.00    -0.126 N 
ATOM      5  H3  UNL     1       9.243  49.733  20.913  1.00  0.00     0.197 HD
HETATM    6  C6  UNL     1       8.328  49.595  19.034  1.00  0.00     0.196 C 
HETATM    7  N4  UNL     1       7.673  49.069  18.228  1.00  0.00    -0.171 NA
HETATM    8  N5  UNL     1       9.488  51.931  18.529  1.00  0.00    -0.146 N 
ATOM      9  H5  UNL     1       9.363  51.327  17.717  1.00  0.00     0.195 HD
ENDROOT
BRANCH   1  10
HETATM   10  C4  UNL     1      11.827  51.467  21.136  1.00  0.00     0.168 C 
BRANCH  10  11
HETATM   11  C3  UNL     1      12.746  52.508  21.686  1.00  0.00     0.291 C 
BRANCH  11  12
HETATM   12  N1  UNL     1      12.167  53.825  21.752  1.00  0.00     0.081 N 
HETATM   13  C1  UNL     1      12.132  54.331  23.118  1.00  0.00     0.309 C 
HETATM   14  C2  UNL     1      12.849  54.774  20.892  1.00  0.00     0.309 C 
ENDBRANCH  11  12
ENDBRANCH  10  11
ENDBRANCH   1  10
BRANCH   8  15
HETATM   15  C7  UNL     1       9.443  53.318  18.355  1.00  0.00     0.048 C 
HETATM   16  C8  UNL     1       9.410  54.529  18.215  1.00  0.00     0.027 C 
BRANCH  16  17
HETATM   17  N6  UNL     1       9.380  55.924  18.056  1.00  0.00    -0.358 N 
ATOM     18  H62 UNL     1       9.122  54.939  17.999  1.00  0.00     0.166 HD
ATOM     19  H61 UNL     1       9.364  56.938  17.944  1.00  0.00     0.166 HD
ENDBRANCH  16  17
ENDBRANCH   8  15
TORSDOF 5
ENDMDL
MODEL 3
REMARK VINA RESULT: -4.679884640      1.385      2.296
REMARK  5 active torsions:
REMARK  status: ('A' for Active; 'I' for Inactive)
REMARK    1  A    between atoms: N1_2  and  C3_4 
REMARK    2  A    between atoms: C3_4  and  C4_5 
REMARK    3  A    between atoms: C4_5  and  N2_6 
REMARK       I    between atoms: N2_6  and  C5_8 
REMARK       I    between atoms: C5_8  and  N5_13 
REMARK    4  A    between atoms: N5_13  and  C7_15 
REMARK    5  A    between atoms: C8_16  and  N6_17 
ROOT
HETATM    1  N2  UNL     1      11.059  52.475  19.220  1.00  0.00    -0.223 N 
ATOM      2  H2  UNL     1      11.552  53.086  18.568  1.00  0.00     0.177 HD
HETATM    3  C5  UNL     1      11.779  51.884  20.302  1.00  0.00     0.694 C 
HETATM    4  N3  UNL     1      12.068  50.621  20.347  1.00  0.00    -0.126 N 
ATOM      5  H3  UNL     1      11.774  50.015  19.581  1.00  0.00     0.197 HD
HETATM    6  C6  UNL     1      12.774  50.071  21.420  1.00  0.00     0.196 C 
HETATM    7  N4  UNL     1      13.352  49.590  22.309  1.00  0.00    -0.171 NA
HETATM    8  N5  UNL     1      12.221  52.669  21.406  1.00  0.00    -0.146 N 
ATOM      9  H5  UNL     1      12.266  52.242  22.331  1.00  0.00     0.195 HD
ENDROOT
BRANCH   1  10
HETATM   10  C4  UNL     1       9.645  52.228  19.028  1.00  0.00     0.168 C 
BRANCH  10  11
HETATM   11  C3  UNL     1       8.994  53.201  18.101  1.00  0.00     0.291 C 
BRANCH  11  12
HETATM   12  N1  UNL     1       9.102  54.574  18.521  1.00  0.00     0.081 N 
HETATM   13  C1  UNL     1      10.329  55.191  18.036  1.00  0.00     0.309 C 
HETATM   14  C2  UNL     1       7.958  55.369  18.118  1.00  0.00     0.309 C 
ENDBRANCH  11  12
ENDBRANCH  10  11
ENDBRANCH   1  10
BRANCH   8  15
HETATM   15  C7  UNL     1      12.595  54.008  21.258  1.00  0.00     0.048 C 
HETATM   16  C8  UNL     1      12.932  55.174  21.135  1.00  0.00     0.027 C 
BRANCH  16  17
HETATM   17  N6  UNL     1      13.328  56.514  20.990  1.00  0.00    -0.358 N 
ATOM     18  H62 UNL     1      13.291  55.545  21.309  1.00  0.00     0.166 HD
ATOM     19  H61 UNL     1      13.611  57.487  20.880  1.00  0.00     0.166 HD
ENDBRANCH  16  17
ENDBRANCH   8  15
TORSDOF 5
ENDMDL
MODEL 4
REMARK VINA RESULT: -4.624033047      2.117      4.214
REMARK  5 active torsions:
REMARK  status: ('A' for Active; 'I' for Inactive)
REMARK    1  A    between atoms: N1_2  and  C3_4 
REMARK    2  A    between atoms: C3_4  and  C4_5 
REMARK    3  A    between atoms: C4_5  and  N2_6 
REMARK       I    between atoms: N2_6  and  C5_8 
REMARK       I    between atoms: C5_8  and  N5_13 
REMARK    4  A    between atoms: N5_13  and  C7_15 
REMARK    5  A    between atoms: C8_16  and  N6_17 
ROOT
HETATM    1  N2  UNL     1      10.699  52.898  20.123  1.00  0.00    -0.223 N 
ATOM      2  H2  UNL     1       9.772  53.116  20.490  1.00  0.00     0.177 HD
HETATM    3  C5  UNL     1      11.368  51.720  20.570  1.00  0.00     0.694 C 
HETATM    4  N3  UNL     1      12.398  51.752  21.357  1.00  0.00    -0.126 N 
ATOM      5  H3  UNL     1      12.753  52.653  21.676  1.00  0.00     0.197 HD
HETATM    6  C6  UNL     1      13.033  50.580  21.777  1.00  0.00     0.196 C 
HETATM    7  N4  UNL     1      13.583  49.617  22.131  1.00  0.00    -0.171 NA
HETATM    8  N5  UNL     1      10.928  50.426  20.163  1.00  0.00    -0.146 N 
ATOM      9  H5  UNL     1      11.616  49.682  20.048  1.00  0.00     0.195 HD
ENDROOT
BRANCH   1  10
HETATM   10  C4  UNL     1      11.305  53.793  19.159  1.00  0.00     0.168 C 
BRANCH  10  11
HETATM   11  C3  UNL     1      10.384  54.181  18.049  1.00  0.00     0.291 C 
BRANCH  11  12
HETATM   12  N1  UNL     1       8.993  53.929  18.326  1.00  0.00     0.081 N 
HETATM   13  C1  UNL     1       8.181  55.125  18.139  1.00  0.00     0.309 C 
HETATM   14  C2  UNL     1       8.458  52.841  17.529  1.00  0.00     0.309 C 
ENDBRANCH  11  12
ENDBRANCH  10  11
ENDBRANCH   1  10
BRANCH   8  15
HETATM   15  C7  UNL     1       9.580  50.147  19.919  1.00  0.00     0.048 C 
HETATM   16  C8  UNL     1       8.407  49.892  19.705  1.00  0.00     0.027 C 
BRANCH  16  17
HETATM   17  N6  UNL     1       7.056  49.591  19.464  1.00  0.00    -0.358 N 
ATOM     18  H62 UNL     1       8.074  49.592  19.394  1.00  0.00     0.166 HD
ATOM     19  H61 UNL     1       6.074  49.377  19.294  1.00  0.00     0.166 HD
ENDBRANCH  16  17
ENDBRANCH   8  15
TORSDOF 5
ENDMDL
MODEL 5
REMARK VINA RESULT: -3.808288272      1.781      5.790
REMARK  5 active torsions:
REMARK  status: ('A' for Active; 'I' for Inactive)
REMARK    1  A    between atoms: N1_2  and  C3_4 
REMARK    2  A    between atoms: C3_4  and  C4_5 
REMARK    3  A    between atoms: C4_5  and  N2_6 
REMARK       I    between atoms: N2_6  and  C5_8 
REMARK       I    between atoms: C5_8  and  N5_13 
REMARK    4  A    between atoms: N5_13  and  C7_15 
REMARK    5  A    between atoms: C8_16  and  N6_17 
ROOT
HETATM    1  N2  UNL     1      11.790  52.184  19.309  1.00  0.00    -0.223 N 
ATOM      2  H2  UNL     1      11.867  51.360  18.713  1.00  0.00     0.177 HD
HETATM    3  C5  UNL     1      10.804  53.172  19.010  1.00  0.00     0.694 C 
HETATM    4  N3  UNL     1      11.101  54.341  18.535  1.00  0.00    -0.126 N 
ATOM      5  H3  UNL     1      12.079  54.575  18.363  1.00  0.00     0.197 HD
HETATM    6  C6  UNL     1      10.113  55.288  18.253  1.00  0.00     0.196 C 
HETATM    7  N4  UNL     1       9.307  56.096  18.020  1.00  0.00    -0.171 NA
HETATM    8  N5  UNL     1       9.419  52.916  19.226  1.00  0.00    -0.146 N 
ATOM      9  H5  UNL     1       8.807  53.687  19.492  1.00  0.00     0.195 HD
ENDROOT
BRANCH   1  10
HETATM   10  C4  UNL     1      12.684  52.326  20.439  1.00  0.00     0.168 C 
BRANCH  10  11
HETATM   11  C3  UNL     1      12.004  52.811  21.677  1.00  0.00     0.291 C 
BRANCH  11  12
HETATM   12  N1  UNL     1      12.598  53.992  22.247  1.00  0.00     0.081 N 
HETATM   13  C1  UNL     1      12.828  55.019  21.240  1.00  0.00     0.309 C 
HETATM   14  C2  UNL     1      11.809  54.538  23.336  1.00  0.00     0.309 C 
ENDBRANCH  11  12
ENDBRANCH  10  11
ENDBRANCH   1  10
BRANCH   8  15
HETATM   15  C7  UNL     1       8.873  51.636  19.082  1.00  0.00     0.048 C 
HETATM   16  C8  UNL     1       8.406  50.515  18.964  1.00  0.00     0.027 C 
BRANCH  16  17
HETATM   17  N6  UNL     1       7.870  49.224  18.838  1.00  0.00    -0.358 N 
ATOM     18  H62 UNL     1       8.032  50.176  19.168  1.00  0.00     0.166 HD
ATOM     19  H61 UNL     1       7.485  48.284  18.741  1.00  0.00     0.166 HD
ENDBRANCH  16  17
ENDBRANCH   8  15
TORSDOF 5
ENDMDL
