MODEL 1
REMARK VINA RESULT: -6.591269567      0.000      0.000
REMARK  5 active torsions:
REMARK  status: ('A' for Active; 'I' for Inactive)
REMARK    1  A    between atoms: C3_3  and  N1_4 
REMARK    2  A    between atoms: N1_4  and  C4_5 
REMARK    3  A    between atoms: C4_5  and  C5_6 
REMARK    4  A    between atoms: C7_8  and  O1_9 
REMARK    5  A    between atoms: C8_11  and  O2_12 
ROOT
HETATM    1  C1  UNL     1      10.030  54.686  18.235  1.00  0.00     0.013 C 
HETATM    2  C2  UNL     1       9.551  53.589  18.145  1.00  0.00    -0.089 C 
HETATM    3  C3  UNL     1       8.987  52.255  18.017  1.00  0.00     0.330 C 
ENDROOT
BRANCH   3   4
HETATM    4  N1  UNL     1       8.933  51.607  19.344  1.00  0.00    -0.053 N 
HETATM    5  C9  UNL     1       8.503  50.244  19.276  1.00  0.00     0.266 A 
HETATM    6  C10 UNL     1       7.571  51.333  19.737  1.00  0.00     0.266 A 
BRANCH   4   7
HETATM    7  C4  UNL     1       9.900  52.088  20.245  1.00  0.00     0.245 C 
BRANCH   7   8
HETATM    8  C5  UNL     1      11.323  51.743  20.052  1.00  0.00     0.045 C 
HETATM    9  C6  UNL     1      12.231  52.697  20.851  1.00  0.00     0.043 C 
HETATM   10  C7  UNL     1      13.158  51.517  21.026  1.00  0.00     0.147 C 
HETATM   11  C8  UNL     1      11.907  50.634  20.900  1.00  0.00     0.152 C 
BRANCH  10  12
HETATM   12  O1  UNL     1      13.775  51.437  22.263  1.00  0.00    -0.393 OA
ATOM     13  H1  UNL     1      13.698  50.595  22.697  1.00  0.00     0.210 HD
ENDBRANCH  10  12
BRANCH  11  14
HETATM   14  O2  UNL     1      12.157  49.443  20.225  1.00  0.00    -0.393 OA
ATOM     15  H2  UNL     1      12.084  48.656  20.753  1.00  0.00     0.210 HD
ENDBRANCH  11  14
ENDBRANCH   7   8
ENDBRANCH   4   7
ENDBRANCH   3   4
TORSDOF 5
ENDMDL
MODEL 2
REMARK VINA RESULT: -6.435327823      1.212      2.866
REMARK  5 active torsions:
REMARK  status: ('A' for Active; 'I' for Inactive)
REMARK    1  A    between atoms: C3_3  and  N1_4 
REMARK    2  A    between atoms: N1_4  and  C4_5 
REMARK    3  A    between atoms: C4_5  and  C5_6 
REMARK    4  A    between atoms: C7_8  and  O1_9 
REMARK    5  A    between atoms: C8_11  and  O2_12 
ROOT
HETATM    1  C1  UNL     1       8.106  49.568  19.180  1.00  0.00     0.013 C 
HETATM    2  C2  UNL     1       8.268  50.715  19.493  1.00  0.00    -0.089 C 
HETATM    3  C3  UNL     1       8.469  52.098  19.896  1.00  0.00     0.330 C 
ENDROOT
BRANCH   3   4
HETATM    4  N1  UNL     1       9.376  52.769  18.941  1.00  0.00    -0.053 N 
HETATM    5  C9  UNL     1       8.815  53.968  18.397  1.00  0.00     0.266 A 
HETATM    6  C10 UNL     1       8.861  52.695  17.594  1.00  0.00     0.266 A 
BRANCH   4   7
HETATM    7  C4  UNL     1      10.739  52.596  19.243  1.00  0.00     0.245 C 
BRANCH   7   8
HETATM    8  C5  UNL     1      11.151  52.271  20.622  1.00  0.00     0.045 C 
HETATM    9  C6  UNL     1      11.911  50.932  20.665  1.00  0.00     0.043 C 
HETATM   10  C7  UNL     1      12.718  51.533  21.793  1.00  0.00     0.147 C 
HETATM   11  C8  UNL     1      12.423  52.898  21.151  1.00  0.00     0.152 C 
BRANCH  10  12
HETATM   12  O1  UNL     1      14.061  51.195  21.794  1.00  0.00    -0.393 OA
ATOM     13  H1  UNL     1      14.457  51.127  22.656  1.00  0.00     0.210 HD
ENDBRANCH  10  12
BRANCH  11  14
HETATM   14  O2  UNL     1      12.238  53.905  22.094  1.00  0.00    -0.393 OA
ATOM     15  H2  UNL     1      11.554  53.738  22.732  1.00  0.00     0.210 HD
ENDBRANCH  11  14
ENDBRANCH   7   8
ENDBRANCH   4   7
ENDBRANCH   3   4
TORSDOF 5
ENDMDL
MODEL 3
REMARK VINA RESULT: -6.434048934      1.174      1.764
REMARK  5 active torsions:
REMARK  status: ('A' for Active; 'I' for Inactive)
REMARK    1  A    between atoms: C3_3  and  N1_4 
REMARK    2  A    between atoms: N1_4  and  C4_5 
REMARK    3  A    between atoms: C4_5  and  C5_6 
REMARK    4  A    between atoms: C7_8  and  O1_9 
REMARK    5  A    between atoms: C8_11  and  O2_12 
ROOT
HETATM    1  C1  UNL     1      10.584  55.467  18.186  1.00  0.00     0.013 C 
HETATM    2  C2  UNL     1       9.825  54.538  18.159  1.00  0.00    -0.089 C 
HETATM    3  C3  UNL     1       8.906  53.413  18.101  1.00  0.00     0.330 C 
ENDROOT
BRANCH   3   4
HETATM    4  N1  UNL     1       9.372  52.342  19.008  1.00  0.00    -0.053 N 
HETATM    5  C9  UNL     1       8.694  51.100  18.789  1.00  0.00     0.266 A 
HETATM    6  C10 UNL     1       8.346  51.982  19.959  1.00  0.00     0.266 A 
BRANCH   4   7
HETATM    7  C4  UNL     1      10.728  52.453  19.360  1.00  0.00     0.245 C 
BRANCH   7   8
HETATM    8  C5  UNL     1      11.170  52.075  20.717  1.00  0.00     0.045 C 
HETATM    9  C6  UNL     1      12.020  50.791  20.678  1.00  0.00     0.043 C 
HETATM   10  C7  UNL     1      12.790  51.377  21.839  1.00  0.00     0.147 C 
HETATM   11  C8  UNL     1      12.399  52.754  21.281  1.00  0.00     0.152 C 
BRANCH  10  12
HETATM   12  O1  UNL     1      14.153  51.133  21.818  1.00  0.00    -0.393 OA
ATOM     13  H1  UNL     1      14.631  51.587  21.134  1.00  0.00     0.210 HD
ENDBRANCH  10  12
BRANCH  11  14
HETATM   14  O2  UNL     1      12.151  53.688  22.283  1.00  0.00    -0.393 OA
ATOM     15  H2  UNL     1      11.310  53.599  22.717  1.00  0.00     0.210 HD
ENDBRANCH  11  14
ENDBRANCH   7   8
ENDBRANCH   4   7
ENDBRANCH   3   4
TORSDOF 5
ENDMDL
MODEL 4
REMARK VINA RESULT: -5.731121128      1.035      1.309
REMARK  5 active torsions:
REMARK  status: ('A' for Active; 'I' for Inactive)
REMARK    1  A    between atoms: C3_3  and  N1_4 
REMARK    2  A    between atoms: N1_4  and  C4_5 
REMARK    3  A    between atoms: C4_5  and  C5_6 
REMARK    4  A    between atoms: C7_8  and  O1_9 
REMARK    5  A    between atoms: C8_11  and  O2_12 
ROOT
HETATM    1  C1  UNL     1      10.426  56.118  18.405  1.00  0.00     0.013 C 
HETATM    2  C2  UNL     1      10.474  54.945  18.156  1.00  0.00    -0.089 C 
HETATM    3  C3  UNL     1      10.559  53.525  17.855  1.00  0.00     0.330 C 
ENDROOT
BRANCH   3   4
HETATM    4  N1  UNL     1       9.632  52.774  18.729  1.00  0.00    -0.053 N 
HETATM    5  C9  UNL     1       8.691  51.989  17.989  1.00  0.00     0.266 A 
HETATM    6  C10 UNL     1       8.288  53.291  18.627  1.00  0.00     0.266 A 
BRANCH   4   7
HETATM    7  C4  UNL     1      10.204  52.381  19.952  1.00  0.00     0.245 C 
BRANCH   7   8
HETATM    8  C5  UNL     1      11.609  51.929  19.995  1.00  0.00     0.045 C 
HETATM    9  C6  UNL     1      12.435  52.800  20.960  1.00  0.00     0.043 C 
HETATM   10  C7  UNL     1      13.228  51.550  21.261  1.00  0.00     0.147 C 
HETATM   11  C8  UNL     1      11.954  50.768  20.903  1.00  0.00     0.152 C 
BRANCH  10  12
HETATM   12  O1  UNL     1      13.616  51.408  22.584  1.00  0.00    -0.393 OA
ATOM     13  H1  UNL     1      14.343  50.814  22.727  1.00  0.00     0.210 HD
ENDBRANCH  10  12
BRANCH  11  14
HETATM   14  O2  UNL     1      12.227  49.569  20.250  1.00  0.00    -0.393 OA
ATOM     15  H2  UNL     1      12.562  48.875  20.806  1.00  0.00     0.210 HD
ENDBRANCH  11  14
ENDBRANCH   7   8
ENDBRANCH   4   7
ENDBRANCH   3   4
TORSDOF 5
ENDMDL
MODEL 5
REMARK VINA RESULT: -5.671930074      0.660      2.386
REMARK  5 active torsions:
REMARK  status: ('A' for Active; 'I' for Inactive)
REMARK    1  A    between atoms: C3_3  and  N1_4 
REMARK    2  A    between atoms: N1_4  and  C4_5 
REMARK    3  A    between atoms: C4_5  and  C5_6 
REMARK    4  A    between atoms: C7_8  and  O1_9 
REMARK    5  A    between atoms: C8_11  and  O2_12 
ROOT
HETATM    1  C1  UNL     1       8.294  49.360  19.229  1.00  0.00     0.013 C 
HETATM    2  C2  UNL     1       8.092  50.541  19.295  1.00  0.00    -0.089 C 
HETATM    3  C3  UNL     1       7.832  51.968  19.396  1.00  0.00     0.330 C 
ENDROOT
BRANCH   3   4
HETATM    4  N1  UNL     1       9.105  52.714  19.307  1.00  0.00    -0.053 N 
HETATM    5  C9  UNL     1       8.958  53.980  18.655  1.00  0.00     0.266 A 
HETATM    6  C10 UNL     1       9.563  52.801  17.940  1.00  0.00     0.266 A 
BRANCH   4   7
HETATM    7  C4  UNL     1       9.975  52.474  20.385  1.00  0.00     0.245 C 
BRANCH   7   8
HETATM    8  C5  UNL     1      11.355  52.017  20.129  1.00  0.00     0.045 C 
HETATM    9  C6  UNL     1      12.363  52.825  20.968  1.00  0.00     0.043 C 
HETATM   10  C7  UNL     1      13.182  51.557  21.034  1.00  0.00     0.147 C 
HETATM   11  C8  UNL     1      11.853  50.801  20.881  1.00  0.00     0.152 C 
BRANCH  10  12
HETATM   12  O1  UNL     1      13.816  51.333  22.246  1.00  0.00    -0.393 OA
ATOM     13  H1  UNL     1      14.354  50.551  22.278  1.00  0.00     0.210 HD
ENDBRANCH  10  12
BRANCH  11  14
HETATM   14  O2  UNL     1      11.979  49.645  20.117  1.00  0.00    -0.393 OA
ATOM     15  H2  UNL     1      12.818  49.205  20.186  1.00  0.00     0.210 HD
ENDBRANCH  11  14
ENDBRANCH   7   8
ENDBRANCH   4   7
ENDBRANCH   3   4
TORSDOF 5
ENDMDL
