MODEL 1
REMARK VINA RESULT: -5.701225655      0.000      0.000
REMARK  3 active torsions:
REMARK  status: ('A' for Active; 'I' for Inactive)
REMARK    1  A    between atoms: N1_1  and  C1_5 
REMARK    2  A    between atoms: N2_7  and  C3_8 
REMARK    3  A    between atoms: C3_8  and  C4_9 
ROOT
HETATM    1  C1  UNL     1      36.728  43.617  -1.439  1.00  0.00     0.348 C 
HETATM    2  C2  UNL     1      36.476  42.156  -1.253  1.00  0.00     0.336 C 
HETATM    3  N2  UNL     1      36.952  41.472  -2.440  1.00  0.00     0.116 N 
HETATM    4  C11 UNL     1      37.104  42.575  -3.371  1.00  0.00     0.442 C 
HETATM    5  O1  UNL     1      37.471  43.682  -2.614  1.00  0.00    -0.328 OA
ENDROOT
BRANCH   3   6
HETATM    6  C3  UNL     1      35.857  40.607  -2.879  1.00  0.00     0.280 C 
BRANCH   6   7
HETATM    7  C4  UNL     1      36.352  39.241  -3.286  1.00  0.00     0.014 C 
HETATM    8  C5  UNL     1      37.783  39.328  -3.706  1.00  0.00     0.006 C 
HETATM    9  C6  UNL     1      38.481  38.010  -3.803  1.00  0.00     0.000 C 
HETATM   10  C7  UNL     1      39.190  37.751  -2.466  1.00  0.00     0.000 C 
HETATM   11  C8  UNL     1      38.178  37.099  -1.558  1.00  0.00     0.000 C 
HETATM   12  C9  UNL     1      37.174  38.181  -1.165  1.00  0.00     0.000 C 
HETATM   13  C10 UNL     1      36.081  38.288  -2.178  1.00  0.00     0.006 C 
ENDBRANCH   6   7
ENDBRANCH   3   6
BRANCH   1  14
HETATM   14  N1  UNL     1      35.491  44.364  -1.632  1.00  0.00    -0.051 N 
ATOM     15  H13 UNL     1      35.549  44.971  -2.451  1.00  0.00     0.277 HD
ATOM     16  H12 UNL     1      34.733  43.753  -1.938  1.00  0.00     0.277 HD
ATOM     17  H11 UNL     1      35.228  44.891  -0.800  1.00  0.00     0.277 HD
ENDBRANCH   1  14
TORSDOF 3
ENDMDL
MODEL 2
REMARK VINA RESULT: -5.626129394      7.855      9.457
REMARK  3 active torsions:
REMARK  status: ('A' for Active; 'I' for Inactive)
REMARK    1  A    between atoms: N1_1  and  C1_5 
REMARK    2  A    between atoms: N2_7  and  C3_8 
REMARK    3  A    between atoms: C3_8  and  C4_9 
ROOT
HETATM    1  C1  UNL     1      34.747  39.792  -6.727  1.00  0.00     0.348 C 
HETATM    2  C2  UNL     1      34.409  40.138  -8.140  1.00  0.00     0.336 C 
HETATM    3  N2  UNL     1      34.187  41.570  -8.202  1.00  0.00     0.116 N 
HETATM    4  C11 UNL     1      34.046  41.905  -6.797  1.00  0.00     0.442 C 
HETATM    5  O1  UNL     1      34.870  41.028  -6.099  1.00  0.00    -0.328 OA
ENDROOT
BRANCH   3   6
HETATM    6  C3  UNL     1      32.903  41.755  -8.880  1.00  0.00     0.280 C 
BRANCH   6   7
HETATM    7  C4  UNL     1      33.073  41.873 -10.375  1.00  0.00     0.014 C 
HETATM    8  C5  UNL     1      31.991  41.110 -11.067  1.00  0.00     0.006 C 
HETATM    9  C6  UNL     1      31.845  41.424 -12.521  1.00  0.00     0.000 C 
HETATM   10  C7  UNL     1      30.771  42.512 -12.664  1.00  0.00     0.000 C 
HETATM   11  C8  UNL     1      31.471  43.837 -12.494  1.00  0.00     0.000 C 
HETATM   12  C9  UNL     1      31.832  43.958 -11.014  1.00  0.00     0.000 C 
HETATM   13  C10 UNL     1      33.150  43.315 -10.732  1.00  0.00     0.006 C 
ENDBRANCH   6   7
ENDBRANCH   3   6
BRANCH   1  14
HETATM   14  N1  UNL     1      33.677  39.047  -6.075  1.00  0.00    -0.051 N 
ATOM     15  H13 UNL     1      32.849  38.991  -6.670  1.00  0.00     0.277 HD
ATOM     16  H12 UNL     1      33.900  38.053  -6.017  1.00  0.00     0.277 HD
ATOM     17  H11 UNL     1      33.448  39.429  -5.158  1.00  0.00     0.277 HD
ENDBRANCH   1  14
TORSDOF 3
ENDMDL
MODEL 3
REMARK VINA RESULT: -5.568942106      7.076      8.122
REMARK  3 active torsions:
REMARK  status: ('A' for Active; 'I' for Inactive)
REMARK    1  A    between atoms: N1_1  and  C1_5 
REMARK    2  A    between atoms: N2_7  and  C3_8 
REMARK    3  A    between atoms: C3_8  and  C4_9 
ROOT
HETATM    1  C1  UNL     1      34.842  41.446  -6.937  1.00  0.00     0.348 C 
HETATM    2  C2  UNL     1      34.220  40.146  -7.328  1.00  0.00     0.336 C 
HETATM    3  N2  UNL     1      33.703  40.292  -8.675  1.00  0.00     0.116 N 
HETATM    4  C11 UNL     1      33.722  41.734  -8.840  1.00  0.00     0.442 C 
HETATM    5  O1  UNL     1      34.809  42.200  -8.107  1.00  0.00    -0.328 OA
ENDROOT
BRANCH   3   6
HETATM    6  C3  UNL     1      32.317  39.823  -8.634  1.00  0.00     0.280 C 
BRANCH   6   7
HETATM    7  C4  UNL     1      32.223  38.336  -8.873  1.00  0.00     0.014 C 
HETATM    8  C5  UNL     1      31.852  37.643  -7.603  1.00  0.00     0.006 C 
HETATM    9  C6  UNL     1      31.397  36.230  -7.778  1.00  0.00     0.000 C 
HETATM   10  C7  UNL     1      29.866  36.236  -7.884  1.00  0.00     0.000 C 
HETATM   11  C8  UNL     1      29.532  36.477  -9.335  1.00  0.00     0.000 C 
HETATM   12  C9  UNL     1      29.863  37.939  -9.627  1.00  0.00     0.000 C 
HETATM   13  C10 UNL     1      31.299  38.095 -10.012  1.00  0.00     0.006 C 
ENDBRANCH   6   7
ENDBRANCH   3   6
BRANCH   1  14
HETATM   14  N1  UNL     1      34.065  42.140  -5.917  1.00  0.00    -0.051 N 
ATOM     15  H13 UNL     1      33.276  42.640  -6.329  1.00  0.00     0.277 HD
ATOM     16  H12 UNL     1      33.550  41.481  -5.332  1.00  0.00     0.277 HD
ATOM     17  H11 UNL     1      34.643  42.762  -5.352  1.00  0.00     0.277 HD
ENDBRANCH   1  14
TORSDOF 3
ENDMDL
MODEL 4
REMARK VINA RESULT: -5.549585853      5.198      6.355
REMARK  3 active torsions:
REMARK  status: ('A' for Active; 'I' for Inactive)
REMARK    1  A    between atoms: N1_1  and  C1_5 
REMARK    2  A    between atoms: N2_7  and  C3_8 
REMARK    3  A    between atoms: C3_8  and  C4_9 
ROOT
HETATM    1  C1  UNL     1      36.112  41.140  -4.669  1.00  0.00     0.348 C 
HETATM    2  C2  UNL     1      35.501  39.929  -5.296  1.00  0.00     0.336 C 
HETATM    3  N2  UNL     1      35.114  40.282  -6.649  1.00  0.00     0.116 N 
HETATM    4  C11 UNL     1      35.179  41.731  -6.602  1.00  0.00     0.442 C 
HETATM    5  O1  UNL     1      36.202  42.052  -5.716  1.00  0.00    -0.328 OA
ENDROOT
BRANCH   3   6
HETATM    6  C3  UNL     1      33.721  39.859  -6.797  1.00  0.00     0.280 C 
BRANCH   6   7
HETATM    7  C4  UNL     1      33.618  38.402  -7.180  1.00  0.00     0.014 C 
HETATM    8  C5  UNL     1      32.691  37.700  -6.243  1.00  0.00     0.006 C 
HETATM    9  C6  UNL     1      32.241  36.353  -6.710  1.00  0.00     0.000 C 
HETATM   10  C7  UNL     1      30.902  36.530  -7.441  1.00  0.00     0.000 C 
HETATM   11  C8  UNL     1      31.231  36.870  -8.873  1.00  0.00     0.000 C 
HETATM   12  C9  UNL     1      31.771  38.299  -8.876  1.00  0.00     0.000 C 
HETATM   13  C10 UNL     1      33.242  38.314  -8.616  1.00  0.00     0.006 C 
ENDBRANCH   6   7
ENDBRANCH   3   6
BRANCH   1  14
HETATM   14  N1  UNL     1      35.258  41.708  -3.632  1.00  0.00    -0.051 N 
ATOM     15  H13 UNL     1      35.077  41.031  -2.890  1.00  0.00     0.277 HD
ATOM     16  H12 UNL     1      35.756  42.414  -3.089  1.00  0.00     0.277 HD
ATOM     17  H11 UNL     1      34.389  42.080  -4.014  1.00  0.00     0.277 HD
ENDBRANCH   1  14
TORSDOF 3
ENDMDL
MODEL 5
REMARK VINA RESULT: -5.500402195      2.677      5.187
REMARK  3 active torsions:
REMARK  status: ('A' for Active; 'I' for Inactive)
REMARK    1  A    between atoms: N1_1  and  C1_5 
REMARK    2  A    between atoms: N2_7  and  C3_8 
REMARK    3  A    between atoms: C3_8  and  C4_9 
ROOT
HETATM    1  C1  UNL     1      39.666  38.042  -3.624  1.00  0.00     0.348 C 
HETATM    2  C2  UNL     1      38.764  39.230  -3.544  1.00  0.00     0.336 C 
HETATM    3  N2  UNL     1      37.669  38.893  -2.654  1.00  0.00     0.116 N 
HETATM    4  C11 UNL     1      37.796  37.450  -2.569  1.00  0.00     0.442 C 
HETATM    5  O1  UNL     1      39.154  37.167  -2.670  1.00  0.00    -0.328 OA
ENDROOT
BRANCH   3   6
HETATM    6  C3  UNL     1      36.441  39.235  -3.371  1.00  0.00     0.280 C 
BRANCH   6   7
HETATM    7  C4  UNL     1      35.686  40.349  -2.687  1.00  0.00     0.014 C 
HETATM    8  C5  UNL     1      36.140  40.470  -1.270  1.00  0.00     0.006 C 
HETATM    9  C6  UNL     1      35.727  41.736  -0.593  1.00  0.00     0.000 C 
HETATM   10  C7  UNL     1      36.872  42.748  -0.742  1.00  0.00     0.000 C 
HETATM   11  C8  UNL     1      36.669  43.441  -2.066  1.00  0.00     0.000 C 
HETATM   12  C9  UNL     1      37.016  42.425  -3.153  1.00  0.00     0.000 C 
HETATM   13  C10 UNL     1      35.829  41.587  -3.499  1.00  0.00     0.006 C 
ENDBRANCH   6   7
ENDBRANCH   3   6
BRANCH   1  14
HETATM   14  N1  UNL     1      39.600  37.393  -4.929  1.00  0.00    -0.051 N 
ATOM     15  H13 UNL     1      40.249  37.823  -5.589  1.00  0.00     0.277 HD
ATOM     16  H12 UNL     1      40.001  36.456  -4.896  1.00  0.00     0.277 HD
ATOM     17  H11 UNL     1      38.651  37.377  -5.301  1.00  0.00     0.277 HD
ENDBRANCH   1  14
TORSDOF 3
ENDMDL
