MODEL 1
REMARK VINA RESULT: -7.212636696      0.000      0.000
REMARK  13 active torsions:
REMARK  status: ('A' for Active; 'I' for Inactive)
REMARK    1  A    between atoms: N1_2  and  C2_3 
REMARK    2  A    between atoms: C2_3  and  C3_4 
REMARK    3  A    between atoms: C3_4  and  N2_5 
REMARK    4  A    between atoms: N2_5  and  C4_7 
REMARK    5  A    between atoms: C4_7  and  C5_8 
REMARK    6  A    between atoms: C5_8  and  C6_9 
REMARK    7  A    between atoms: C6_9  and  C7_10 
REMARK    8  A    between atoms: C7_10  and  N3_11 
REMARK    9  A    between atoms: N3_11  and  C8_13 
REMARK   10  A    between atoms: C8_13  and  C9_14 
REMARK   11  A    between atoms: C11_16  and  O1_17 
REMARK   12  A    between atoms: C12_19  and  C13_20 
REMARK   13  A    between atoms: C13_20  and  O2_21 
ROOT
HETATM    1  N3  UNL     1      18.822  44.044  19.325  1.00  0.00    -0.419 N 
ATOM      2  H3  UNL     1      17.953  43.982  19.856  1.00  0.00     0.153 HD
ENDROOT
BRANCH   1   3
HETATM    3  C7  UNL     1      19.646  45.202  19.367  1.00  0.00     0.113 C 
BRANCH   3   4
HETATM    4  C6  UNL     1      21.033  44.889  18.916  1.00  0.00     0.021 C 
BRANCH   4   5
HETATM    5  C5  UNL     1      21.930  46.087  18.909  1.00  0.00     0.021 C 
BRANCH   5   6
HETATM    6  C4  UNL     1      22.050  46.762  17.590  1.00  0.00     0.119 C 
BRANCH   6   7
HETATM    7  N2  UNL     1      21.474  45.941  16.523  1.00  0.00    -0.398 N 
ATOM      8  H2  UNL     1      20.536  45.549  16.588  1.00  0.00     0.158 HD
BRANCH   7   9
HETATM    9  C3  UNL     1      22.294  45.729  15.407  1.00  0.00     0.108 C 
BRANCH   9  10
HETATM   10  C2  UNL     1      23.726  45.604  15.713  1.00  0.00     0.218 C 
BRANCH  10  11
HETATM   11  N1  UNL     1      24.392  44.433  16.023  1.00  0.00    -0.050 N 
HETATM   12  C1  UNL     1      24.704  43.643  14.780  1.00  0.00     0.278 C 
HETATM   13  C14 UNL     1      24.248  43.619  17.152  1.00  0.00     0.244 C 
HETATM   14  C15 UNL     1      25.145  44.505  17.949  1.00  0.00     0.057 C 
HETATM   15  C16 UNL     1      25.751  44.775  16.561  1.00  0.00     0.244 C 
ENDBRANCH  10  11
ENDBRANCH   9  10
ENDBRANCH   7   9
ENDBRANCH   6   7
ENDBRANCH   5   6
ENDBRANCH   4   5
ENDBRANCH   3   4
ENDBRANCH   1   3
BRANCH   1  16
HETATM   16  C8  UNL     1      19.273  42.981  18.505  1.00  0.00     0.147 C 
BRANCH  16  17
HETATM   17  C9  UNL     1      18.328  42.658  17.378  1.00  0.00     0.206 C 
HETATM   18  C10 UNL     1      17.001  43.322  17.586  1.00  0.00     0.068 C 
HETATM   19  C11 UNL     1      16.034  42.158  17.588  1.00  0.00     0.153 C 
HETATM   20  C12 UNL     1      16.735  41.145  16.700  1.00  0.00     0.238 C 
HETATM   21  N4  UNL     1      18.095  41.257  17.216  1.00  0.00    -0.061 N 
ATOM     22  H42 UNL     1      18.792  40.789  16.637  1.00  0.00     0.278 HD
ATOM     23  H41 UNL     1      18.257  40.714  18.064  1.00  0.00     0.278 HD
BRANCH  19  24
HETATM   24  O1  UNL     1      16.014  41.619  18.867  1.00  0.00    -0.393 OA
ATOM     25  H1  UNL     1      15.106  41.502  19.123  1.00  0.00     0.210 HD
ENDBRANCH  19  24
BRANCH  20  26
HETATM   26  C13 UNL     1      16.752  41.567  15.252  1.00  0.00     0.199 C 
BRANCH  26  27
HETATM   27  O2  UNL     1      15.506  41.993  14.809  1.00  0.00    -0.399 OA
ATOM     28  H2  UNL     1      15.127  41.401  14.170  1.00  0.00     0.209 HD
ENDBRANCH  26  27
ENDBRANCH  20  26
ENDBRANCH  16  17
ENDBRANCH   1  16
TORSDOF 13
ENDMDL
MODEL 2
REMARK VINA RESULT: -7.074487145      1.314      1.436
REMARK  13 active torsions:
REMARK  status: ('A' for Active; 'I' for Inactive)
REMARK    1  A    between atoms: N1_2  and  C2_3 
REMARK    2  A    between atoms: C2_3  and  C3_4 
REMARK    3  A    between atoms: C3_4  and  N2_5 
REMARK    4  A    between atoms: N2_5  and  C4_7 
REMARK    5  A    between atoms: C4_7  and  C5_8 
REMARK    6  A    between atoms: C5_8  and  C6_9 
REMARK    7  A    between atoms: C6_9  and  C7_10 
REMARK    8  A    between atoms: C7_10  and  N3_11 
REMARK    9  A    between atoms: N3_11  and  C8_13 
REMARK   10  A    between atoms: C8_13  and  C9_14 
REMARK   11  A    between atoms: C11_16  and  O1_17 
REMARK   12  A    between atoms: C12_19  and  C13_20 
REMARK   13  A    between atoms: C13_20  and  O2_21 
ROOT
HETATM    1  N3  UNL     1      20.129  43.464  19.090  1.00  0.00    -0.419 N 
ATOM      2  H3  UNL     1      20.270  42.469  19.266  1.00  0.00     0.153 HD
ENDROOT
BRANCH   1   3
HETATM    3  C7  UNL     1      21.222  44.367  18.978  1.00  0.00     0.113 C 
BRANCH   3   4
HETATM    4  C6  UNL     1      20.742  45.772  18.835  1.00  0.00     0.021 C 
BRANCH   4   5
HETATM    5  C5  UNL     1      21.852  46.776  18.868  1.00  0.00     0.021 C 
BRANCH   5   6
HETATM    6  C4  UNL     1      22.070  47.499  17.587  1.00  0.00     0.119 C 
BRANCH   6   7
HETATM    7  N2  UNL     1      21.429  46.801  16.471  1.00  0.00    -0.398 N 
ATOM      8  H2  UNL     1      20.417  46.704  16.403  1.00  0.00     0.158 HD
BRANCH   7   9
HETATM    9  C3  UNL     1      22.295  46.274  15.503  1.00  0.00     0.108 C 
BRANCH   9  10
HETATM   10  C2  UNL     1      22.550  44.832  15.630  1.00  0.00     0.218 C 
BRANCH  10  11
HETATM   11  N1  UNL     1      23.791  44.230  15.702  1.00  0.00    -0.050 N 
HETATM   12  C1  UNL     1      24.379  44.035  14.329  1.00  0.00     0.278 C 
HETATM   13  C14 UNL     1      24.249  43.278  16.619  1.00  0.00     0.244 C 
HETATM   14  C15 UNL     1      24.549  44.338  17.624  1.00  0.00     0.057 C 
HETATM   15  C16 UNL     1      24.755  45.180  16.353  1.00  0.00     0.244 C 
ENDBRANCH  10  11
ENDBRANCH   9  10
ENDBRANCH   7   9
ENDBRANCH   6   7
ENDBRANCH   5   6
ENDBRANCH   4   5
ENDBRANCH   3   4
ENDBRANCH   1   3
BRANCH   1  16
HETATM   16  C8  UNL     1      18.836  44.021  18.944  1.00  0.00     0.147 C 
BRANCH  16  17
HETATM   17  C9  UNL     1      17.922  43.184  18.087  1.00  0.00     0.206 C 
HETATM   18  C10 UNL     1      17.549  41.913  18.787  1.00  0.00     0.068 C 
HETATM   19  C11 UNL     1      18.021  40.844  17.827  1.00  0.00     0.153 C 
HETATM   20  C12 UNL     1      17.916  41.539  16.480  1.00  0.00     0.238 C 
HETATM   21  N4  UNL     1      18.491  42.835  16.823  1.00  0.00    -0.061 N 
ATOM     22  H42 UNL     1      18.358  43.545  16.103  1.00  0.00     0.278 HD
ATOM     23  H41 UNL     1      19.511  42.847  16.815  1.00  0.00     0.278 HD
BRANCH  19  24
HETATM   24  O1  UNL     1      19.371  40.625  18.057  1.00  0.00    -0.393 OA
ATOM     25  H1  UNL     1      19.811  41.468  18.056  1.00  0.00     0.210 HD
ENDBRANCH  19  24
BRANCH  20  26
HETATM   26  C13 UNL     1      16.485  41.764  16.060  1.00  0.00     0.199 C 
BRANCH  26  27
HETATM   27  O2  UNL     1      16.007  40.747  15.243  1.00  0.00    -0.399 OA
ATOM     28  H2  UNL     1      15.471  41.076  14.531  1.00  0.00     0.209 HD
ENDBRANCH  26  27
ENDBRANCH  20  26
ENDBRANCH  16  17
ENDBRANCH   1  16
TORSDOF 13
ENDMDL
MODEL 3
REMARK VINA RESULT: -7.040033615      1.401      2.028
REMARK  13 active torsions:
REMARK  status: ('A' for Active; 'I' for Inactive)
REMARK    1  A    between atoms: N1_2  and  C2_3 
REMARK    2  A    between atoms: C2_3  and  C3_4 
REMARK    3  A    between atoms: C3_4  and  N2_5 
REMARK    4  A    between atoms: N2_5  and  C4_7 
REMARK    5  A    between atoms: C4_7  and  C5_8 
REMARK    6  A    between atoms: C5_8  and  C6_9 
REMARK    7  A    between atoms: C6_9  and  C7_10 
REMARK    8  A    between atoms: C7_10  and  N3_11 
REMARK    9  A    between atoms: N3_11  and  C8_13 
REMARK   10  A    between atoms: C8_13  and  C9_14 
REMARK   11  A    between atoms: C11_16  and  O1_17 
REMARK   12  A    between atoms: C12_19  and  C13_20 
REMARK   13  A    between atoms: C13_20  and  O2_21 
ROOT
HETATM    1  N3  UNL     1      19.378  44.797  18.226  1.00  0.00    -0.419 N 
ATOM      2  H3  UNL     1      18.452  45.105  17.932  1.00  0.00     0.153 HD
ENDROOT
BRANCH   1   3
HETATM    3  C7  UNL     1      20.158  45.545  19.150  1.00  0.00     0.113 C 
BRANCH   3   4
HETATM    4  C6  UNL     1      21.616  45.338  18.912  1.00  0.00     0.021 C 
BRANCH   4   5
HETATM    5  C5  UNL     1      22.352  46.612  18.638  1.00  0.00     0.021 C 
BRANCH   5   6
HETATM    6  C4  UNL     1      21.825  47.396  17.490  1.00  0.00     0.119 C 
BRANCH   6   7
HETATM    7  N2  UNL     1      21.633  46.547  16.314  1.00  0.00    -0.398 N 
ATOM      8  H2  UNL     1      20.709  46.241  16.012  1.00  0.00     0.158 HD
BRANCH   7   9
HETATM    9  C3  UNL     1      22.799  46.179  15.630  1.00  0.00     0.108 C 
BRANCH   9  10
HETATM   10  C2  UNL     1      22.979  44.730  15.461  1.00  0.00     0.218 C 
BRANCH  10  11
HETATM   11  N1  UNL     1      24.167  44.038  15.594  1.00  0.00    -0.050 N 
HETATM   12  C1  UNL     1      24.824  43.826  14.256  1.00  0.00     0.278 C 
HETATM   13  C14 UNL     1      24.498  43.038  16.515  1.00  0.00     0.244 C 
HETATM   14  C15 UNL     1      24.809  44.054  17.561  1.00  0.00     0.057 C 
HETATM   15  C16 UNL     1      25.154  44.903  16.325  1.00  0.00     0.244 C 
ENDBRANCH  10  11
ENDBRANCH   9  10
ENDBRANCH   7   9
ENDBRANCH   6   7
ENDBRANCH   5   6
ENDBRANCH   4   5
ENDBRANCH   3   4
ENDBRANCH   1   3
BRANCH   1  16
HETATM   16  C8  UNL     1      19.958  43.601  17.739  1.00  0.00     0.147 C 
BRANCH  16  17
HETATM   17  C9  UNL     1      19.138  42.375  18.047  1.00  0.00     0.206 C 
HETATM   18  C10 UNL     1      18.064  42.179  17.019  1.00  0.00     0.068 C 
HETATM   19  C11 UNL     1      16.797  42.184  17.845  1.00  0.00     0.153 C 
HETATM   20  C12 UNL     1      17.275  41.656  19.187  1.00  0.00     0.238 C 
HETATM   21  N4  UNL     1      18.511  42.418  19.330  1.00  0.00    -0.061 N 
ATOM     22  H42 UNL     1      19.108  42.091  20.089  1.00  0.00     0.278 HD
ATOM     23  H41 UNL     1      18.371  43.363  19.686  1.00  0.00     0.278 HD
BRANCH  19  24
HETATM   24  O1  UNL     1      16.422  43.505  18.049  1.00  0.00    -0.393 OA
ATOM     25  H1  UNL     1      16.884  43.827  18.814  1.00  0.00     0.210 HD
ENDBRANCH  19  24
BRANCH  20  26
HETATM   26  C13 UNL     1      17.637  40.193  19.132  1.00  0.00     0.199 C 
BRANCH  26  27
HETATM   27  O2  UNL     1      17.517  39.570  20.368  1.00  0.00    -0.399 OA
ATOM     28  H2  UNL     1      18.161  38.883  20.492  1.00  0.00     0.209 HD
ENDBRANCH  26  27
ENDBRANCH  20  26
ENDBRANCH  16  17
ENDBRANCH   1  16
TORSDOF 13
ENDMDL
MODEL 4
REMARK VINA RESULT: -7.033733015      0.582      1.316
REMARK  13 active torsions:
REMARK  status: ('A' for Active; 'I' for Inactive)
REMARK    1  A    between atoms: N1_2  and  C2_3 
REMARK    2  A    between atoms: C2_3  and  C3_4 
REMARK    3  A    between atoms: C3_4  and  N2_5 
REMARK    4  A    between atoms: N2_5  and  C4_7 
REMARK    5  A    between atoms: C4_7  and  C5_8 
REMARK    6  A    between atoms: C5_8  and  C6_9 
REMARK    7  A    between atoms: C6_9  and  C7_10 
REMARK    8  A    between atoms: C7_10  and  N3_11 
REMARK    9  A    between atoms: N3_11  and  C8_13 
REMARK   10  A    between atoms: C8_13  and  C9_14 
REMARK   11  A    between atoms: C11_16  and  O1_17 
REMARK   12  A    between atoms: C12_19  and  C13_20 
REMARK   13  A    between atoms: C13_20  and  O2_21 
ROOT
HETATM    1  N3  UNL     1      18.820  44.072  19.275  1.00  0.00    -0.419 N 
ATOM      2  H3  UNL     1      17.915  44.045  19.745  1.00  0.00     0.153 HD
ENDROOT
BRANCH   1   3
HETATM    3  C7  UNL     1      19.697  45.184  19.401  1.00  0.00     0.113 C 
BRANCH   3   4
HETATM    4  C6  UNL     1      21.019  44.897  18.773  1.00  0.00     0.021 C 
BRANCH   4   5
HETATM    5  C5  UNL     1      21.975  46.046  18.868  1.00  0.00     0.021 C 
BRANCH   5   6
HETATM    6  C4  UNL     1      21.825  47.065  17.797  1.00  0.00     0.119 C 
BRANCH   6   7
HETATM    7  N2  UNL     1      21.489  46.439  16.516  1.00  0.00    -0.398 N 
ATOM      8  H2  UNL     1      20.552  46.093  16.312  1.00  0.00     0.158 HD
BRANCH   7   9
HETATM    9  C3  UNL     1      22.536  46.345  15.590  1.00  0.00     0.108 C 
BRANCH   9  10
HETATM   10  C2  UNL     1      23.185  45.028  15.531  1.00  0.00     0.218 C 
BRANCH  10  11
HETATM   11  N1  UNL     1      24.540  44.784  15.648  1.00  0.00    -0.050 N 
HETATM   12  C1  UNL     1      25.049  45.198  17.003  1.00  0.00     0.278 C 
HETATM   13  C14 UNL     1      25.529  44.854  14.661  1.00  0.00     0.244 C 
HETATM   14  C15 UNL     1      25.184  43.490  14.168  1.00  0.00     0.057 C 
HETATM   15  C16 UNL     1      24.769  43.300  15.637  1.00  0.00     0.244 C 
ENDBRANCH  10  11
ENDBRANCH   9  10
ENDBRANCH   7   9
ENDBRANCH   6   7
ENDBRANCH   5   6
ENDBRANCH   4   5
ENDBRANCH   3   4
ENDBRANCH   1   3
BRANCH   1  16
HETATM   16  C8  UNL     1      19.272  43.005  18.463  1.00  0.00     0.147 C 
BRANCH  16  17
HETATM   17  C9  UNL     1      18.314  42.656  17.353  1.00  0.00     0.206 C 
HETATM   18  C10 UNL     1      16.988  43.323  17.563  1.00  0.00     0.068 C 
HETATM   19  C11 UNL     1      16.024  42.159  17.602  1.00  0.00     0.153 C 
HETATM   20  C12 UNL     1      16.715  41.127  16.727  1.00  0.00     0.238 C 
HETATM   21  N4  UNL     1      18.080  41.251  17.225  1.00  0.00    -0.061 N 
ATOM     22  H42 UNL     1      18.771  40.772  16.649  1.00  0.00     0.278 HD
ATOM     23  H41 UNL     1      18.254  40.727  18.082  1.00  0.00     0.278 HD
BRANCH  19  24
HETATM   24  O1  UNL     1      16.019  41.647  18.892  1.00  0.00    -0.393 OA
ATOM     25  H1  UNL     1      16.643  42.145  19.408  1.00  0.00     0.210 HD
ENDBRANCH  19  24
BRANCH  20  26
HETATM   26  C13 UNL     1      16.715  41.517  15.270  1.00  0.00     0.199 C 
BRANCH  26  27
HETATM   27  O2  UNL     1      15.466  41.943  14.835  1.00  0.00    -0.399 OA
ATOM     28  H2  UNL     1      15.020  41.286  14.314  1.00  0.00     0.209 HD
ENDBRANCH  26  27
ENDBRANCH  20  26
ENDBRANCH  16  17
ENDBRANCH   1  16
TORSDOF 13
ENDMDL
MODEL 5
REMARK VINA RESULT: -7.007374192      1.158      1.851
REMARK  13 active torsions:
REMARK  status: ('A' for Active; 'I' for Inactive)
REMARK    1  A    between atoms: N1_2  and  C2_3 
REMARK    2  A    between atoms: C2_3  and  C3_4 
REMARK    3  A    between atoms: C3_4  and  N2_5 
REMARK    4  A    between atoms: N2_5  and  C4_7 
REMARK    5  A    between atoms: C4_7  and  C5_8 
REMARK    6  A    between atoms: C5_8  and  C6_9 
REMARK    7  A    between atoms: C6_9  and  C7_10 
REMARK    8  A    between atoms: C7_10  and  N3_11 
REMARK    9  A    between atoms: N3_11  and  C8_13 
REMARK   10  A    between atoms: C8_13  and  C9_14 
REMARK   11  A    between atoms: C11_16  and  O1_17 
REMARK   12  A    between atoms: C12_19  and  C13_20 
REMARK   13  A    between atoms: C13_20  and  O2_21 
ROOT
HETATM    1  N3  UNL     1      18.781  44.028  19.324  1.00  0.00    -0.419 N 
ATOM      2  H3  UNL     1      17.899  44.019  19.837  1.00  0.00     0.153 HD
ENDROOT
BRANCH   1   3
HETATM    3  C7  UNL     1      19.646  45.156  19.342  1.00  0.00     0.113 C 
BRANCH   3   4
HETATM    4  C6  UNL     1      20.986  44.813  18.782  1.00  0.00     0.021 C 
BRANCH   4   5
HETATM    5  C5  UNL     1      21.992  45.907  18.957  1.00  0.00     0.021 C 
BRANCH   5   6
HETATM    6  C4  UNL     1      23.162  45.823  18.044  1.00  0.00     0.119 C 
BRANCH   6   7
HETATM    7  N2  UNL     1      24.407  45.653  18.796  1.00  0.00    -0.398 N 
ATOM      8  H2  UNL     1      24.556  46.093  19.703  1.00  0.00     0.158 HD
BRANCH   7   9
HETATM    9  C3  UNL     1      25.381  44.847  18.190  1.00  0.00     0.108 C 
BRANCH   9  10
HETATM   10  C2  UNL     1      25.288  44.771  16.725  1.00  0.00     0.218 C 
BRANCH  10  11
HETATM   11  N1  UNL     1      25.049  43.629  15.985  1.00  0.00    -0.050 N 
HETATM   12  C1  UNL     1      24.502  42.527  16.852  1.00  0.00     0.278 C 
HETATM   13  C14 UNL     1      25.756  43.140  14.881  1.00  0.00     0.244 C 
HETATM   14  C15 UNL     1      25.025  44.058  13.961  1.00  0.00     0.057 C 
HETATM   15  C16 UNL     1      23.925  43.898  15.026  1.00  0.00     0.244 C 
ENDBRANCH  10  11
ENDBRANCH   9  10
ENDBRANCH   7   9
ENDBRANCH   6   7
ENDBRANCH   5   6
ENDBRANCH   4   5
ENDBRANCH   3   4
ENDBRANCH   1   3
BRANCH   1  16
HETATM   16  C8  UNL     1      19.211  42.920  18.556  1.00  0.00     0.147 C 
BRANCH  16  17
HETATM   17  C9  UNL     1      18.296  42.609  17.399  1.00  0.00     0.206 C 
HETATM   18  C10 UNL     1      16.983  43.315  17.551  1.00  0.00     0.068 C 
HETATM   19  C11 UNL     1      15.982  42.181  17.535  1.00  0.00     0.153 C 
HETATM   20  C12 UNL     1      16.682  41.134  16.686  1.00  0.00     0.238 C 
HETATM   21  N4  UNL     1      18.025  41.213  17.248  1.00  0.00    -0.061 N 
ATOM     22  H42 UNL     1      18.728  40.716  16.701  1.00  0.00     0.278 HD
ATOM     23  H41 UNL     1      18.142  40.678  18.109  1.00  0.00     0.278 HD
BRANCH  19  24
HETATM   24  O1  UNL     1      15.900  41.662  18.819  1.00  0.00    -0.393 OA
ATOM     25  H1  UNL     1      15.487  42.313  19.375  1.00  0.00     0.210 HD
ENDBRANCH  19  24
BRANCH  20  26
HETATM   26  C13 UNL     1      16.763  41.534  15.234  1.00  0.00     0.199 C 
BRANCH  26  27
HETATM   27  O2  UNL     1      15.553  42.013  14.747  1.00  0.00    -0.399 OA
ATOM     28  H2  UNL     1      14.820  41.460  14.992  1.00  0.00     0.209 HD
ENDBRANCH  26  27
ENDBRANCH  20  26
ENDBRANCH  16  17
ENDBRANCH   1  16
TORSDOF 13
ENDMDL
