MODEL 1
REMARK VINA RESULT: -7.141170789      0.000      0.000
REMARK  13 active torsions:
REMARK  status: ('A' for Active; 'I' for Inactive)
REMARK    1  A    between atoms: C2_2  and  N1_3 
REMARK    2  A    between atoms: N1_3  and  C3_4 
REMARK    3  A    between atoms: N1_3  and  N8_28 
REMARK    4  A    between atoms: C3_4  and  C4_5 
REMARK    5  A    between atoms: C4_5  and  C5_6 
REMARK    6  A    between atoms: C5_6  and  C6_7 
REMARK    7  A    between atoms: C6_7  and  N2_8 
REMARK    8  A    between atoms: N2_8  and  C7_10 
REMARK    9  A    between atoms: C8_13  and  N4_14 
REMARK   10  A    between atoms: C10_19  and  N6_20 
REMARK   11  A    between atoms: N6_20  and  C11_22 
REMARK   12  A    between atoms: C11_22  and  C12_23 
REMARK   13  A    between atoms: C12_23  and  O1_24 
ROOT
HETATM    1  C7  UNL     1      22.164  44.284  17.562  1.00  0.00     0.707 A 
HETATM    2  N3  UNL     1      22.454  45.526  17.994  1.00  0.00    -0.022 N 
ATOM      3  H3  UNL     1      23.290  46.003  17.655  1.00  0.00     0.203 HD
HETATM    4  C8  UNL     1      21.642  46.137  18.874  1.00  0.00     0.706 A 
HETATM    5  N5  UNL     1      20.558  45.476  19.291  1.00  0.00    -0.022 N 
ATOM      6  H5  UNL     1      19.938  45.936  19.957  1.00  0.00     0.203 HD
HETATM    7  C10 UNL     1      20.242  44.227  18.874  1.00  0.00     0.707 A 
HETATM    8  N7  UNL     1      21.073  43.627  17.988  1.00  0.00    -0.022 N 
ATOM      9  H7  UNL     1      20.871  42.687  17.647  1.00  0.00     0.203 HD
ENDROOT
BRANCH   1  10
HETATM   10  N2  UNL     1      22.969  43.744  16.723  1.00  0.00    -0.225 N 
ATOM     11  H2  UNL     1      22.847  42.745  16.559  1.00  0.00     0.177 HD
BRANCH  10  12
HETATM   12  C6  UNL     1      24.016  44.381  15.993  1.00  0.00     0.138 C 
BRANCH  12  13
HETATM   13  C5  UNL     1      23.765  44.321  14.506  1.00  0.00     0.021 C 
BRANCH  13  14
HETATM   14  C4  UNL     1      22.717  45.303  14.039  1.00  0.00     0.018 C 
BRANCH  14  15
HETATM   15  C3  UNL     1      22.629  45.268  12.551  1.00  0.00     0.113 C 
BRANCH  15  16
HETATM   16  N1  UNL     1      22.736  46.576  11.930  1.00  0.00    -0.237 NA
BRANCH  16  17
HETATM   17  C2  UNL     1      24.184  46.791  11.751  1.00  0.00     0.109 C 
HETATM   18  C1  UNL     1      24.823  45.575  11.100  1.00  0.00     0.022 C 
ENDBRANCH  16  17
BRANCH  16  19
HETATM   19  N8  UNL     1      22.194  46.558  10.660  1.00  0.00    -0.359 N 
HETATM   20  C13 UNL     1      22.101  47.825  10.011  1.00  0.00     0.161 C 
ATOM     21  H8  UNL     1      21.881  45.695  10.215  1.00  0.00     0.173 HD
ENDBRANCH  16  19
ENDBRANCH  15  16
ENDBRANCH  14  15
ENDBRANCH  13  14
ENDBRANCH  12  13
ENDBRANCH  10  12
ENDBRANCH   1  10
BRANCH   4  22
HETATM   22  N4  UNL     1      21.891  47.335  19.313  1.00  0.00    -0.229 N 
HETATM   23  C9  UNL     1      22.316  48.404  18.440  1.00  0.00     0.165 C 
ATOM     24  H4  UNL     1      21.782  47.527  20.309  1.00  0.00     0.177 HD
ENDBRANCH   4  22
BRANCH   7  25
HETATM   25  N6  UNL     1      19.194  43.608  19.287  1.00  0.00    -0.223 N 
ATOM     26  H6  UNL     1      18.836  43.775  20.227  1.00  0.00     0.177 HD
BRANCH  25  27
HETATM   27  C11 UNL     1      18.531  42.677  18.415  1.00  0.00     0.164 C 
BRANCH  27  28
HETATM   28  C12 UNL     1      18.710  41.291  18.969  1.00  0.00     0.184 C 
BRANCH  28  29
HETATM   29  O1  UNL     1      19.931  40.735  18.656  1.00  0.00    -0.399 OA
ATOM     30  H1  UNL     1      20.638  41.054  19.204  1.00  0.00     0.209 HD
ENDBRANCH  28  29
ENDBRANCH  27  28
ENDBRANCH  25  27
ENDBRANCH   7  25
TORSDOF 13
ENDMDL
MODEL 2
REMARK VINA RESULT: -6.842601124      2.109      3.603
REMARK  13 active torsions:
REMARK  status: ('A' for Active; 'I' for Inactive)
REMARK    1  A    between atoms: C2_2  and  N1_3 
REMARK    2  A    between atoms: N1_3  and  C3_4 
REMARK    3  A    between atoms: N1_3  and  N8_28 
REMARK    4  A    between atoms: C3_4  and  C4_5 
REMARK    5  A    between atoms: C4_5  and  C5_6 
REMARK    6  A    between atoms: C5_6  and  C6_7 
REMARK    7  A    between atoms: C6_7  and  N2_8 
REMARK    8  A    between atoms: N2_8  and  C7_10 
REMARK    9  A    between atoms: C8_13  and  N4_14 
REMARK   10  A    between atoms: C10_19  and  N6_20 
REMARK   11  A    between atoms: N6_20  and  C11_22 
REMARK   12  A    between atoms: C11_22  and  C12_23 
REMARK   13  A    between atoms: C12_23  and  O1_24 
ROOT
HETATM    1  C7  UNL     1      21.360  44.780  16.754  1.00  0.00     0.707 A 
HETATM    2  N3  UNL     1      21.787  45.904  17.361  1.00  0.00    -0.022 N 
ATOM      3  H3  UNL     1      22.357  46.577  16.849  1.00  0.00     0.203 HD
HETATM    4  C8  UNL     1      21.460  46.139  18.644  1.00  0.00     0.706 A 
HETATM    5  N5  UNL     1      20.710  45.232  19.276  1.00  0.00    -0.022 N 
ATOM      6  H5  UNL     1      20.459  45.406  20.249  1.00  0.00     0.203 HD
HETATM    7  C10 UNL     1      20.267  44.094  18.691  1.00  0.00     0.707 A 
HETATM    8  N7  UNL     1      20.607  43.874  17.399  1.00  0.00    -0.022 N 
ATOM      9  H7  UNL     1      20.294  43.029  16.919  1.00  0.00     0.203 HD
ENDROOT
BRANCH   1  10
HETATM   10  N2  UNL     1      21.697  44.602  15.530  1.00  0.00    -0.225 N 
ATOM     11  H2  UNL     1      21.677  43.640  15.192  1.00  0.00     0.177 HD
BRANCH  10  12
HETATM   12  C6  UNL     1      22.097  45.595  14.587  1.00  0.00     0.138 C 
BRANCH  12  13
HETATM   13  C5  UNL     1      23.260  45.123  13.750  1.00  0.00     0.021 C 
BRANCH  13  14
HETATM   14  C4  UNL     1      24.097  44.069  14.436  1.00  0.00     0.018 C 
BRANCH  14  15
HETATM   15  C3  UNL     1      25.453  44.621  14.726  1.00  0.00     0.113 C 
BRANCH  15  16
HETATM   16  N1  UNL     1      26.101  44.004  15.870  1.00  0.00    -0.237 NA
BRANCH  16  17
HETATM   17  C2  UNL     1      25.019  43.799  16.851  1.00  0.00     0.109 C 
HETATM   18  C1  UNL     1      25.208  44.718  18.046  1.00  0.00     0.022 C 
ENDBRANCH  16  17
BRANCH  16  19
HETATM   19  N8  UNL     1      26.564  42.744  15.546  1.00  0.00    -0.359 N 
HETATM   20  C13 UNL     1      27.581  42.698  14.547  1.00  0.00     0.161 C 
ATOM     21  H8  UNL     1      26.202  41.901  15.992  1.00  0.00     0.173 HD
ENDBRANCH  16  19
ENDBRANCH  15  16
ENDBRANCH  14  15
ENDBRANCH  13  14
ENDBRANCH  12  13
ENDBRANCH  10  12
ENDBRANCH   1  10
BRANCH   4  22
HETATM   22  N4  UNL     1      21.854  47.213  19.262  1.00  0.00    -0.229 N 
HETATM   23  C9  UNL     1      22.393  48.353  18.560  1.00  0.00     0.165 C 
ATOM     24  H4  UNL     1      21.780  47.250  20.279  1.00  0.00     0.177 HD
ENDBRANCH   4  22
BRANCH   7  25
HETATM   25  N6  UNL     1      19.547  43.233  19.318  1.00  0.00    -0.223 N 
ATOM     26  H6  UNL     1      19.734  43.022  20.298  1.00  0.00     0.177 HD
BRANCH  25  27
HETATM   27  C11 UNL     1      18.475  42.569  18.626  1.00  0.00     0.164 C 
BRANCH  27  28
HETATM   28  C12 UNL     1      18.689  41.084  18.725  1.00  0.00     0.184 C 
BRANCH  28  29
HETATM   29  O1  UNL     1      19.980  40.701  18.436  1.00  0.00    -0.399 OA
ATOM     30  H1  UNL     1      20.063  39.772  18.255  1.00  0.00     0.209 HD
ENDBRANCH  28  29
ENDBRANCH  27  28
ENDBRANCH  25  27
ENDBRANCH   7  25
TORSDOF 13
ENDMDL
MODEL 3
REMARK VINA RESULT: -6.813236569      3.864      5.380
REMARK  13 active torsions:
REMARK  status: ('A' for Active; 'I' for Inactive)
REMARK    1  A    between atoms: C2_2  and  N1_3 
REMARK    2  A    between atoms: N1_3  and  C3_4 
REMARK    3  A    between atoms: N1_3  and  N8_28 
REMARK    4  A    between atoms: C3_4  and  C4_5 
REMARK    5  A    between atoms: C4_5  and  C5_6 
REMARK    6  A    between atoms: C5_6  and  C6_7 
REMARK    7  A    between atoms: C6_7  and  N2_8 
REMARK    8  A    between atoms: N2_8  and  C7_10 
REMARK    9  A    between atoms: C8_13  and  N4_14 
REMARK   10  A    between atoms: C10_19  and  N6_20 
REMARK   11  A    between atoms: N6_20  and  C11_22 
REMARK   12  A    between atoms: C11_22  and  C12_23 
REMARK   13  A    between atoms: C12_23  and  O1_24 
ROOT
HETATM    1  C7  UNL     1      24.144  43.564  15.947  1.00  0.00     0.707 A 
HETATM    2  N3  UNL     1      23.720  44.249  14.868  1.00  0.00    -0.022 N 
ATOM      3  H3  UNL     1      24.309  44.311  14.038  1.00  0.00     0.203 HD
HETATM    4  C8  UNL     1      22.518  44.852  14.886  1.00  0.00     0.706 A 
HETATM    5  N5  UNL     1      21.778  44.744  15.993  1.00  0.00    -0.022 N 
ATOM      6  H5  UNL     1      20.865  45.198  16.012  1.00  0.00     0.203 HD
HETATM    7  C10 UNL     1      22.179  44.061  17.092  1.00  0.00     0.707 A 
HETATM    8  N7  UNL     1      23.393  43.461  17.056  1.00  0.00    -0.022 N 
ATOM      9  H7  UNL     1      23.733  42.936  17.862  1.00  0.00     0.203 HD
ENDROOT
BRANCH   1  10
HETATM   10  N2  UNL     1      25.296  43.006  15.881  1.00  0.00    -0.225 N 
ATOM     11  H2  UNL     1      25.741  42.783  16.771  1.00  0.00     0.177 HD
BRANCH  10  12
HETATM   12  C6  UNL     1      26.027  42.662  14.705  1.00  0.00     0.138 C 
BRANCH  12  13
HETATM   13  C5  UNL     1      27.331  43.417  14.627  1.00  0.00     0.021 C 
BRANCH  13  14
HETATM   14  C4  UNL     1      27.430  44.538  15.634  1.00  0.00     0.018 C 
BRANCH  14  15
HETATM   15  C3  UNL     1      28.192  45.675  15.040  1.00  0.00     0.113 C 
BRANCH  15  16
HETATM   16  N1  UNL     1      29.579  45.734  15.468  1.00  0.00    -0.237 NA
BRANCH  16  17
HETATM   17  C2  UNL     1      30.223  46.669  14.527  1.00  0.00     0.109 C 
HETATM   18  C1  UNL     1      29.244  47.089  13.444  1.00  0.00     0.022 C 
ENDBRANCH  16  17
BRANCH  16  19
HETATM   19  N8  UNL     1      29.680  46.318  16.714  1.00  0.00    -0.359 N 
HETATM   20  C13 UNL     1      30.730  47.271  16.866  1.00  0.00     0.161 C 
ATOM     21  H8  UNL     1      29.045  46.083  17.478  1.00  0.00     0.173 HD
ENDBRANCH  16  19
ENDBRANCH  15  16
ENDBRANCH  14  15
ENDBRANCH  13  14
ENDBRANCH  12  13
ENDBRANCH  10  12
ENDBRANCH   1  10
BRANCH   4  22
HETATM   22  N4  UNL     1      22.077  45.522  13.863  1.00  0.00    -0.229 N 
HETATM   23  C9  UNL     1      22.674  45.414  12.554  1.00  0.00     0.165 C 
ATOM     24  H4  UNL     1      21.280  46.147  13.991  1.00  0.00     0.177 HD
ENDBRANCH   4  22
BRANCH   7  25
HETATM   25  N6  UNL     1      21.452  43.969  18.149  1.00  0.00    -0.223 N 
ATOM     26  H6  UNL     1      21.294  43.062  18.586  1.00  0.00     0.177 HD
BRANCH  25  27
HETATM   27  C11 UNL     1      20.864  45.156  18.709  1.00  0.00     0.164 C 
BRANCH  27  28
HETATM   28  C12 UNL     1      19.513  44.802  19.266  1.00  0.00     0.184 C 
BRANCH  28  29
HETATM   29  O1  UNL     1      19.180  45.532  20.386  1.00  0.00    -0.399 OA
ATOM     30  H1  UNL     1      19.852  46.153  20.640  1.00  0.00     0.209 HD
ENDBRANCH  28  29
ENDBRANCH  27  28
ENDBRANCH  25  27
ENDBRANCH   7  25
TORSDOF 13
ENDMDL
MODEL 4
REMARK VINA RESULT: -6.812778257      3.054      3.876
REMARK  13 active torsions:
REMARK  status: ('A' for Active; 'I' for Inactive)
REMARK    1  A    between atoms: C2_2  and  N1_3 
REMARK    2  A    between atoms: N1_3  and  C3_4 
REMARK    3  A    between atoms: N1_3  and  N8_28 
REMARK    4  A    between atoms: C3_4  and  C4_5 
REMARK    5  A    between atoms: C4_5  and  C5_6 
REMARK    6  A    between atoms: C5_6  and  C6_7 
REMARK    7  A    between atoms: C6_7  and  N2_8 
REMARK    8  A    between atoms: N2_8  and  C7_10 
REMARK    9  A    between atoms: C8_13  and  N4_14 
REMARK   10  A    between atoms: C10_19  and  N6_20 
REMARK   11  A    between atoms: N6_20  and  C11_22 
REMARK   12  A    between atoms: C11_22  and  C12_23 
REMARK   13  A    between atoms: C12_23  and  O1_24 
ROOT
HETATM    1  C7  UNL     1      21.776  43.994  17.750  1.00  0.00     0.707 A 
HETATM    2  N3  UNL     1      22.187  45.220  18.125  1.00  0.00    -0.022 N 
ATOM      3  H3  UNL     1      23.105  45.561  17.840  1.00  0.00     0.203 HD
HETATM    4  C8  UNL     1      21.386  45.995  18.878  1.00  0.00     0.706 A 
HETATM    5  N5  UNL     1      20.192  45.510  19.228  1.00  0.00    -0.022 N 
ATOM      6  H5  UNL     1      19.580  46.094  19.798  1.00  0.00     0.203 HD
HETATM    7  C10 UNL     1      19.752  44.281  18.865  1.00  0.00     0.707 A 
HETATM    8  N7  UNL     1      20.573  43.514  18.108  1.00  0.00    -0.022 N 
ATOM      9  H7  UNL     1      20.281  42.582  17.812  1.00  0.00     0.203 HD
ENDROOT
BRANCH   1  10
HETATM   10  N2  UNL     1      22.575  43.293  17.033  1.00  0.00    -0.225 N 
ATOM     11  H2  UNL     1      22.235  42.376  16.744  1.00  0.00     0.177 HD
BRANCH  10  12
HETATM   12  C6  UNL     1      23.884  43.650  16.592  1.00  0.00     0.138 C 
BRANCH  12  13
HETATM   13  C5  UNL     1      23.899  43.973  15.118  1.00  0.00     0.021 C 
BRANCH  13  14
HETATM   14  C4  UNL     1      25.172  43.542  14.428  1.00  0.00     0.018 C 
BRANCH  14  15
HETATM   15  C3  UNL     1      26.329  43.738  15.348  1.00  0.00     0.113 C 
BRANCH  15  16
HETATM   16  N1  UNL     1      27.410  42.792  15.136  1.00  0.00    -0.237 NA
BRANCH  16  17
HETATM   17  C2  UNL     1      26.802  41.693  14.364  1.00  0.00     0.109 C 
HETATM   18  C1  UNL     1      27.343  40.353  14.834  1.00  0.00     0.022 C 
ENDBRANCH  16  17
BRANCH  16  19
HETATM   19  N8  UNL     1      28.382  43.337  14.322  1.00  0.00    -0.359 N 
HETATM   20  C13 UNL     1      28.826  44.644  14.681  1.00  0.00     0.161 C 
ATOM     21  H8  UNL     1      28.758  42.838  13.515  1.00  0.00     0.173 HD
ENDBRANCH  16  19
ENDBRANCH  15  16
ENDBRANCH  14  15
ENDBRANCH  13  14
ENDBRANCH  12  13
ENDBRANCH  10  12
ENDBRANCH   1  10
BRANCH   4  22
HETATM   22  N4  UNL     1      21.751  47.184  19.259  1.00  0.00    -0.229 N 
HETATM   23  C9  UNL     1      22.320  48.146  18.346  1.00  0.00     0.165 C 
ATOM     24  H4  UNL     1      21.630  47.445  20.237  1.00  0.00     0.177 HD
ENDBRANCH   4  22
BRANCH   7  25
HETATM   25  N6  UNL     1      18.599  43.832  19.213  1.00  0.00    -0.223 N 
ATOM     26  H6  UNL     1      18.270  43.950  20.171  1.00  0.00     0.177 HD
BRANCH  25  27
HETATM   27  C11 UNL     1      17.778  43.162  18.241  1.00  0.00     0.164 C 
BRANCH  27  28
HETATM   28  C12 UNL     1      17.255  41.891  18.851  1.00  0.00     0.184 C 
BRANCH  28  29
HETATM   29  O1  UNL     1      15.881  41.801  18.823  1.00  0.00    -0.399 OA
ATOM     30  H1  UNL     1      15.542  41.090  19.354  1.00  0.00     0.209 HD
ENDBRANCH  28  29
ENDBRANCH  27  28
ENDBRANCH  25  27
ENDBRANCH   7  25
TORSDOF 13
ENDMDL
MODEL 5
REMARK VINA RESULT: -6.809792194      2.818      3.763
REMARK  13 active torsions:
REMARK  status: ('A' for Active; 'I' for Inactive)
REMARK    1  A    between atoms: C2_2  and  N1_3 
REMARK    2  A    between atoms: N1_3  and  C3_4 
REMARK    3  A    between atoms: N1_3  and  N8_28 
REMARK    4  A    between atoms: C3_4  and  C4_5 
REMARK    5  A    between atoms: C4_5  and  C5_6 
REMARK    6  A    between atoms: C5_6  and  C6_7 
REMARK    7  A    between atoms: C6_7  and  N2_8 
REMARK    8  A    between atoms: N2_8  and  C7_10 
REMARK    9  A    between atoms: C8_13  and  N4_14 
REMARK   10  A    between atoms: C10_19  and  N6_20 
REMARK   11  A    between atoms: N6_20  and  C11_22 
REMARK   12  A    between atoms: C11_22  and  C12_23 
REMARK   13  A    between atoms: C12_23  and  O1_24 
ROOT
HETATM    1  C7  UNL     1      22.008  44.024  17.704  1.00  0.00     0.707 A 
HETATM    2  N3  UNL     1      22.350  45.264  18.103  1.00  0.00    -0.022 N 
ATOM      3  H3  UNL     1      23.244  45.663  17.819  1.00  0.00     0.203 HD
HETATM    4  C8  UNL     1      21.511  45.974  18.877  1.00  0.00     0.706 A 
HETATM    5  N5  UNL     1      20.350  45.413  19.224  1.00  0.00    -0.022 N 
ATOM      6  H5  UNL     1      19.710  45.948  19.810  1.00  0.00     0.203 HD
HETATM    7  C10 UNL     1      19.980  44.169  18.838  1.00  0.00     0.707 A 
HETATM    8  N7  UNL     1      20.839  43.467  18.059  1.00  0.00    -0.022 N 
ATOM      9  H7  UNL     1      20.599  42.526  17.745  1.00  0.00     0.203 HD
ENDROOT
BRANCH   1  10
HETATM   10  N2  UNL     1      22.841  43.387  16.966  1.00  0.00    -0.225 N 
ATOM     11  H2  UNL     1      22.595  42.425  16.735  1.00  0.00     0.177 HD
BRANCH  10  12
HETATM   12  C6  UNL     1      24.073  43.870  16.433  1.00  0.00     0.138 C 
BRANCH  12  13
HETATM   13  C5  UNL     1      24.004  44.014  14.932  1.00  0.00     0.021 C 
BRANCH  13  14
HETATM   14  C4  UNL     1      25.275  43.593  14.235  1.00  0.00     0.018 C 
BRANCH  14  15
HETATM   15  C3  UNL     1      25.946  42.520  15.025  1.00  0.00     0.113 C 
BRANCH  15  16
HETATM   16  N1  UNL     1      27.372  42.728  15.197  1.00  0.00    -0.237 NA
BRANCH  16  17
HETATM   17  C2  UNL     1      28.008  41.721  14.327  1.00  0.00     0.109 C 
HETATM   18  C1  UNL     1      27.520  40.328  14.686  1.00  0.00     0.022 C 
ENDBRANCH  16  17
BRANCH  16  19
HETATM   19  N8  UNL     1      27.749  43.958  14.696  1.00  0.00    -0.359 N 
HETATM   20  C13 UNL     1      29.066  44.025  14.151  1.00  0.00     0.161 C 
ATOM     21  H8  UNL     1      27.127  44.766  14.714  1.00  0.00     0.173 HD
ENDBRANCH  16  19
ENDBRANCH  15  16
ENDBRANCH  14  15
ENDBRANCH  13  14
ENDBRANCH  12  13
ENDBRANCH  10  12
ENDBRANCH   1  10
BRANCH   4  22
HETATM   22  N4  UNL     1      21.809  47.174  19.282  1.00  0.00    -0.229 N 
HETATM   23  C9  UNL     1      22.301  48.191  18.384  1.00  0.00     0.165 C 
ATOM     24  H4  UNL     1      21.690  47.404  20.269  1.00  0.00     0.177 HD
ENDBRANCH   4  22
BRANCH   7  25
HETATM   25  N6  UNL     1      18.858  43.645  19.183  1.00  0.00    -0.223 N 
ATOM     26  H6  UNL     1      18.363  43.988  20.006  1.00  0.00     0.177 HD
BRANCH  25  27
HETATM   27  C11 UNL     1      18.305  42.574  18.399  1.00  0.00     0.164 C 
BRANCH  27  28
HETATM   28  C12 UNL     1      18.608  41.272  19.088  1.00  0.00     0.184 C 
BRANCH  28  29
HETATM   29  O1  UNL     1      19.797  40.708  18.684  1.00  0.00    -0.399 OA
ATOM     30  H1  UNL     1      20.560  41.158  19.026  1.00  0.00     0.209 HD
ENDBRANCH  28  29
ENDBRANCH  27  28
ENDBRANCH  25  27
ENDBRANCH   7  25
TORSDOF 13
ENDMDL
