MODEL 1
REMARK VINA RESULT: -5.827020510      0.000      0.000
REMARK  6 active torsions:
REMARK  status: ('A' for Active; 'I' for Inactive)
REMARK    1  A    between atoms: N1_2  and  C2_3 
REMARK    2  A    between atoms: N2_4  and  O1_6 
REMARK    3  A    between atoms: N3_10  and  C5_11 
REMARK    4  A    between atoms: C5_11  and  O2_12 
REMARK    5  A    between atoms: C6_14  and  C7_15 
REMARK    6  A    between atoms: C7_15  and  N4_16 
ROOT
HETATM    1  C1  UNL     1      22.948  45.600  14.862  1.00  0.00     0.280 C 
HETATM    2  N1  UNL     1      23.623  45.371  16.125  1.00  0.00    -0.029 N 
HETATM    3  C3  UNL     1      23.327  44.037  16.581  1.00  0.00     0.288 C 
HETATM    4  C4  UNL     1      21.892  43.896  17.050  1.00  0.00     0.089 C 
HETATM    5  N3  UNL     1      21.471  44.915  17.927  1.00  0.00    -0.363 N 
HETATM    6  C6  UNL     1      21.897  46.227  17.659  1.00  0.00     0.137 C 
HETATM    7  C8  UNL     1      23.292  46.355  17.114  1.00  0.00     0.271 C 
ENDROOT
BRANCH   2   8
HETATM    8  C2  UNL     1      25.037  45.439  15.914  1.00  0.00     0.316 C 
HETATM    9  N2  UNL     1      25.613  46.505  15.498  1.00  0.00    -0.258 N 
ATOM     10  H2  UNL     1      26.624  46.483  15.371  1.00  0.00     0.194 HD
BRANCH   9  11
HETATM   11  O1  UNL     1      24.965  47.661  15.216  1.00  0.00    -0.289 OA
ATOM     12  H1  UNL     1      24.152  47.712  14.727  1.00  0.00     0.244 HD
ENDBRANCH   9  11
ENDBRANCH   2   8
BRANCH   6  13
HETATM   13  C7  UNL     1      21.779  47.133  18.863  1.00  0.00     0.256 C 
BRANCH  13  14
HETATM   14  N4  UNL     1      22.287  48.459  18.602  1.00  0.00    -0.077 N 
ATOM     15  H43 UNL     1      23.305  48.456  18.529  1.00  0.00     0.274 HD
ATOM     16  H42 UNL     1      22.057  48.762  17.656  1.00  0.00     0.274 HD
ATOM     17  H41 UNL     1      21.969  49.138  19.294  1.00  0.00     0.274 HD
ENDBRANCH  13  14
ENDBRANCH   6  13
BRANCH   5  18
HETATM   18  C5  UNL     1      21.407  44.543  19.316  1.00  0.00     0.289 C 
BRANCH  18  19
HETATM   19  O2  UNL     1      20.434  43.521  19.416  1.00  0.00    -0.382 OA
ATOM     20  H2  UNL     1      19.998  43.643  20.251  1.00  0.00     0.211 HD
ENDBRANCH  18  19
ENDBRANCH   5  18
TORSDOF 6
ENDMDL
MODEL 2
REMARK VINA RESULT: -5.776676022      2.282      3.120
REMARK  6 active torsions:
REMARK  status: ('A' for Active; 'I' for Inactive)
REMARK    1  A    between atoms: N1_2  and  C2_3 
REMARK    2  A    between atoms: N2_4  and  O1_6 
REMARK    3  A    between atoms: N3_10  and  C5_11 
REMARK    4  A    between atoms: C5_11  and  O2_12 
REMARK    5  A    between atoms: C6_14  and  C7_15 
REMARK    6  A    between atoms: C7_15  and  N4_16 
ROOT
HETATM    1  C1  UNL     1      24.048  43.097  17.019  1.00  0.00     0.280 C 
HETATM    2  N1  UNL     1      23.291  44.232  16.528  1.00  0.00    -0.029 N 
HETATM    3  C3  UNL     1      23.976  45.447  16.888  1.00  0.00     0.288 C 
HETATM    4  C4  UNL     1      23.894  45.732  18.375  1.00  0.00     0.089 C 
HETATM    5  N3  UNL     1      22.597  45.618  18.912  1.00  0.00    -0.363 N 
HETATM    6  C6  UNL     1      21.787  44.567  18.450  1.00  0.00     0.137 C 
HETATM    7  C8  UNL     1      21.934  44.232  16.992  1.00  0.00     0.271 C 
ENDROOT
BRANCH   2   8
HETATM    8  C2  UNL     1      23.251  44.180  15.098  1.00  0.00     0.316 C 
HETATM    9  N2  UNL     1      22.574  45.018  14.405  1.00  0.00    -0.258 N 
ATOM     10  H2  UNL     1      22.591  44.923  13.390  1.00  0.00     0.194 HD
BRANCH   9  11
HETATM   11  O1  UNL     1      21.836  46.024  14.934  1.00  0.00    -0.289 OA
ATOM     12  H1  UNL     1      21.527  46.776  14.442  1.00  0.00     0.244 HD
ENDBRANCH   9  11
ENDBRANCH   2   8
BRANCH   6  13
HETATM   13  C7  UNL     1      20.321  44.797  18.733  1.00  0.00     0.256 C 
BRANCH  13  14
HETATM   14  N4  UNL     1      19.475  43.853  18.041  1.00  0.00    -0.077 N 
ATOM     15  H43 UNL     1      19.183  43.096  18.660  1.00  0.00     0.274 HD
ATOM     16  H42 UNL     1      18.562  44.258  17.836  1.00  0.00     0.274 HD
ATOM     17  H41 UNL     1      19.914  43.488  17.196  1.00  0.00     0.274 HD
ENDBRANCH  13  14
ENDBRANCH   6  13
BRANCH   5  18
HETATM   18  C5  UNL     1      21.927  46.865  19.170  1.00  0.00     0.289 C 
BRANCH  18  19
HETATM   19  O2  UNL     1      22.930  47.863  19.202  1.00  0.00    -0.382 OA
ATOM     20  H2  UNL     1      23.194  48.010  18.301  1.00  0.00     0.211 HD
ENDBRANCH  18  19
ENDBRANCH   5  18
TORSDOF 6
ENDMDL
MODEL 3
REMARK VINA RESULT: -5.763816702      1.468      4.527
REMARK  6 active torsions:
REMARK  status: ('A' for Active; 'I' for Inactive)
REMARK    1  A    between atoms: N1_2  and  C2_3 
REMARK    2  A    between atoms: N2_4  and  O1_6 
REMARK    3  A    between atoms: N3_10  and  C5_11 
REMARK    4  A    between atoms: C5_11  and  O2_12 
REMARK    5  A    between atoms: C6_14  and  C7_15 
REMARK    6  A    between atoms: C7_15  and  N4_16 
ROOT
HETATM    1  C1  UNL     1      21.605  43.894  17.125  1.00  0.00     0.280 C 
HETATM    2  N1  UNL     1      22.145  45.219  17.363  1.00  0.00    -0.029 N 
HETATM    3  C3  UNL     1      22.138  45.959  16.127  1.00  0.00     0.288 C 
HETATM    4  C4  UNL     1      23.180  45.450  15.149  1.00  0.00     0.089 C 
HETATM    5  N3  UNL     1      24.460  45.273  15.712  1.00  0.00    -0.363 N 
HETATM    6  C6  UNL     1      24.536  44.744  17.011  1.00  0.00     0.137 C 
HETATM    7  C8  UNL     1      23.451  45.185  17.953  1.00  0.00     0.271 C 
ENDROOT
BRANCH   2   8
HETATM    8  C2  UNL     1      21.285  45.914  18.273  1.00  0.00     0.316 C 
HETATM    9  N2  UNL     1      20.806  45.352  19.320  1.00  0.00    -0.258 N 
ATOM     10  H2  UNL     1      20.200  45.907  19.924  1.00  0.00     0.194 HD
BRANCH   9  11
HETATM   11  O1  UNL     1      21.052  44.068  19.677  1.00  0.00    -0.289 OA
ATOM     12  H1  UNL     1      21.664  43.811  20.357  1.00  0.00     0.244 HD
ENDBRANCH   9  11
ENDBRANCH   2   8
BRANCH   6  13
HETATM   13  C7  UNL     1      25.868  45.013  17.671  1.00  0.00     0.256 C 
BRANCH  13  14
HETATM   14  N4  UNL     1      25.727  45.717  18.923  1.00  0.00    -0.077 N 
ATOM     15  H43 UNL     1      25.419  45.090  19.666  1.00  0.00     0.274 HD
ATOM     16  H42 UNL     1      26.636  45.983  19.301  1.00  0.00     0.274 HD
ATOM     17  H41 UNL     1      25.110  46.526  18.845  1.00  0.00     0.274 HD
ENDBRANCH  13  14
ENDBRANCH   6  13
BRANCH   5  18
HETATM   18  C5  UNL     1      25.419  46.296  15.390  1.00  0.00     0.289 C 
BRANCH  18  19
HETATM   19  O2  UNL     1      24.701  47.512  15.308  1.00  0.00    -0.382 OA
ATOM     20  H2  UNL     1      23.927  47.335  14.786  1.00  0.00     0.211 HD
ENDBRANCH  18  19
ENDBRANCH   5  18
TORSDOF 6
ENDMDL
MODEL 4
REMARK VINA RESULT: -5.743863543      2.021      4.566
REMARK  6 active torsions:
REMARK  status: ('A' for Active; 'I' for Inactive)
REMARK    1  A    between atoms: N1_2  and  C2_3 
REMARK    2  A    between atoms: N2_4  and  O1_6 
REMARK    3  A    between atoms: N3_10  and  C5_11 
REMARK    4  A    between atoms: C5_11  and  O2_12 
REMARK    5  A    between atoms: C6_14  and  C7_15 
REMARK    6  A    between atoms: C7_15  and  N4_16 
ROOT
HETATM    1  C1  UNL     1      21.530  45.042  18.515  1.00  0.00     0.280 C 
HETATM    2  N1  UNL     1      22.848  45.541  18.173  1.00  0.00    -0.029 N 
HETATM    3  C3  UNL     1      22.715  46.584  17.187  1.00  0.00     0.288 C 
HETATM    4  C4  UNL     1      22.307  46.043  15.831  1.00  0.00     0.089 C 
HETATM    5  N3  UNL     1      23.063  44.934  15.403  1.00  0.00    -0.363 N 
HETATM    6  C6  UNL     1      23.411  43.969  16.363  1.00  0.00     0.137 C 
HETATM    7  C8  UNL     1      23.733  44.504  17.730  1.00  0.00     0.271 C 
ENDROOT
BRANCH   2   8
HETATM    8  C2  UNL     1      23.436  46.135  19.335  1.00  0.00     0.316 C 
HETATM    9  N2  UNL     1      22.913  47.148  19.920  1.00  0.00    -0.258 N 
ATOM     10  H2  UNL     1      23.386  47.519  20.744  1.00  0.00     0.194 HD
BRANCH   9  11
HETATM   11  O1  UNL     1      21.774  47.759  19.514  1.00  0.00    -0.289 OA
ATOM     12  H1  UNL     1      21.472  47.783  18.613  1.00  0.00     0.244 HD
ENDBRANCH   9  11
ENDBRANCH   2   8
BRANCH   6  13
HETATM   13  C7  UNL     1      24.562  43.096  15.917  1.00  0.00     0.256 C 
BRANCH  13  14
HETATM   14  N4  UNL     1      24.867  42.061  16.877  1.00  0.00    -0.077 N 
ATOM     15  H43 UNL     1      24.639  42.359  17.826  1.00  0.00     0.274 HD
ATOM     16  H42 UNL     1      24.219  41.278  16.792  1.00  0.00     0.274 HD
ATOM     17  H41 UNL     1      25.835  41.747  16.812  1.00  0.00     0.274 HD
ENDBRANCH  13  14
ENDBRANCH   6  13
BRANCH   5  18
HETATM   18  C5  UNL     1      24.059  45.218  14.404  1.00  0.00     0.289 C 
BRANCH  18  19
HETATM   19  O2  UNL     1      23.823  46.543  13.965  1.00  0.00    -0.382 OA
ATOM     20  H2  UNL     1      23.344  46.477  13.148  1.00  0.00     0.211 HD
ENDBRANCH  18  19
ENDBRANCH   5  18
TORSDOF 6
ENDMDL
MODEL 5
REMARK VINA RESULT: -5.743029128      1.664      3.005
REMARK  6 active torsions:
REMARK  status: ('A' for Active; 'I' for Inactive)
REMARK    1  A    between atoms: N1_2  and  C2_3 
REMARK    2  A    between atoms: N2_4  and  O1_6 
REMARK    3  A    between atoms: N3_10  and  C5_11 
REMARK    4  A    between atoms: C5_11  and  O2_12 
REMARK    5  A    between atoms: C6_14  and  C7_15 
REMARK    6  A    between atoms: C7_15  and  N4_16 
ROOT
HETATM    1  C1  UNL     1      24.156  44.451  17.469  1.00  0.00     0.280 C 
HETATM    2  N1  UNL     1      23.004  45.067  16.839  1.00  0.00    -0.029 N 
HETATM    3  C3  UNL     1      22.650  46.259  17.567  1.00  0.00     0.288 C 
HETATM    4  C4  UNL     1      22.040  45.944  18.919  1.00  0.00     0.089 C 
HETATM    5  N3  UNL     1      21.027  44.966  18.880  1.00  0.00    -0.363 N 
HETATM    6  C6  UNL     1      21.211  43.866  18.026  1.00  0.00     0.137 C 
HETATM    7  C8  UNL     1      21.893  44.169  16.721  1.00  0.00     0.271 C 
ENDROOT
BRANCH   2   8
HETATM    8  C2  UNL     1      23.363  45.476  15.515  1.00  0.00     0.316 C 
HETATM    9  N2  UNL     1      24.461  46.088  15.266  1.00  0.00    -0.258 N 
ATOM     10  H2  UNL     1      24.653  46.349  14.299  1.00  0.00     0.194 HD
BRANCH   9  11
HETATM   11  O1  UNL     1      25.384  46.411  16.204  1.00  0.00    -0.289 OA
ATOM     12  H1  UNL     1      26.323  46.360  16.070  1.00  0.00     0.244 HD
ENDBRANCH   9  11
ENDBRANCH   2   8
BRANCH   6  13
HETATM   13  C7  UNL     1      19.919  43.143  17.723  1.00  0.00     0.256 C 
BRANCH  13  14
HETATM   14  N4  UNL     1      19.939  41.773  18.179  1.00  0.00    -0.077 N 
ATOM     15  H43 UNL     1      19.559  41.144  17.471  1.00  0.00     0.274 HD
ATOM     16  H42 UNL     1      20.893  41.413  18.220  1.00  0.00     0.274 HD
ATOM     17  H41 UNL     1      19.461  41.655  19.072  1.00  0.00     0.274 HD
ENDBRANCH  13  14
ENDBRANCH   6  13
BRANCH   5  18
HETATM   18  C5  UNL     1      19.683  45.470  18.979  1.00  0.00     0.289 C 
BRANCH  18  19
HETATM   19  O2  UNL     1      19.288  45.307  20.328  1.00  0.00    -0.382 OA
ATOM     20  H2  UNL     1      19.839  45.885  20.843  1.00  0.00     0.211 HD
ENDBRANCH  18  19
ENDBRANCH   5  18
TORSDOF 6
ENDMDL
