MODEL 1
REMARK VINA RESULT: -6.198492622      0.000      0.000
REMARK  7 active torsions:
REMARK  status: ('A' for Active; 'I' for Inactive)
REMARK    1  A    between atoms: O1_1  and  O2_3 
REMARK    2  A    between atoms: O2_3  and  C1_4 
REMARK    3  A    between atoms: C1_4  and  C2_5 
REMARK    4  A    between atoms: C2_5  and  S1_6 
REMARK    5  A    between atoms: C4_8  and  O3_9 
REMARK    6  A    between atoms: C5_11  and  C6_12 
REMARK    7  A    between atoms: C6_12  and  O4_13 
ROOT
HETATM    1  S1  UNL     1      17.816  41.359  16.878  1.00  0.00    -0.084 SA
HETATM    2  C3  UNL     1      16.754  42.321  17.948  1.00  0.00     0.126 C 
HETATM    3  C4  UNL     1      17.554  42.020  19.239  1.00  0.00     0.161 C 
HETATM    4  C5  UNL     1      18.954  42.002  18.829  1.00  0.00     0.189 C 
HETATM    5  O5  UNL     1      19.162  41.171  17.723  1.00  0.00    -0.321 OA
ENDROOT
BRANCH   1   6
HETATM    6  C2  UNL     1      17.685  41.664  15.184  1.00  0.00     0.121 C 
BRANCH   6   7
HETATM    7  C1  UNL     1      16.222  42.136  14.850  1.00  0.00     0.221 C 
BRANCH   7   8
HETATM    8  O2  UNL     1      15.588  40.842  15.173  1.00  0.00    -0.243 OA
BRANCH   8   9
HETATM    9  O1  UNL     1      14.352  40.935  15.564  1.00  0.00    -0.251 OA
ATOM     10  H1  UNL     1      14.248  41.066  16.500  1.00  0.00     0.253 HD
ENDBRANCH   8   9
ENDBRANCH   7   8
ENDBRANCH   6   7
ENDBRANCH   1   6
BRANCH   3  11
HETATM   11  O3  UNL     1      17.062  40.781  19.657  1.00  0.00    -0.392 OA
ATOM     12  H3  UNL     1      16.235  40.993  20.074  1.00  0.00     0.210 HD
ENDBRANCH   3  11
BRANCH   4  13
HETATM   13  C6  UNL     1      19.475  43.388  18.687  1.00  0.00     0.199 C 
BRANCH  13  14
HETATM   14  O4  UNL     1      19.124  44.244  19.735  1.00  0.00    -0.398 OA
ATOM     15  H4  UNL     1      19.714  44.979  19.852  1.00  0.00     0.209 HD
ENDBRANCH  13  14
ENDBRANCH   4  13
TORSDOF 7
ENDMDL
MODEL 2
REMARK VINA RESULT: -6.123860075      1.436      4.640
REMARK  7 active torsions:
REMARK  status: ('A' for Active; 'I' for Inactive)
REMARK    1  A    between atoms: O1_1  and  O2_3 
REMARK    2  A    between atoms: O2_3  and  C1_4 
REMARK    3  A    between atoms: C1_4  and  C2_5 
REMARK    4  A    between atoms: C2_5  and  S1_6 
REMARK    5  A    between atoms: C4_8  and  O3_9 
REMARK    6  A    between atoms: C5_11  and  C6_12 
REMARK    7  A    between atoms: C6_12  and  O4_13 
ROOT
HETATM    1  S1  UNL     1      18.894  42.720  18.167  1.00  0.00    -0.084 SA
HETATM    2  C3  UNL     1      18.897  40.939  18.322  1.00  0.00     0.126 C 
HETATM    3  C4  UNL     1      17.359  40.791  18.222  1.00  0.00     0.161 C 
HETATM    4  C5  UNL     1      16.938  41.796  17.252  1.00  0.00     0.189 C 
HETATM    5  O5  UNL     1      17.455  43.061  17.554  1.00  0.00    -0.321 OA
ENDROOT
BRANCH   1   6
HETATM    6  C2  UNL     1      20.399  43.462  17.761  1.00  0.00     0.121 C 
BRANCH   6   7
HETATM    7  C1  UNL     1      20.684  44.645  18.758  1.00  0.00     0.221 C 
BRANCH   7   8
HETATM    8  O2  UNL     1      19.561  44.329  19.663  1.00  0.00    -0.243 OA
BRANCH   8   9
HETATM    9  O1  UNL     1      19.144  45.337  20.369  1.00  0.00    -0.251 OA
ATOM     10  H1  UNL     1      19.512  45.380  21.244  1.00  0.00     0.253 HD
ENDBRANCH   8   9
ENDBRANCH   7   8
ENDBRANCH   6   7
ENDBRANCH   1   6
BRANCH   3  11
HETATM   11  O3  UNL     1      16.914  41.029  19.525  1.00  0.00    -0.392 OA
ATOM     12  H3  UNL     1      16.059  41.425  19.405  1.00  0.00     0.210 HD
ENDBRANCH   3  11
BRANCH   4  13
HETATM   13  C6  UNL     1      17.193  41.323  15.866  1.00  0.00     0.199 C 
BRANCH  13  14
HETATM   14  O4  UNL     1      16.067  40.808  15.217  1.00  0.00    -0.398 OA
ATOM     15  H4  UNL     1      15.728  41.363  14.524  1.00  0.00     0.209 HD
ENDBRANCH  13  14
ENDBRANCH   4  13
TORSDOF 7
ENDMDL
MODEL 3
REMARK VINA RESULT: -6.067877093      1.363      2.592
REMARK  7 active torsions:
REMARK  status: ('A' for Active; 'I' for Inactive)
REMARK    1  A    between atoms: O1_1  and  O2_3 
REMARK    2  A    between atoms: O2_3  and  C1_4 
REMARK    3  A    between atoms: C1_4  and  C2_5 
REMARK    4  A    between atoms: C2_5  and  S1_6 
REMARK    5  A    between atoms: C4_8  and  O3_9 
REMARK    6  A    between atoms: C5_11  and  C6_12 
REMARK    7  A    between atoms: C6_12  and  O4_13 
ROOT
HETATM    1  S1  UNL     1      17.730  42.515  17.101  1.00  0.00    -0.084 SA
HETATM    2  C3  UNL     1      19.387  42.322  17.745  1.00  0.00     0.126 C 
HETATM    3  C4  UNL     1      18.978  42.499  19.228  1.00  0.00     0.161 C 
HETATM    4  C5  UNL     1      17.681  41.843  19.351  1.00  0.00     0.189 C 
HETATM    5  O5  UNL     1      16.783  42.274  18.369  1.00  0.00    -0.321 OA
ENDROOT
BRANCH   1   6
HETATM    6  C2  UNL     1      17.463  41.971  15.485  1.00  0.00     0.121 C 
BRANCH   6   7
HETATM    7  C1  UNL     1      16.215  41.014  15.455  1.00  0.00     0.221 C 
BRANCH   7   8
HETATM    8  O2  UNL     1      15.387  41.902  14.613  1.00  0.00    -0.243 OA
BRANCH   8   9
HETATM    9  O1  UNL     1      16.067  42.654  13.801  1.00  0.00    -0.251 OA
ATOM     10  H1  UNL     1      16.816  43.083  14.200  1.00  0.00     0.253 HD
ENDBRANCH   8   9
ENDBRANCH   7   8
ENDBRANCH   6   7
ENDBRANCH   1   6
BRANCH   3  11
HETATM   11  O3  UNL     1      18.938  43.885  19.401  1.00  0.00    -0.392 OA
ATOM     12  H3  UNL     1      19.238  44.012  20.293  1.00  0.00     0.210 HD
ENDBRANCH   3  11
BRANCH   4  13
HETATM   13  C6  UNL     1      17.850  40.369  19.450  1.00  0.00     0.199 C 
BRANCH  13  14
HETATM   14  O4  UNL     1      17.536  39.837  20.704  1.00  0.00    -0.398 OA
ATOM     15  H4  UNL     1      16.658  39.480  20.769  1.00  0.00     0.209 HD
ENDBRANCH  13  14
ENDBRANCH   4  13
TORSDOF 7
ENDMDL
MODEL 4
REMARK VINA RESULT: -6.061337189      3.711      5.817
REMARK  7 active torsions:
REMARK  status: ('A' for Active; 'I' for Inactive)
REMARK    1  A    between atoms: O1_1  and  O2_3 
REMARK    2  A    between atoms: O2_3  and  C1_4 
REMARK    3  A    between atoms: C1_4  and  C2_5 
REMARK    4  A    between atoms: C2_5  and  S1_6 
REMARK    5  A    between atoms: C4_8  and  O3_9 
REMARK    6  A    between atoms: C5_11  and  C6_12 
REMARK    7  A    between atoms: C6_12  and  O4_13 
ROOT
HETATM    1  S1  UNL     1      20.579  45.067  18.451  1.00  0.00    -0.084 SA
HETATM    2  C3  UNL     1      21.895  44.751  17.283  1.00  0.00     0.126 C 
HETATM    3  C4  UNL     1      22.413  46.210  17.264  1.00  0.00     0.161 C 
HETATM    4  C5  UNL     1      22.269  46.688  18.635  1.00  0.00     0.189 C 
HETATM    5  O5  UNL     1      20.983  46.457  19.135  1.00  0.00    -0.321 OA
ENDROOT
BRANCH   1   6
HETATM    6  C2  UNL     1      19.890  43.688  19.228  1.00  0.00     0.121 C 
BRANCH   6   7
HETATM    7  C1  UNL     1      19.062  42.858  18.180  1.00  0.00     0.221 C 
BRANCH   7   8
HETATM    8  O2  UNL     1      20.081  41.801  18.013  1.00  0.00    -0.243 OA
BRANCH   8   9
HETATM    9  O1  UNL     1      19.763  40.662  18.551  1.00  0.00    -0.251 OA
ATOM     10  H1  UNL     1      20.370  39.957  18.360  1.00  0.00     0.253 HD
ENDBRANCH   8   9
ENDBRANCH   7   8
ENDBRANCH   6   7
ENDBRANCH   1   6
BRANCH   3  11
HETATM   11  O3  UNL     1      21.580  46.849  16.343  1.00  0.00    -0.392 OA
ATOM     12  H3  UNL     1      21.094  47.473  16.869  1.00  0.00     0.210 HD
ENDBRANCH   3  11
BRANCH   4  13
HETATM   13  C6  UNL     1      23.379  46.179  19.484  1.00  0.00     0.199 C 
BRANCH  13  14
HETATM   14  O4  UNL     1      24.125  47.179  20.115  1.00  0.00    -0.398 OA
ATOM     15  H4  UNL     1      24.625  46.878  20.865  1.00  0.00     0.209 HD
ENDBRANCH  13  14
ENDBRANCH   4  13
TORSDOF 7
ENDMDL
MODEL 5
REMARK VINA RESULT: -6.050866792      1.234      2.437
REMARK  7 active torsions:
REMARK  status: ('A' for Active; 'I' for Inactive)
REMARK    1  A    between atoms: O1_1  and  O2_3 
REMARK    2  A    between atoms: O2_3  and  C1_4 
REMARK    3  A    between atoms: C1_4  and  C2_5 
REMARK    4  A    between atoms: C2_5  and  S1_6 
REMARK    5  A    between atoms: C4_8  and  O3_9 
REMARK    6  A    between atoms: C5_11  and  C6_12 
REMARK    7  A    between atoms: C6_12  and  O4_13 
ROOT
HETATM    1  S1  UNL     1      17.682  42.461  17.019  1.00  0.00    -0.084 SA
HETATM    2  C3  UNL     1      19.334  42.273  17.676  1.00  0.00     0.126 C 
HETATM    3  C4  UNL     1      18.906  42.403  19.158  1.00  0.00     0.161 C 
HETATM    4  C5  UNL     1      17.617  41.726  19.249  1.00  0.00     0.189 C 
HETATM    5  O5  UNL     1      16.724  42.173  18.269  1.00  0.00    -0.321 OA
ENDROOT
BRANCH   1   6
HETATM    6  C2  UNL     1      17.439  41.959  15.385  1.00  0.00     0.121 C 
BRANCH   6   7
HETATM    7  C1  UNL     1      15.898  41.899  15.080  1.00  0.00     0.221 C 
BRANCH   7   8
HETATM    8  O2  UNL     1      15.749  40.471  15.428  1.00  0.00    -0.243 OA
BRANCH   8   9
HETATM    9  O1  UNL     1      15.075  40.254  16.517  1.00  0.00    -0.251 OA
ATOM     10  H1  UNL     1      14.531  39.476  16.491  1.00  0.00     0.253 HD
ENDBRANCH   8   9
ENDBRANCH   7   8
ENDBRANCH   6   7
ENDBRANCH   1   6
BRANCH   3  11
HETATM   11  O3  UNL     1      18.845  43.783  19.369  1.00  0.00    -0.392 OA
ATOM     12  H3  UNL     1      19.756  44.046  19.425  1.00  0.00     0.210 HD
ENDBRANCH   3  11
BRANCH   4  13
HETATM   13  C6  UNL     1      17.805  40.252  19.309  1.00  0.00     0.199 C 
BRANCH  13  14
HETATM   14  O4  UNL     1      17.474  39.680  20.541  1.00  0.00    -0.398 OA
ATOM     15  H4  UNL     1      18.221  39.377  21.044  1.00  0.00     0.209 HD
ENDBRANCH  13  14
ENDBRANCH   4  13
TORSDOF 7
ENDMDL
