MODEL 1
REMARK VINA RESULT: -6.809448800      0.000      0.000
REMARK  5 active torsions:
REMARK  status: ('A' for Active; 'I' for Inactive)
REMARK    1  A    between atoms: O1_2  and  C2_3 
REMARK    2  A    between atoms: C3_4  and  C4_5 
REMARK    3  A    between atoms: C4_5  and  S1_6 
REMARK    4  A    between atoms: C5_12  and  O4_13 
REMARK    5  A    between atoms: C6_15  and  O5_16 
ROOT
HETATM    1  C2  UNL     1      18.871  42.775  18.205  1.00  0.00     0.185 C 
HETATM    2  C3  UNL     1      17.559  42.617  17.450  1.00  0.00     0.235 C 
HETATM    3  N1  UNL     1      16.704  42.036  18.435  1.00  0.00    -0.039 N 
ATOM      4  H11 UNL     1      15.847  41.637  18.051  1.00  0.00     0.281 HD
ATOM      5  H12 UNL     1      16.255  42.722  19.042  1.00  0.00     0.281 HD
HETATM    6  C5  UNL     1      17.524  41.080  19.144  1.00  0.00     0.350 C 
HETATM    7  C6  UNL     1      18.945  41.567  19.044  1.00  0.00     0.205 C 
ENDROOT
BRANCH   2   8
HETATM    8  C4  UNL     1      17.802  41.748  16.258  1.00  0.00     0.193 C 
BRANCH   8   9
HETATM    9  S1  UNL     1      16.347  41.501  15.297  1.00  0.00     0.252 S 
HETATM   10  O2  UNL     1      16.255  42.720  14.147  1.00  0.00    -0.212 OA
HETATM   11  O3  UNL     1      15.012  41.468  16.277  1.00  0.00    -0.212 OA
ENDBRANCH   8   9
ENDBRANCH   2   8
BRANCH   1  12
HETATM   12  O1  UNL     1      19.850  43.051  17.346  1.00  0.00    -0.386 OA
HETATM   13  C1  UNL     1      20.890  43.842  17.765  1.00  0.00     0.202 C 
ENDBRANCH   1  12
BRANCH   7  14
HETATM   14  O5  UNL     1      19.772  40.562  18.597  1.00  0.00    -0.389 OA
ATOM     15  H5  UNL     1      19.409  39.685  18.597  1.00  0.00     0.210 HD
ENDBRANCH   7  14
BRANCH   6  16
HETATM   16  O4  UNL     1      17.359  39.816  18.576  1.00  0.00    -0.368 OA
ATOM     17  H4  UNL     1      18.092  39.263  18.818  1.00  0.00     0.212 HD
ENDBRANCH   6  16
TORSDOF 5
ENDMDL
MODEL 2
REMARK VINA RESULT: -6.065395797      2.399      4.106
REMARK  5 active torsions:
REMARK  status: ('A' for Active; 'I' for Inactive)
REMARK    1  A    between atoms: O1_2  and  C2_3 
REMARK    2  A    between atoms: C3_4  and  C4_5 
REMARK    3  A    between atoms: C4_5  and  S1_6 
REMARK    4  A    between atoms: C5_12  and  O4_13 
REMARK    5  A    between atoms: C6_15  and  O5_16 
ROOT
HETATM    1  C2  UNL     1      17.584  41.537  16.666  1.00  0.00     0.185 C 
HETATM    2  C3  UNL     1      18.856  41.941  17.399  1.00  0.00     0.235 C 
HETATM    3  N1  UNL     1      19.067  40.837  18.280  1.00  0.00    -0.039 N 
ATOM      4  H11 UNL     1      19.741  41.028  19.022  1.00  0.00     0.281 HD
ATOM      5  H12 UNL     1      19.576  40.064  17.853  1.00  0.00     0.281 HD
HETATM    6  C5  UNL     1      17.754  40.472  18.765  1.00  0.00     0.350 C 
HETATM    7  C6  UNL     1      16.770  40.883  17.703  1.00  0.00     0.205 C 
ENDROOT
BRANCH   2   8
HETATM    8  C4  UNL     1      18.610  43.242  18.092  1.00  0.00     0.193 C 
BRANCH   8   9
HETATM    9  S1  UNL     1      20.016  43.804  18.989  1.00  0.00     0.252 S 
HETATM   10  O2  UNL     1      19.682  45.331  19.601  1.00  0.00    -0.212 OA
HETATM   11  O3  UNL     1      21.355  43.804  18.015  1.00  0.00    -0.212 OA
ENDBRANCH   8   9
ENDBRANCH   2   8
BRANCH   1  12
HETATM   12  O1  UNL     1      17.101  42.584  16.001  1.00  0.00    -0.386 OA
HETATM   13  C1  UNL     1      16.466  42.369  14.804  1.00  0.00     0.202 C 
ENDBRANCH   1  12
BRANCH   7  14
HETATM   14  O5  UNL     1      15.754  41.635  18.248  1.00  0.00    -0.389 OA
ATOM     15  H5  UNL     1      15.187  41.193  18.869  1.00  0.00     0.210 HD
ENDBRANCH   7  14
BRANCH   6  16
HETATM   16  O4  UNL     1      17.516  41.113  19.982  1.00  0.00    -0.368 OA
ATOM     17  H4  UNL     1      18.333  41.194  20.460  1.00  0.00     0.212 HD
ENDBRANCH   6  16
TORSDOF 5
ENDMDL
MODEL 3
REMARK VINA RESULT: -5.982503712      4.804      7.035
REMARK  5 active torsions:
REMARK  status: ('A' for Active; 'I' for Inactive)
REMARK    1  A    between atoms: O1_2  and  C2_3 
REMARK    2  A    between atoms: C3_4  and  C4_5 
REMARK    3  A    between atoms: C4_5  and  S1_6 
REMARK    4  A    between atoms: C5_12  and  O4_13 
REMARK    5  A    between atoms: C6_15  and  O5_16 
ROOT
HETATM    1  C2  UNL     1      21.576  44.724  18.413  1.00  0.00     0.185 C 
HETATM    2  C3  UNL     1      22.850  45.142  17.695  1.00  0.00     0.235 C 
HETATM    3  N1  UNL     1      23.335  46.203  18.518  1.00  0.00    -0.039 N 
ATOM      4  H11 UNL     1      24.057  46.770  18.074  1.00  0.00     0.281 HD
ATOM      5  H12 UNL     1      23.900  45.885  19.305  1.00  0.00     0.281 HD
HETATM    6  C5  UNL     1      22.163  46.955  18.910  1.00  0.00     0.350 C 
HETATM    7  C6  UNL     1      21.004  45.994  18.890  1.00  0.00     0.205 C 
ENDROOT
BRANCH   2   8
HETATM    8  C4  UNL     1      22.495  45.558  16.303  1.00  0.00     0.193 C 
BRANCH   8   9
HETATM    9  S1  UNL     1      23.855  46.273  15.445  1.00  0.00     0.252 S 
HETATM   10  O2  UNL     1      25.267  45.877  16.262  1.00  0.00    -0.212 OA
HETATM   11  O3  UNL     1      23.652  47.911  15.312  1.00  0.00    -0.212 OA
ENDBRANCH   8   9
ENDBRANCH   2   8
BRANCH   1  12
HETATM   12  O1  UNL     1      20.860  43.926  17.624  1.00  0.00    -0.386 OA
HETATM   13  C1  UNL     1      19.877  43.152  18.186  1.00  0.00     0.202 C 
ENDBRANCH   1  12
BRANCH   7  14
HETATM   14  O5  UNL     1      19.960  46.509  18.156  1.00  0.00    -0.389 OA
ATOM     15  H5  UNL     1      20.006  46.390  17.215  1.00  0.00     0.210 HD
ENDBRANCH   7  14
BRANCH   6  16
HETATM   16  O4  UNL     1      21.980  48.020  18.027  1.00  0.00    -0.368 OA
ATOM     17  H4  UNL     1      21.058  48.096  17.812  1.00  0.00     0.212 HD
ENDBRANCH   6  16
TORSDOF 5
ENDMDL
MODEL 4
REMARK VINA RESULT: -5.917584022      5.645      7.128
REMARK  5 active torsions:
REMARK  status: ('A' for Active; 'I' for Inactive)
REMARK    1  A    between atoms: O1_2  and  C2_3 
REMARK    2  A    between atoms: C3_4  and  C4_5 
REMARK    3  A    between atoms: C4_5  and  S1_6 
REMARK    4  A    between atoms: C5_12  and  O4_13 
REMARK    5  A    between atoms: C6_15  and  O5_16 
ROOT
HETATM    1  C2  UNL     1      22.938  45.923  17.840  1.00  0.00     0.185 C 
HETATM    2  C3  UNL     1      22.353  47.281  18.201  1.00  0.00     0.235 C 
HETATM    3  N1  UNL     1      21.544  46.977  19.337  1.00  0.00    -0.039 N 
ATOM      4  H11 UNL     1      20.884  47.716  19.581  1.00  0.00     0.281 HD
ATOM      5  H12 UNL     1      22.057  46.979  20.218  1.00  0.00     0.281 HD
HETATM    6  C5  UNL     1      20.913  45.711  19.035  1.00  0.00     0.350 C 
HETATM    7  C6  UNL     1      21.831  44.984  18.088  1.00  0.00     0.205 C 
ENDROOT
BRANCH   2   8
HETATM    8  C4  UNL     1      21.591  47.797  17.023  1.00  0.00     0.193 C 
BRANCH   8   9
HETATM    9  S1  UNL     1      22.096  49.416  16.550  1.00  0.00     0.252 S 
HETATM   10  O2  UNL     1      23.352  49.279  15.444  1.00  0.00    -0.212 OA
HETATM   11  O3  UNL     1      22.536  50.292  17.884  1.00  0.00    -0.212 OA
ENDBRANCH   8   9
ENDBRANCH   2   8
BRANCH   1  12
HETATM   12  O1  UNL     1      23.501  45.986  16.635  1.00  0.00    -0.386 OA
HETATM   13  C1  UNL     1      24.776  45.504  16.478  1.00  0.00     0.202 C 
ENDBRANCH   1  12
BRANCH   7  14
HETATM   14  O5  UNL     1      21.139  44.548  16.981  1.00  0.00    -0.389 OA
ATOM     15  H5  UNL     1      20.391  43.986  17.145  1.00  0.00     0.210 HD
ENDBRANCH   7  14
BRANCH   6  16
HETATM   16  O4  UNL     1      19.655  45.942  18.477  1.00  0.00    -0.368 OA
ATOM     17  H4  UNL     1      19.552  45.404  17.700  1.00  0.00     0.212 HD
ENDBRANCH   6  16
TORSDOF 5
ENDMDL
MODEL 5
REMARK VINA RESULT: -5.893679933      2.295      4.641
REMARK  5 active torsions:
REMARK  status: ('A' for Active; 'I' for Inactive)
REMARK    1  A    between atoms: O1_2  and  C2_3 
REMARK    2  A    between atoms: C3_4  and  C4_5 
REMARK    3  A    between atoms: C4_5  and  S1_6 
REMARK    4  A    between atoms: C5_12  and  O4_13 
REMARK    5  A    between atoms: C6_15  and  O5_16 
ROOT
HETATM    1  C2  UNL     1      15.509  41.227  16.175  1.00  0.00     0.185 C 
HETATM    2  C3  UNL     1      15.992  41.326  17.615  1.00  0.00     0.235 C 
HETATM    3  N1  UNL     1      16.439  42.679  17.698  1.00  0.00    -0.039 N 
ATOM      4  H11 UNL     1      17.016  42.871  18.517  1.00  0.00     0.281 HD
ATOM      5  H12 UNL     1      15.696  43.343  17.916  1.00  0.00     0.281 HD
HETATM    6  C5  UNL     1      17.106  42.944  16.442  1.00  0.00     0.350 C 
HETATM    7  C6  UNL     1      16.482  42.033  15.419  1.00  0.00     0.205 C 
ENDROOT
BRANCH   2   8
HETATM    8  C4  UNL     1      17.067  40.309  17.825  1.00  0.00     0.193 C 
BRANCH   8   9
HETATM    9  S1  UNL     1      18.053  40.654  19.242  1.00  0.00     0.252 S 
HETATM   10  O2  UNL     1      19.663  40.702  18.771  1.00  0.00    -0.212 OA
HETATM   11  O3  UNL     1      17.783  39.519  20.418  1.00  0.00    -0.212 OA
ENDBRANCH   8   9
ENDBRANCH   2   8
BRANCH   1  12
HETATM   12  O1  UNL     1      15.313  39.949  15.857  1.00  0.00    -0.386 OA
HETATM   13  C1  UNL     1      14.037  39.446  15.905  1.00  0.00     0.202 C 
ENDBRANCH   1  12
BRANCH   7  14
HETATM   14  O5  UNL     1      17.451  41.338  14.733  1.00  0.00    -0.389 OA
ATOM     15  H5  UNL     1      17.902  40.654  15.215  1.00  0.00     0.210 HD
ENDBRANCH   7  14
BRANCH   6  16
HETATM   16  O4  UNL     1      18.474  42.716  16.587  1.00  0.00    -0.368 OA
ATOM     17  H4  UNL     1      18.950  43.515  16.394  1.00  0.00     0.212 HD
ENDBRANCH   6  16
TORSDOF 5
ENDMDL
