MODEL 1
REMARK VINA RESULT: -6.604854062      0.000      0.000
REMARK  9 active torsions:
REMARK  status: ('A' for Active; 'I' for Inactive)
REMARK    1  A    between atoms: C3_3  and  C4_4 
REMARK    2  A    between atoms: C5_5  and  C6_6 
REMARK    3  A    between atoms: C6_6  and  C7_7 
REMARK    4  A    between atoms: C7_7  and  C8_8 
REMARK    5  A    between atoms: C8_8  and  C9_9 
REMARK    6  A    between atoms: C9_9  and  C10_10 
REMARK    7  A    between atoms: C10_10  and  C11_11 
REMARK    8  A    between atoms: C15_17  and  C17_19 
REMARK    9  A    between atoms: C17_19  and  O3_21 
ROOT
HETATM    1  C11 UNL     1      52.659  27.234  37.143  1.00  0.00    -0.015 C 
HETATM    2  C12 UNL     1      52.640  27.427  35.714  1.00  0.00     0.002 C 
HETATM    3  C13 UNL     1      53.614  26.667  34.885  1.00  0.00     0.176 C 
HETATM    4  O1  UNL     1      54.673  26.252  35.316  1.00  0.00    -0.291 OA
HETATM    5  C14 UNL     1      53.241  26.430  33.484  1.00  0.00     0.175 C 
HETATM    6 CL1  UNL     1      54.774  26.387  32.545  1.00  0.00    -0.115 Cl
HETATM    7  C15 UNL     1      52.247  27.342  32.885  1.00  0.00     0.073 C 
HETATM    8  C16 UNL     1      52.950  28.024  31.694  1.00  0.00     0.028 C 
HETATM    9  C19 UNL     1      51.614  28.364  33.706  1.00  0.00     0.026 C 
HETATM   10  C20 UNL     1      50.189  28.176  34.105  1.00  0.00     0.015 C 
HETATM   11  C21 UNL     1      49.945  29.365  35.010  1.00  0.00     0.080 C 
HETATM   12  C22 UNL     1      51.268  29.519  35.689  1.00  0.00     0.140 C 
HETATM   13  O4  UNL     1      51.386  30.261  36.653  1.00  0.00    -0.297 OA
HETATM   14  C23 UNL     1      52.306  28.683  35.033  1.00  0.00     0.052 C 
HETATM   15  C24 UNL     1      53.461  29.576  34.633  1.00  0.00     0.029 C 
ENDROOT
BRANCH   1  16
HETATM   16  C10 UNL     1      53.789  27.423  38.036  1.00  0.00     0.028 C 
BRANCH  16  17
HETATM   17  C9  UNL     1      54.401  28.774  38.036  1.00  0.00     0.004 C 
BRANCH  17  18
HETATM   18  C8  UNL     1      54.693  29.257  39.468  1.00  0.00     0.001 C 
BRANCH  18  19
HETATM   19  C7  UNL     1      53.611  30.272  39.779  1.00  0.00     0.004 C 
BRANCH  19  20
HETATM   20  C6  UNL     1      52.571  29.723  40.700  1.00  0.00     0.027 C 
BRANCH  20  21
HETATM   21  C5  UNL     1      51.299  29.587  39.942  1.00  0.00    -0.027 C 
HETATM   22  C4  UNL     1      50.386  30.561  40.005  1.00  0.00    -0.004 C 
BRANCH  22  23
HETATM   23  C3  UNL     1      49.149  30.411  39.258  1.00  0.00    -0.005 C 
HETATM   24  C2  UNL     1      48.745  31.386  38.479  1.00  0.00    -0.031 C 
HETATM   25  C1  UNL     1      49.539  32.625  38.359  1.00  0.00     0.036 C 
ENDBRANCH  22  23
ENDBRANCH  20  21
ENDBRANCH  19  20
ENDBRANCH  18  19
ENDBRANCH  17  18
ENDBRANCH  16  17
ENDBRANCH   1  16
BRANCH   7  26
HETATM   26  C17 UNL     1      51.175  26.504  32.239  1.00  0.00     0.269 C 
HETATM   27  O2  UNL     1      50.741  25.445  32.723  1.00  0.00    -0.264 OA
BRANCH  26  28
HETATM   28  O3  UNL     1      50.594  26.894  31.017  1.00  0.00    -0.326 OA
HETATM   29  C18 UNL     1      49.518  26.169  30.456  1.00  0.00     0.213 C 
ENDBRANCH  26  28
ENDBRANCH   7  26
TORSDOF 9
ENDMDL
MODEL 2
REMARK VINA RESULT: -6.575703641      2.134      3.744
REMARK  9 active torsions:
REMARK  status: ('A' for Active; 'I' for Inactive)
REMARK    1  A    between atoms: C3_3  and  C4_4 
REMARK    2  A    between atoms: C5_5  and  C6_6 
REMARK    3  A    between atoms: C6_6  and  C7_7 
REMARK    4  A    between atoms: C7_7  and  C8_8 
REMARK    5  A    between atoms: C8_8  and  C9_9 
REMARK    6  A    between atoms: C9_9  and  C10_10 
REMARK    7  A    between atoms: C10_10  and  C11_11 
REMARK    8  A    between atoms: C15_17  and  C17_19 
REMARK    9  A    between atoms: C17_19  and  O3_21 
ROOT
HETATM    1  C11 UNL     1      51.904  27.692  36.913  1.00  0.00    -0.015 C 
HETATM    2  C12 UNL     1      53.009  27.829  35.998  1.00  0.00     0.002 C 
HETATM    3  C13 UNL     1      54.300  28.350  36.521  1.00  0.00     0.176 C 
HETATM    4  O1  UNL     1      54.382  29.058  37.506  1.00  0.00    -0.291 OA
HETATM    5  C14 UNL     1      55.511  27.969  35.781  1.00  0.00     0.175 C 
HETATM    6 CL1  UNL     1      56.674  29.328  35.963  1.00  0.00    -0.115 Cl
HETATM    7  C15 UNL     1      55.344  27.564  34.371  1.00  0.00     0.073 C 
HETATM    8  C16 UNL     1      56.175  28.558  33.536  1.00  0.00     0.028 C 
HETATM    9  C19 UNL     1      54.008  27.469  33.799  1.00  0.00     0.026 C 
HETATM   10  C20 UNL     1      53.439  26.115  33.541  1.00  0.00     0.015 C 
HETATM   11  C21 UNL     1      52.039  26.437  33.059  1.00  0.00     0.080 C 
HETATM   12  C22 UNL     1      51.695  27.640  33.876  1.00  0.00     0.140 C 
HETATM   13  O4  UNL     1      50.548  28.061  33.906  1.00  0.00    -0.297 OA
HETATM   14  C23 UNL     1      52.893  28.172  34.575  1.00  0.00     0.052 C 
HETATM   15  C24 UNL     1      53.059  29.631  34.205  1.00  0.00     0.029 C 
ENDROOT
BRANCH   1  16
HETATM   16  C10 UNL     1      51.317  28.735  37.739  1.00  0.00     0.028 C 
BRANCH  16  17
HETATM   17  C9  UNL     1      51.452  28.557  39.205  1.00  0.00     0.004 C 
BRANCH  17  18
HETATM   18  C8  UNL     1      51.672  29.906  39.915  1.00  0.00     0.001 C 
BRANCH  18  19
HETATM   19  C7  UNL     1      50.361  30.653  39.776  1.00  0.00     0.004 C 
BRANCH  19  20
HETATM   20  C6  UNL     1      50.566  32.108  39.507  1.00  0.00     0.027 C 
BRANCH  20  21
HETATM   21  C5  UNL     1      49.613  32.529  38.445  1.00  0.00    -0.027 C 
HETATM   22  C4  UNL     1      48.843  31.613  37.851  1.00  0.00    -0.004 C 
BRANCH  22  23
HETATM   23  C3  UNL     1      47.918  32.042  36.815  1.00  0.00    -0.005 C 
HETATM   24  C2  UNL     1      48.177  31.755  35.562  1.00  0.00    -0.031 C 
HETATM   25  C1  UNL     1      49.395  31.003  35.204  1.00  0.00     0.036 C 
ENDBRANCH  22  23
ENDBRANCH  20  21
ENDBRANCH  19  20
ENDBRANCH  18  19
ENDBRANCH  17  18
ENDBRANCH  16  17
ENDBRANCH   1  16
BRANCH   7  26
HETATM   26  C17 UNL     1      56.052  26.250  34.176  1.00  0.00     0.269 C 
HETATM   27  O2  UNL     1      56.159  25.385  35.062  1.00  0.00    -0.264 OA
BRANCH  26  28
HETATM   28  O3  UNL     1      56.644  25.927  32.940  1.00  0.00    -0.326 OA
HETATM   29  C18 UNL     1      56.653  24.596  32.460  1.00  0.00     0.213 C 
ENDBRANCH  26  28
ENDBRANCH   7  26
TORSDOF 9
ENDMDL
MODEL 3
REMARK VINA RESULT: -6.317472857      2.277      4.957
REMARK  9 active torsions:
REMARK  status: ('A' for Active; 'I' for Inactive)
REMARK    1  A    between atoms: C3_3  and  C4_4 
REMARK    2  A    between atoms: C5_5  and  C6_6 
REMARK    3  A    between atoms: C6_6  and  C7_7 
REMARK    4  A    between atoms: C7_7  and  C8_8 
REMARK    5  A    between atoms: C8_8  and  C9_9 
REMARK    6  A    between atoms: C9_9  and  C10_10 
REMARK    7  A    between atoms: C10_10  and  C11_11 
REMARK    8  A    between atoms: C15_17  and  C17_19 
REMARK    9  A    between atoms: C17_19  and  O3_21 
ROOT
HETATM    1  C11 UNL     1      51.097  28.455  34.847  1.00  0.00    -0.015 C 
HETATM    2  C12 UNL     1      52.503  28.285  35.120  1.00  0.00     0.002 C 
HETATM    3  C13 UNL     1      52.985  28.505  36.509  1.00  0.00     0.176 C 
HETATM    4  O1  UNL     1      52.406  29.213  37.310  1.00  0.00    -0.291 OA
HETATM    5  C14 UNL     1      54.224  27.814  36.892  1.00  0.00     0.175 C 
HETATM    6 CL1  UNL     1      55.045  28.864  38.100  1.00  0.00    -0.115 Cl
HETATM    7  C15 UNL     1      55.133  27.402  35.804  1.00  0.00     0.073 C 
HETATM    8  C16 UNL     1      56.467  28.133  36.056  1.00  0.00     0.028 C 
HETATM    9  C19 UNL     1      54.739  27.604  34.417  1.00  0.00     0.026 C 
HETATM   10  C20 UNL     1      54.341  26.415  33.609  1.00  0.00     0.015 C 
HETATM   11  C21 UNL     1      53.917  27.041  32.297  1.00  0.00     0.080 C 
HETATM   12  C22 UNL     1      53.298  28.325  32.747  1.00  0.00     0.140 C 
HETATM   13  O4  UNL     1      52.652  29.008  31.966  1.00  0.00    -0.297 OA
HETATM   14  C23 UNL     1      53.590  28.585  34.181  1.00  0.00     0.052 C 
HETATM   15  C24 UNL     1      54.244  29.945  34.300  1.00  0.00     0.029 C 
ENDROOT
BRANCH   1  16
HETATM   16  C10 UNL     1      50.295  29.641  35.094  1.00  0.00     0.028 C 
BRANCH  16  17
HETATM   17  C9  UNL     1      48.947  29.657  34.475  1.00  0.00     0.004 C 
BRANCH  17  18
HETATM   18  C8  UNL     1      48.380  31.086  34.405  1.00  0.00     0.001 C 
BRANCH  18  19
HETATM   19  C7  UNL     1      48.928  31.798  35.626  1.00  0.00     0.004 C 
BRANCH  19  20
HETATM   20  C6  UNL     1      47.843  32.301  36.520  1.00  0.00     0.027 C 
BRANCH  20  21
HETATM   21  C5  UNL     1      48.087  31.782  37.892  1.00  0.00    -0.027 C 
HETATM   22  C4  UNL     1      49.077  30.908  38.101  1.00  0.00    -0.004 C 
BRANCH  22  23
HETATM   23  C3  UNL     1      49.300  30.411  39.447  1.00  0.00    -0.005 C 
HETATM   24  C2  UNL     1      50.327  30.852  40.134  1.00  0.00    -0.031 C 
HETATM   25  C1  UNL     1      51.249  31.844  39.546  1.00  0.00     0.036 C 
ENDBRANCH  22  23
ENDBRANCH  20  21
ENDBRANCH  19  20
ENDBRANCH  18  19
ENDBRANCH  17  18
ENDBRANCH  16  17
ENDBRANCH   1  16
BRANCH   7  26
HETATM   26  C17 UNL     1      55.474  25.950  36.007  1.00  0.00     0.269 C 
HETATM   27  O2  UNL     1      56.509  25.416  35.570  1.00  0.00    -0.264 OA
BRANCH  26  28
HETATM   28  O3  UNL     1      54.611  25.099  36.725  1.00  0.00    -0.326 OA
HETATM   29  C18 UNL     1      55.100  24.263  37.755  1.00  0.00     0.213 C 
ENDBRANCH  26  28
ENDBRANCH   7  26
TORSDOF 9
ENDMDL
MODEL 4
REMARK VINA RESULT: -6.316069512      2.435      4.301
REMARK  9 active torsions:
REMARK  status: ('A' for Active; 'I' for Inactive)
REMARK    1  A    between atoms: C3_3  and  C4_4 
REMARK    2  A    between atoms: C5_5  and  C6_6 
REMARK    3  A    between atoms: C6_6  and  C7_7 
REMARK    4  A    between atoms: C7_7  and  C8_8 
REMARK    5  A    between atoms: C8_8  and  C9_9 
REMARK    6  A    between atoms: C9_9  and  C10_10 
REMARK    7  A    between atoms: C10_10  and  C11_11 
REMARK    8  A    between atoms: C15_17  and  C17_19 
REMARK    9  A    between atoms: C17_19  and  O3_21 
ROOT
HETATM    1  C11 UNL     1      51.954  27.648  36.940  1.00  0.00    -0.015 C 
HETATM    2  C12 UNL     1      52.914  27.731  35.867  1.00  0.00     0.002 C 
HETATM    3  C13 UNL     1      54.339  27.980  36.212  1.00  0.00     0.176 C 
HETATM    4  O1  UNL     1      54.689  28.536  37.235  1.00  0.00    -0.291 OA
HETATM    5  C14 UNL     1      55.341  27.517  35.241  1.00  0.00     0.175 C 
HETATM    6 CL1  UNL     1      56.731  28.651  35.357  1.00  0.00    -0.115 Cl
HETATM    7  C15 UNL     1      54.894  27.325  33.847  1.00  0.00     0.073 C 
HETATM    8  C16 UNL     1      55.745  28.280  32.986  1.00  0.00     0.028 C 
HETATM    9  C19 UNL     1      53.491  27.506  33.506  1.00  0.00     0.026 C 
HETATM   10  C20 UNL     1      52.667  26.297  33.213  1.00  0.00     0.015 C 
HETATM   11  C21 UNL     1      51.286  26.885  33.012  1.00  0.00     0.080 C 
HETATM   12  C22 UNL     1      51.279  28.013  33.993  1.00  0.00     0.140 C 
HETATM   13  O4  UNL     1      50.238  28.595  34.260  1.00  0.00    -0.297 OA
HETATM   14  C23 UNL     1      52.643  28.265  34.527  1.00  0.00     0.052 C 
HETATM   15  C24 UNL     1      52.995  29.717  34.283  1.00  0.00     0.029 C 
ENDROOT
BRANCH   1  16
HETATM   16  C10 UNL     1      51.686  28.653  37.954  1.00  0.00     0.028 C 
BRANCH  16  17
HETATM   17  C9  UNL     1      50.917  29.840  37.507  1.00  0.00     0.004 C 
BRANCH  17  18
HETATM   18  C8  UNL     1      49.905  30.287  38.578  1.00  0.00     0.001 C 
BRANCH  18  19
HETATM   19  C7  UNL     1      49.033  31.325  37.900  1.00  0.00     0.004 C 
BRANCH  19  20
HETATM   20  C6  UNL     1      49.365  31.482  36.452  1.00  0.00     0.027 C 
BRANCH  20  21
HETATM   21  C5  UNL     1      48.096  31.668  35.698  1.00  0.00    -0.027 C 
HETATM   22  C4  UNL     1      48.035  31.309  34.412  1.00  0.00    -0.004 C 
BRANCH  22  23
HETATM   23  C3  UNL     1      46.788  31.498  33.691  1.00  0.00    -0.005 C 
HETATM   24  C2  UNL     1      46.181  30.458  33.171  1.00  0.00    -0.031 C 
HETATM   25  C1  UNL     1      46.757  29.107  33.315  1.00  0.00     0.036 C 
ENDBRANCH  22  23
ENDBRANCH  20  21
ENDBRANCH  19  20
ENDBRANCH  18  19
ENDBRANCH  17  18
ENDBRANCH  16  17
ENDBRANCH   1  16
BRANCH   7  26
HETATM   26  C17 UNL     1      55.331  25.954  33.403  1.00  0.00     0.269 C 
HETATM   27  O2  UNL     1      55.670  25.682  32.239  1.00  0.00    -0.264 OA
BRANCH  26  28
HETATM   28  O3  UNL     1      55.378  24.882  34.314  1.00  0.00    -0.326 OA
HETATM   29  C18 UNL     1      56.319  23.837  34.164  1.00  0.00     0.213 C 
ENDBRANCH  26  28
ENDBRANCH   7  26
TORSDOF 9
ENDMDL
MODEL 5
REMARK VINA RESULT: -6.195336787      3.497      7.820
REMARK  9 active torsions:
REMARK  status: ('A' for Active; 'I' for Inactive)
REMARK    1  A    between atoms: C3_3  and  C4_4 
REMARK    2  A    between atoms: C5_5  and  C6_6 
REMARK    3  A    between atoms: C6_6  and  C7_7 
REMARK    4  A    between atoms: C7_7  and  C8_8 
REMARK    5  A    between atoms: C8_8  and  C9_9 
REMARK    6  A    between atoms: C9_9  and  C10_10 
REMARK    7  A    between atoms: C10_10  and  C11_11 
REMARK    8  A    between atoms: C15_17  and  C17_19 
REMARK    9  A    between atoms: C17_19  and  O3_21 
ROOT
HETATM    1  C11 UNL     1      51.907  26.213  32.880  1.00  0.00    -0.015 C 
HETATM    2  C12 UNL     1      52.879  26.805  33.765  1.00  0.00     0.002 C 
HETATM    3  C13 UNL     1      52.413  27.330  35.076  1.00  0.00     0.176 C 
HETATM    4  O1  UNL     1      51.270  27.693  35.280  1.00  0.00    -0.291 OA
HETATM    5  C14 UNL     1      53.413  27.399  36.150  1.00  0.00     0.175 C 
HETATM    6 CL1  UNL     1      52.959  28.796  37.187  1.00  0.00    -0.115 Cl
HETATM    7  C15 UNL     1      54.833  27.440  35.751  1.00  0.00     0.073 C 
HETATM    8  C16 UNL     1      55.398  28.765  36.301  1.00  0.00     0.028 C 
HETATM    9  C19 UNL     1      55.194  27.321  34.345  1.00  0.00     0.026 C 
HETATM   10  C20 UNL     1      55.807  26.047  33.872  1.00  0.00     0.015 C 
HETATM   11  C21 UNL     1      55.932  26.280  32.381  1.00  0.00     0.080 C 
HETATM   12  C22 UNL     1      54.713  27.092  32.087  1.00  0.00     0.140 C 
HETATM   13  O4  UNL     1      54.368  27.296  30.932  1.00  0.00    -0.297 OA
HETATM   14  C23 UNL     1      54.065  27.558  33.340  1.00  0.00     0.052 C 
HETATM   15  C24 UNL     1      53.939  29.065  33.286  1.00  0.00     0.029 C 
ENDROOT
BRANCH   1  16
HETATM   16  C10 UNL     1      50.698  26.835  32.366  1.00  0.00     0.028 C 
BRANCH  16  17
HETATM   17  C9  UNL     1      49.692  25.916  31.780  1.00  0.00     0.004 C 
BRANCH  17  18
HETATM   18  C8  UNL     1      49.559  26.129  30.261  1.00  0.00     0.001 C 
BRANCH  18  19
HETATM   19  C7  UNL     1      48.344  25.323  29.846  1.00  0.00     0.004 C 
BRANCH  19  20
HETATM   20  C6  UNL     1      47.658  24.694  31.014  1.00  0.00     0.027 C 
BRANCH  20  21
HETATM   21  C5  UNL     1      46.228  25.104  30.994  1.00  0.00    -0.027 C 
HETATM   22  C4  UNL     1      45.852  26.148  30.250  1.00  0.00    -0.004 C 
BRANCH  22  23
HETATM   23  C3  UNL     1      44.451  26.534  30.243  1.00  0.00    -0.005 C 
HETATM   24  C2  UNL     1      43.796  26.561  29.106  1.00  0.00    -0.031 C 
HETATM   25  C1  UNL     1      44.475  26.204  27.845  1.00  0.00     0.036 C 
ENDBRANCH  22  23
ENDBRANCH  20  21
ENDBRANCH  19  20
ENDBRANCH  18  19
ENDBRANCH  17  18
ENDBRANCH  16  17
ENDBRANCH   1  16
BRANCH   7  26
HETATM   26  C17 UNL     1      55.569  26.384  36.533  1.00  0.00     0.269 C 
HETATM   27  O2  UNL     1      56.725  26.525  36.965  1.00  0.00    -0.264 OA
BRANCH  26  28
HETATM   28  O3  UNL     1      54.961  25.146  36.821  1.00  0.00    -0.326 OA
HETATM   29  C18 UNL     1      55.001  24.600  38.124  1.00  0.00     0.213 C 
ENDBRANCH  26  28
ENDBRANCH   7  26
TORSDOF 9
ENDMDL
