MODEL 1
REMARK VINA RESULT: -8.373532904      0.000      0.000
REMARK  10 active torsions:
REMARK  status: ('A' for Active; 'I' for Inactive)
REMARK    1  A    between atoms: C1_2  and  C2_3 
REMARK    2  A    between atoms: C2_3  and  C3_4 
REMARK    3  A    between atoms: C3_4  and  C4_5 
REMARK    4  A    between atoms: C4_5  and  C5_6 
REMARK    5  A    between atoms: C5_6  and  C6_7 
REMARK    6  A    between atoms: C9_10  and  N1_11 
REMARK    7  A    between atoms: C12_14  and  C13_15 
REMARK    8  A    between atoms: C13_15  and  N2_16 
REMARK    9  A    between atoms: N2_16  and  C14_19 
REMARK   10  A    between atoms: C14_19  and  C15_20 
ROOT
HETATM    1  C6  UNL     1      45.904  27.604  32.024  1.00  0.00     0.008 A 
HETATM    2  C7  UNL     1      46.042  28.947  32.179  1.00  0.00     0.037 A 
HETATM    3  C8  UNL     1      47.053  29.396  32.938  1.00  0.00     0.043 A 
HETATM    4  C9  UNL     1      47.418  30.725  33.223  1.00  0.00     0.117 A 
HETATM    5  N3  UNL     1      48.506  30.929  34.013  1.00  0.00    -0.338 N 
ATOM      6  H3  UNL     1      48.758  31.896  34.213  1.00  0.00     0.168 HD
HETATM    7  C23 UNL     1      49.264  29.992  34.544  1.00  0.00     0.182 A 
HETATM    8  N4  UNL     1      48.941  28.722  34.284  1.00  0.00    -0.346 N 
ATOM      9  H4  UNL     1      49.502  27.965  34.676  1.00  0.00     0.167 HD
HETATM   10  C24 UNL     1      47.871  28.433  33.502  1.00  0.00     0.089 A 
HETATM   11  S1  UNL     1      47.188  26.980  32.941  1.00  0.00    -0.072 SA
ENDROOT
BRANCH   4  12
HETATM   12  N1  UNL     1      46.835  31.886  32.718  1.00  0.00    -0.366 N 
HETATM   13  C10 UNL     1      45.492  32.313  33.062  1.00  0.00     0.125 C 
HETATM   14  C11 UNL     1      45.315  33.721  32.517  1.00  0.00     0.026 C 
HETATM   15  C12 UNL     1      45.348  33.747  30.975  1.00  0.00     0.014 C 
HETATM   16  C21 UNL     1      46.552  32.905  30.566  1.00  0.00     0.026 C 
HETATM   17  C22 UNL     1      47.508  32.728  31.756  1.00  0.00     0.125 C 
BRANCH  15  18
HETATM   18  C13 UNL     1      45.611  35.163  30.640  1.00  0.00     0.237 C 
BRANCH  18  19
HETATM   19  N2  UNL     1      46.893  35.571  30.181  1.00  0.00    -0.071 N 
ATOM     20  H22 UNL     1      47.555  35.698  30.946  1.00  0.00     0.277 HD
ATOM     21  H21 UNL     1      47.382  34.824  29.688  1.00  0.00     0.277 HD
BRANCH  19  22
HETATM   22  C14 UNL     1      46.755  36.792  29.353  1.00  0.00     0.270 C 
BRANCH  22  23
HETATM   23  C15 UNL     1      47.839  37.729  29.738  1.00  0.00    -0.033 A 
HETATM   24  C16 UNL     1      48.644  38.218  28.672  1.00  0.00     0.009 A 
HETATM   25  C17 UNL     1      49.633  39.125  28.881  1.00  0.00     0.001 A 
HETATM   26  C18 UNL     1      49.837  39.565  30.173  1.00  0.00     0.000 A 
HETATM   27  C19 UNL     1      49.077  39.103  31.211  1.00  0.00     0.001 A 
HETATM   28  C20 UNL     1      48.060  38.168  30.987  1.00  0.00     0.009 A 
ENDBRANCH  22  23
ENDBRANCH  19  22
ENDBRANCH  18  19
ENDBRANCH  15  18
ENDBRANCH   4  12
BRANCH   1  29
HETATM   29  C5  UNL     1      44.863  26.825  31.300  1.00  0.00     0.018 C 
BRANCH  29  30
HETATM   30  C4  UNL     1      45.012  26.547  30.038  1.00  0.00    -0.003 C 
BRANCH  30  31
HETATM   31  C3  UNL     1      44.068  26.254  28.999  1.00  0.00    -0.026 C 
BRANCH  31  32
HETATM   32  C2  UNL     1      43.270  27.281  28.322  1.00  0.00     0.042 C 
BRANCH  32  33
HETATM   33  C1  UNL     1      43.754  27.834  27.031  1.00  0.00     0.118 C 
HETATM   34 CL1  UNL     1      44.248  29.560  27.150  1.00  0.00    -0.130 Cl
ENDBRANCH  32  33
ENDBRANCH  31  32
ENDBRANCH  30  31
ENDBRANCH  29  30
ENDBRANCH   1  29
TORSDOF 10
ENDMDL
MODEL 2
REMARK VINA RESULT: -8.218281960      7.708     10.235
REMARK  10 active torsions:
REMARK  status: ('A' for Active; 'I' for Inactive)
REMARK    1  A    between atoms: C1_2  and  C2_3 
REMARK    2  A    between atoms: C2_3  and  C3_4 
REMARK    3  A    between atoms: C3_4  and  C4_5 
REMARK    4  A    between atoms: C4_5  and  C5_6 
REMARK    5  A    between atoms: C5_6  and  C6_7 
REMARK    6  A    between atoms: C9_10  and  N1_11 
REMARK    7  A    between atoms: C12_14  and  C13_15 
REMARK    8  A    between atoms: C13_15  and  N2_16 
REMARK    9  A    between atoms: N2_16  and  C14_19 
REMARK   10  A    between atoms: C14_19  and  C15_20 
ROOT
HETATM    1  C6  UNL     1      52.056  28.228  35.325  1.00  0.00     0.008 A 
HETATM    2  C7  UNL     1      51.566  27.742  34.155  1.00  0.00     0.037 A 
HETATM    3  C8  UNL     1      52.394  27.674  33.101  1.00  0.00     0.043 A 
HETATM    4  C9  UNL     1      52.135  27.187  31.807  1.00  0.00     0.117 A 
HETATM    5  N3  UNL     1      53.153  27.206  30.906  1.00  0.00    -0.338 N 
ATOM      6  H3  UNL     1      52.951  26.852  29.971  1.00  0.00     0.168 HD
HETATM    7  C23 UNL     1      54.377  27.639  31.129  1.00  0.00     0.182 A 
HETATM    8  N4  UNL     1      54.650  28.101  32.352  1.00  0.00    -0.346 N 
ATOM      9  H4  UNL     1      55.586  28.447  32.567  1.00  0.00     0.167 HD
HETATM   10  C24 UNL     1      53.689  28.115  33.310  1.00  0.00     0.089 A 
HETATM   11  S1  UNL     1      53.670  28.587  34.944  1.00  0.00    -0.072 SA
ENDROOT
BRANCH   4  12
HETATM   12  N1  UNL     1      50.957  26.601  31.347  1.00  0.00    -0.366 N 
HETATM   13  C10 UNL     1      50.431  26.820  30.013  1.00  0.00     0.125 C 
HETATM   14  C11 UNL     1      49.290  25.837  29.812  1.00  0.00     0.026 C 
HETATM   15  C12 UNL     1      48.103  26.134  30.752  1.00  0.00     0.014 C 
HETATM   16  C21 UNL     1      48.707  26.346  32.136  1.00  0.00     0.026 C 
HETATM   17  C22 UNL     1      50.130  25.770  32.191  1.00  0.00     0.125 C 
BRANCH  15  18
HETATM   18  C13 UNL     1      47.317  24.882  30.754  1.00  0.00     0.237 C 
BRANCH  18  19
HETATM   19  N2  UNL     1      45.903  24.915  30.607  1.00  0.00    -0.071 N 
ATOM     20  H22 UNL     1      45.567  24.210  29.952  1.00  0.00     0.277 HD
ATOM     21  H21 UNL     1      45.421  24.581  31.441  1.00  0.00     0.277 HD
BRANCH  19  22
HETATM   22  C14 UNL     1      45.479  26.281  30.224  1.00  0.00     0.270 C 
BRANCH  22  23
HETATM   23  C15 UNL     1      44.804  26.197  28.905  1.00  0.00    -0.033 A 
HETATM   24  C16 UNL     1      45.660  26.158  27.770  1.00  0.00     0.009 A 
HETATM   25  C17 UNL     1      45.173  26.024  26.510  1.00  0.00     0.001 A 
HETATM   26  C18 UNL     1      43.804  25.925  26.359  1.00  0.00     0.000 A 
HETATM   27  C19 UNL     1      42.965  25.965  27.436  1.00  0.00     0.001 A 
HETATM   28  C20 UNL     1      43.476  26.104  28.732  1.00  0.00     0.009 A 
ENDBRANCH  22  23
ENDBRANCH  19  22
ENDBRANCH  18  19
ENDBRANCH  15  18
ENDBRANCH   4  12
BRANCH   1  29
HETATM   29  C5  UNL     1      51.371  28.471  36.624  1.00  0.00     0.018 C 
BRANCH  29  30
HETATM   30  C4  UNL     1      51.841  27.953  37.720  1.00  0.00    -0.003 C 
BRANCH  30  31
HETATM   31  C3  UNL     1      51.606  28.250  39.103  1.00  0.00    -0.026 C 
BRANCH  31  32
HETATM   32  C2  UNL     1      51.964  29.528  39.726  1.00  0.00     0.042 C 
BRANCH  32  33
HETATM   33  C1  UNL     1      51.049  30.687  39.567  1.00  0.00     0.118 C 
HETATM   34 CL1  UNL     1      49.321  30.202  39.446  1.00  0.00    -0.130 Cl
ENDBRANCH  32  33
ENDBRANCH  31  32
ENDBRANCH  30  31
ENDBRANCH  29  30
ENDBRANCH   1  29
TORSDOF 10
ENDMDL
MODEL 3
REMARK VINA RESULT: -8.214856021      7.201      9.950
REMARK  10 active torsions:
REMARK  status: ('A' for Active; 'I' for Inactive)
REMARK    1  A    between atoms: C1_2  and  C2_3 
REMARK    2  A    between atoms: C2_3  and  C3_4 
REMARK    3  A    between atoms: C3_4  and  C4_5 
REMARK    4  A    between atoms: C4_5  and  C5_6 
REMARK    5  A    between atoms: C5_6  and  C6_7 
REMARK    6  A    between atoms: C9_10  and  N1_11 
REMARK    7  A    between atoms: C12_14  and  C13_15 
REMARK    8  A    between atoms: C13_15  and  N2_16 
REMARK    9  A    between atoms: N2_16  and  C14_19 
REMARK   10  A    between atoms: C14_19  and  C15_20 
ROOT
HETATM    1  C6  UNL     1      52.076  28.175  35.342  1.00  0.00     0.008 A 
HETATM    2  C7  UNL     1      51.573  27.706  34.170  1.00  0.00     0.037 A 
HETATM    3  C8  UNL     1      52.387  27.666  33.104  1.00  0.00     0.043 A 
HETATM    4  C9  UNL     1      52.113  27.202  31.804  1.00  0.00     0.117 A 
HETATM    5  N3  UNL     1      53.118  27.246  30.889  1.00  0.00    -0.338 N 
ATOM      6  H3  UNL     1      52.906  26.908  29.951  1.00  0.00     0.168 HD
HETATM    7  C23 UNL     1      54.341  27.687  31.103  1.00  0.00     0.182 A 
HETATM    8  N4  UNL     1      54.627  28.129  32.331  1.00  0.00    -0.346 N 
ATOM      9  H4  UNL     1      55.563  28.479  32.539  1.00  0.00     0.167 HD
HETATM   10  C24 UNL     1      53.680  28.115  33.302  1.00  0.00     0.089 A 
HETATM   11  S1  UNL     1      53.681  28.556  34.945  1.00  0.00    -0.072 SA
ENDROOT
BRANCH   4  12
HETATM   12  N1  UNL     1      50.934  26.613  31.350  1.00  0.00    -0.366 N 
HETATM   13  C10 UNL     1      50.413  26.813  30.011  1.00  0.00     0.125 C 
HETATM   14  C11 UNL     1      49.268  25.831  29.823  1.00  0.00     0.026 C 
HETATM   15  C12 UNL     1      48.080  26.149  30.754  1.00  0.00     0.014 C 
HETATM   16  C21 UNL     1      48.680  26.382  32.136  1.00  0.00     0.026 C 
HETATM   17  C22 UNL     1      50.101  25.800  32.206  1.00  0.00     0.125 C 
BRANCH  15  18
HETATM   18  C13 UNL     1      47.288  24.901  30.773  1.00  0.00     0.237 C 
BRANCH  18  19
HETATM   19  N2  UNL     1      45.874  24.940  30.638  1.00  0.00    -0.071 N 
ATOM     20  H22 UNL     1      45.528  24.224  29.999  1.00  0.00     0.277 HD
ATOM     21  H21 UNL     1      45.397  24.624  31.483  1.00  0.00     0.277 HD
BRANCH  19  22
HETATM   22  C14 UNL     1      45.453  26.301  30.234  1.00  0.00     0.270 C 
BRANCH  22  23
HETATM   23  C15 UNL     1      44.794  26.200  28.908  1.00  0.00    -0.033 A 
HETATM   24  C16 UNL     1      45.664  26.159  27.783  1.00  0.00     0.009 A 
HETATM   25  C17 UNL     1      45.193  26.011  26.519  1.00  0.00     0.001 A 
HETATM   26  C18 UNL     1      43.827  25.900  26.353  1.00  0.00     0.000 A 
HETATM   27  C19 UNL     1      42.975  25.941  27.420  1.00  0.00     0.001 A 
HETATM   28  C20 UNL     1      43.469  26.094  28.720  1.00  0.00     0.009 A 
ENDBRANCH  22  23
ENDBRANCH  19  22
ENDBRANCH  18  19
ENDBRANCH  15  18
ENDBRANCH   4  12
BRANCH   1  29
HETATM   29  C5  UNL     1      51.407  28.387  36.655  1.00  0.00     0.018 C 
BRANCH  29  30
HETATM   30  C4  UNL     1      50.925  29.555  36.964  1.00  0.00    -0.003 C 
BRANCH  30  31
HETATM   31  C3  UNL     1      50.675  30.190  38.224  1.00  0.00    -0.026 C 
BRANCH  31  32
HETATM   32  C2  UNL     1      49.392  30.810  38.575  1.00  0.00     0.042 C 
BRANCH  32  33
HETATM   33  C1  UNL     1      49.210  32.265  38.342  1.00  0.00     0.118 C 
HETATM   34 CL1  UNL     1      47.502  32.708  37.987  1.00  0.00    -0.130 Cl
ENDBRANCH  32  33
ENDBRANCH  31  32
ENDBRANCH  30  31
ENDBRANCH  29  30
ENDBRANCH   1  29
TORSDOF 10
ENDMDL
MODEL 4
REMARK VINA RESULT: -8.198603720      4.826      6.676
REMARK  10 active torsions:
REMARK  status: ('A' for Active; 'I' for Inactive)
REMARK    1  A    between atoms: C1_2  and  C2_3 
REMARK    2  A    between atoms: C2_3  and  C3_4 
REMARK    3  A    between atoms: C3_4  and  C4_5 
REMARK    4  A    between atoms: C4_5  and  C5_6 
REMARK    5  A    between atoms: C5_6  and  C6_7 
REMARK    6  A    between atoms: C9_10  and  N1_11 
REMARK    7  A    between atoms: C12_14  and  C13_15 
REMARK    8  A    between atoms: C13_15  and  N2_16 
REMARK    9  A    between atoms: N2_16  and  C14_19 
REMARK   10  A    between atoms: C14_19  and  C15_20 
ROOT
HETATM    1  C6  UNL     1      45.198  26.244  30.262  1.00  0.00     0.008 A 
HETATM    2  C7  UNL     1      45.748  27.030  31.224  1.00  0.00     0.037 A 
HETATM    3  C8  UNL     1      47.026  26.810  31.567  1.00  0.00     0.043 A 
HETATM    4  C9  UNL     1      47.818  27.500  32.504  1.00  0.00     0.117 A 
HETATM    5  N3  UNL     1      49.107  27.097  32.664  1.00  0.00    -0.338 N 
ATOM      6  H3  UNL     1      49.670  27.604  33.347  1.00  0.00     0.168 HD
HETATM    7  C23 UNL     1      49.696  26.112  32.019  1.00  0.00     0.182 A 
HETATM    8  N4  UNL     1      48.967  25.444  31.120  1.00  0.00    -0.346 N 
ATOM      9  H4  UNL     1      49.385  24.674  30.598  1.00  0.00     0.167 HD
HETATM   10  C24 UNL     1      47.673  25.786  30.899  1.00  0.00     0.089 A 
HETATM   11  S1  UNL     1      46.472  25.204  29.844  1.00  0.00    -0.072 SA
ENDROOT
BRANCH   4  12
HETATM   12  N1  UNL     1      47.460  28.623  33.247  1.00  0.00    -0.366 N 
HETATM   13  C10 UNL     1      46.207  29.330  33.060  1.00  0.00     0.125 C 
HETATM   14  C11 UNL     1      46.079  30.328  34.199  1.00  0.00     0.026 C 
HETATM   15  C12 UNL     1      47.160  31.425  34.125  1.00  0.00     0.014 C 
HETATM   16  C21 UNL     1      48.478  30.701  33.876  1.00  0.00     0.026 C 
HETATM   17  C22 UNL     1      48.342  29.211  34.227  1.00  0.00     0.125 C 
BRANCH  15  18
HETATM   18  C13 UNL     1      47.178  32.010  35.483  1.00  0.00     0.237 C 
BRANCH  18  19
HETATM   19  N2  UNL     1      48.409  32.232  36.159  1.00  0.00    -0.071 N 
ATOM     20  H22 UNL     1      49.179  31.710  35.739  1.00  0.00     0.277 HD
ATOM     21  H21 UNL     1      48.770  33.173  36.004  1.00  0.00     0.277 HD
BRANCH  19  22
HETATM   22  C14 UNL     1      48.244  31.925  37.598  1.00  0.00     0.270 C 
BRANCH  22  23
HETATM   23  C15 UNL     1      49.405  31.106  38.026  1.00  0.00    -0.033 A 
HETATM   24  C16 UNL     1      49.717  31.147  39.413  1.00  0.00     0.009 A 
HETATM   25  C17 UNL     1      50.719  30.400  39.944  1.00  0.00     0.001 A 
HETATM   26  C18 UNL     1      51.436  29.588  39.088  1.00  0.00     0.000 A 
HETATM   27  C19 UNL     1      51.155  29.538  37.752  1.00  0.00     0.001 A 
HETATM   28  C20 UNL     1      50.121  30.312  37.213  1.00  0.00     0.009 A 
ENDBRANCH  22  23
ENDBRANCH  19  22
ENDBRANCH  18  19
ENDBRANCH  15  18
ENDBRANCH   4  12
BRANCH   1  29
HETATM   29  C5  UNL     1      43.811  26.217  29.724  1.00  0.00     0.018 C 
BRANCH  29  30
HETATM   30  C4  UNL     1      43.371  27.199  28.994  1.00  0.00    -0.003 C 
BRANCH  30  31
HETATM   31  C3  UNL     1      43.429  27.452  27.584  1.00  0.00    -0.026 C 
BRANCH  31  32
HETATM   32  C2  UNL     1      44.680  27.471  26.818  1.00  0.00     0.042 C 
BRANCH  32  33
HETATM   33  C1  UNL     1      45.170  26.207  26.209  1.00  0.00     0.118 C 
HETATM   34 CL1  UNL     1      43.894  25.335  25.288  1.00  0.00    -0.130 Cl
ENDBRANCH  32  33
ENDBRANCH  31  32
ENDBRANCH  30  31
ENDBRANCH  29  30
ENDBRANCH   1  29
TORSDOF 10
ENDMDL
MODEL 5
REMARK VINA RESULT: -8.168789525      7.877     10.406
REMARK  10 active torsions:
REMARK  status: ('A' for Active; 'I' for Inactive)
REMARK    1  A    between atoms: C1_2  and  C2_3 
REMARK    2  A    between atoms: C2_3  and  C3_4 
REMARK    3  A    between atoms: C3_4  and  C4_5 
REMARK    4  A    between atoms: C4_5  and  C5_6 
REMARK    5  A    between atoms: C5_6  and  C6_7 
REMARK    6  A    between atoms: C9_10  and  N1_11 
REMARK    7  A    between atoms: C12_14  and  C13_15 
REMARK    8  A    between atoms: C13_15  and  N2_16 
REMARK    9  A    between atoms: N2_16  and  C14_19 
REMARK   10  A    between atoms: C14_19  and  C15_20 
ROOT
HETATM    1  C6  UNL     1      52.195  28.067  35.335  1.00  0.00     0.008 A 
HETATM    2  C7  UNL     1      51.662  27.628  34.165  1.00  0.00     0.037 A 
HETATM    3  C8  UNL     1      52.445  27.619  33.076  1.00  0.00     0.043 A 
HETATM    4  C9  UNL     1      52.138  27.189  31.772  1.00  0.00     0.117 A 
HETATM    5  N3  UNL     1      53.117  27.263  30.832  1.00  0.00    -0.338 N 
ATOM      6  H3  UNL     1      52.880  26.949  29.891  1.00  0.00     0.168 HD
HETATM    7  C23 UNL     1      54.343  27.703  31.023  1.00  0.00     0.182 A 
HETATM    8  N4  UNL     1      54.662  28.113  32.254  1.00  0.00    -0.346 N 
ATOM      9  H4  UNL     1      55.602  28.461  32.446  1.00  0.00     0.167 HD
HETATM   10  C24 UNL     1      53.742  28.069  33.250  1.00  0.00     0.089 A 
HETATM   11  S1  UNL     1      53.787  28.466  34.904  1.00  0.00    -0.072 SA
ENDROOT
BRANCH   4  12
HETATM   12  N1  UNL     1      50.949  26.607  31.335  1.00  0.00    -0.366 N 
HETATM   13  C10 UNL     1      50.405  26.819  30.007  1.00  0.00     0.125 C 
HETATM   14  C11 UNL     1      49.253  25.842  29.832  1.00  0.00     0.026 C 
HETATM   15  C12 UNL     1      48.084  26.157  30.787  1.00  0.00     0.014 C 
HETATM   16  C21 UNL     1      48.709  26.377  32.160  1.00  0.00     0.026 C 
HETATM   17  C22 UNL     1      50.129  25.791  32.200  1.00  0.00     0.125 C 
BRANCH  15  18
HETATM   18  C13 UNL     1      47.288  24.911  30.812  1.00  0.00     0.237 C 
BRANCH  18  19
HETATM   19  N2  UNL     1      45.876  24.951  30.645  1.00  0.00    -0.071 N 
ATOM     20  H22 UNL     1      45.537  24.197  30.048  1.00  0.00     0.277 HD
ATOM     21  H21 UNL     1      45.380  24.695  31.499  1.00  0.00     0.277 HD
BRANCH  19  22
HETATM   22  C14 UNL     1      45.476  26.285  30.143  1.00  0.00     0.270 C 
BRANCH  22  23
HETATM   23  C15 UNL     1      44.949  26.115  28.766  1.00  0.00    -0.033 A 
HETATM   24  C16 UNL     1      43.533  26.083  28.642  1.00  0.00     0.009 A 
HETATM   25  C17 UNL     1      42.922  25.989  27.433  1.00  0.00     0.001 A 
HETATM   26  C18 UNL     1      43.725  25.924  26.313  1.00  0.00     0.000 A 
HETATM   27  C19 UNL     1      45.088  25.949  26.411  1.00  0.00     0.001 A 
HETATM   28  C20 UNL     1      45.709  26.045  27.661  1.00  0.00     0.009 A 
ENDBRANCH  22  23
ENDBRANCH  19  22
ENDBRANCH  18  19
ENDBRANCH  15  18
ENDBRANCH   4  12
BRANCH   1  29
HETATM   29  C5  UNL     1      51.562  28.241  36.671  1.00  0.00     0.018 C 
BRANCH  29  30
HETATM   30  C4  UNL     1      51.284  29.431  37.114  1.00  0.00    -0.003 C 
BRANCH  30  31
HETATM   31  C3  UNL     1      50.566  29.884  38.270  1.00  0.00    -0.026 C 
BRANCH  31  32
HETATM   32  C2  UNL     1      51.202  30.135  39.568  1.00  0.00     0.042 C 
BRANCH  32  33
HETATM   33  C1  UNL     1      52.248  29.196  40.049  1.00  0.00     0.118 C 
HETATM   34 CL1  UNL     1      53.651  30.037  40.800  1.00  0.00    -0.130 Cl
ENDBRANCH  32  33
ENDBRANCH  31  32
ENDBRANCH  30  31
ENDBRANCH  29  30
ENDBRANCH   1  29
TORSDOF 10
ENDMDL
