MODEL 1
REMARK VINA RESULT: -8.263092423      0.000      0.000
REMARK  9 active torsions:
REMARK  status: ('A' for Active; 'I' for Inactive)
REMARK    1  A    between atoms: C3_4  and  S1_5 
REMARK    2  A    between atoms: S1_5  and  C4_6 
REMARK    3  A    between atoms: C4_6  and  C5_7 
REMARK    4  A    between atoms: C5_7  and  C6_8 
REMARK    5  A    between atoms: C6_8  and  N1_9 
REMARK    6  A    between atoms: N1_9  and  C7_11 
REMARK    7  A    between atoms: C7_11  and  C8_12 
REMARK    8  A    between atoms: C8_12  and  N2_13 
REMARK    9  A    between atoms: N4_27  and  C20_28 
ROOT
HETATM    1  F1  UNL     1      48.630  32.767  39.475  1.00  0.00    -0.206 F 
HETATM    2  C1  UNL     1      49.167  31.947  38.540  1.00  0.00     0.119 A 
HETATM    3  C2  UNL     1      48.824  32.030  37.204  1.00  0.00     0.061 A 
HETATM    4  C3  UNL     1      49.381  31.178  36.275  1.00  0.00     0.017 A 
HETATM    5  C14 UNL     1      50.296  30.240  36.756  1.00  0.00     0.020 A 
HETATM    6  C15 UNL     1      51.018  29.272  36.097  1.00  0.00     0.007 A 
HETATM    7  C16 UNL     1      51.104  28.880  34.786  1.00  0.00     0.031 A 
HETATM    8  C17 UNL     1      51.951  27.850  34.453  1.00  0.00     0.088 A 
HETATM    9  N3  UNL     1      52.691  27.238  35.420  1.00  0.00    -0.373 N 
ATOM     10  H3  UNL     1      53.316  26.476  35.160  1.00  0.00     0.164 HD
HETATM   11  C18 UNL     1      52.619  27.613  36.705  1.00  0.00     0.118 A 
HETATM   12  C19 UNL     1      51.784  28.632  37.074  1.00  0.00     0.062 A 
HETATM   13  N4  UNL     1      51.555  29.169  38.279  1.00  0.00    -0.339 N 
HETATM   14  C23 UNL     1      50.651  30.148  38.090  1.00  0.00     0.050 A 
HETATM   15  C24 UNL     1      50.075  31.015  38.988  1.00  0.00     0.072 A 
ENDROOT
BRANCH   4  16
HETATM   16  S1  UNL     1      48.954  31.357  34.570  1.00  0.00    -0.129 SA
BRANCH  16  17
HETATM   17  C4  UNL     1      47.239  31.049  34.164  1.00  0.00     0.085 C 
BRANCH  17  18
HETATM   18  C5  UNL     1      47.192  29.582  33.695  1.00  0.00     0.055 C 
BRANCH  18  19
HETATM   19  C6  UNL     1      46.061  29.273  32.829  1.00  0.00     0.061 C 
BRANCH  19  20
HETATM   20  N1  UNL     1      45.390  28.059  32.801  1.00  0.00    -0.381 N 
ATOM     21  H1  UNL     1      44.665  27.887  33.498  1.00  0.00     0.164 HD
BRANCH  20  22
HETATM   22  C7  UNL     1      45.662  27.060  31.860  1.00  0.00     0.090 C 
BRANCH  22  23
HETATM   23  C8  UNL     1      46.329  25.831  32.319  1.00  0.00     0.316 C 
BRANCH  23  24
HETATM   24  N2  UNL     1      47.622  25.577  31.701  1.00  0.00     0.093 N 
HETATM   25  C9  UNL     1      47.609  25.993  30.301  1.00  0.00     0.273 C 
HETATM   26  C10 UNL     1      48.937  25.623  29.692  1.00  0.00     0.030 C 
HETATM   27  C11 UNL     1      50.028  26.399  30.388  1.00  0.00     0.003 C 
HETATM   28  C12 UNL     1      50.022  25.998  31.850  1.00  0.00     0.030 C 
HETATM   29  C13 UNL     1      48.649  26.311  32.421  1.00  0.00     0.273 C 
ENDBRANCH  23  24
ENDBRANCH  22  23
ENDBRANCH  20  22
ENDBRANCH  19  20
ENDBRANCH  18  19
ENDBRANCH  17  18
ENDBRANCH  16  17
ENDBRANCH   4  16
BRANCH  13  30
HETATM   30  C20 UNL     1      52.188  28.773  39.546  1.00  0.00     0.090 A 
HETATM   31  C21 UNL     1      52.642  29.811  40.513  1.00  0.00     0.028 A 
HETATM   32  C22 UNL     1      53.687  29.211  39.671  1.00  0.00     0.028 A 
ENDBRANCH  13  30
TORSDOF 9
ENDMDL
MODEL 2
REMARK VINA RESULT: -8.243341863      1.071      1.879
REMARK  9 active torsions:
REMARK  status: ('A' for Active; 'I' for Inactive)
REMARK    1  A    between atoms: C3_4  and  S1_5 
REMARK    2  A    between atoms: S1_5  and  C4_6 
REMARK    3  A    between atoms: C4_6  and  C5_7 
REMARK    4  A    between atoms: C5_7  and  C6_8 
REMARK    5  A    between atoms: C6_8  and  N1_9 
REMARK    6  A    between atoms: N1_9  and  C7_11 
REMARK    7  A    between atoms: C7_11  and  C8_12 
REMARK    8  A    between atoms: C8_12  and  N2_13 
REMARK    9  A    between atoms: N4_27  and  C20_28 
ROOT
HETATM    1  F1  UNL     1      48.779  32.921  39.524  1.00  0.00    -0.206 F 
HETATM    2  C1  UNL     1      49.292  32.061  38.612  1.00  0.00     0.119 A 
HETATM    3  C2  UNL     1      48.889  32.064  37.290  1.00  0.00     0.061 A 
HETATM    4  C3  UNL     1      49.422  31.172  36.385  1.00  0.00     0.017 A 
HETATM    5  C14 UNL     1      50.377  30.280  36.874  1.00  0.00     0.020 A 
HETATM    6  C15 UNL     1      51.089  29.290  36.236  1.00  0.00     0.007 A 
HETATM    7  C16 UNL     1      51.126  28.827  34.946  1.00  0.00     0.031 A 
HETATM    8  C17 UNL     1      51.978  27.797  34.632  1.00  0.00     0.088 A 
HETATM    9  N3  UNL     1      52.773  27.253  35.597  1.00  0.00    -0.373 N 
ATOM     10  H3  UNL     1      53.402  26.489  35.350  1.00  0.00     0.164 HD
HETATM   11  C18 UNL     1      52.749  27.696  36.861  1.00  0.00     0.118 A 
HETATM   12  C19 UNL     1      51.911  28.718  37.212  1.00  0.00     0.062 A 
HETATM   13  N4  UNL     1      51.724  29.317  38.394  1.00  0.00    -0.339 N 
HETATM   14  C23 UNL     1      50.791  30.268  38.193  1.00  0.00     0.050 A 
HETATM   15  C24 UNL     1      50.238  31.172  39.068  1.00  0.00     0.072 A 
ENDROOT
BRANCH   4  16
HETATM   16  S1  UNL     1      48.917  31.249  34.693  1.00  0.00    -0.129 SA
BRANCH  16  17
HETATM   17  C4  UNL     1      47.153  31.162  34.406  1.00  0.00     0.085 C 
BRANCH  17  18
HETATM   18  C5  UNL     1      46.986  30.213  33.204  1.00  0.00     0.055 C 
BRANCH  18  19
HETATM   19  C6  UNL     1      47.139  28.803  33.536  1.00  0.00     0.061 C 
BRANCH  19  20
HETATM   20  N1  UNL     1      48.214  28.009  33.161  1.00  0.00    -0.381 N 
ATOM     21  H1  UNL     1      49.152  28.300  33.433  1.00  0.00     0.164 HD
BRANCH  20  22
HETATM   22  C7  UNL     1      48.068  26.827  32.426  1.00  0.00     0.090 C 
BRANCH  22  23
HETATM   23  C8  UNL     1      46.779  26.121  32.486  1.00  0.00     0.316 C 
BRANCH  23  24
HETATM   24  N2  UNL     1      46.136  25.923  31.196  1.00  0.00     0.093 N 
HETATM   25  C9  UNL     1      45.019  26.851  31.034  1.00  0.00     0.273 C 
HETATM   26  C10 UNL     1      44.337  26.538  29.727  1.00  0.00     0.030 C 
HETATM   27  C11 UNL     1      45.307  26.791  28.598  1.00  0.00     0.003 C 
HETATM   28  C12 UNL     1      46.486  25.856  28.780  1.00  0.00     0.030 C 
HETATM   29  C13 UNL     1      47.108  26.139  30.138  1.00  0.00     0.273 C 
ENDBRANCH  23  24
ENDBRANCH  22  23
ENDBRANCH  20  22
ENDBRANCH  19  20
ENDBRANCH  18  19
ENDBRANCH  17  18
ENDBRANCH  16  17
ENDBRANCH   4  16
BRANCH  13  30
HETATM   30  C20 UNL     1      52.419  29.003  39.651  1.00  0.00     0.090 A 
HETATM   31  C21 UNL     1      52.879  30.102  40.547  1.00  0.00     0.028 A 
HETATM   32  C22 UNL     1      53.908  29.491  39.692  1.00  0.00     0.028 A 
ENDBRANCH  13  30
TORSDOF 9
ENDMDL
MODEL 3
REMARK VINA RESULT: -8.194472665      1.756      2.577
REMARK  9 active torsions:
REMARK  status: ('A' for Active; 'I' for Inactive)
REMARK    1  A    between atoms: C3_4  and  S1_5 
REMARK    2  A    between atoms: S1_5  and  C4_6 
REMARK    3  A    between atoms: C4_6  and  C5_7 
REMARK    4  A    between atoms: C5_7  and  C6_8 
REMARK    5  A    between atoms: C6_8  and  N1_9 
REMARK    6  A    between atoms: N1_9  and  C7_11 
REMARK    7  A    between atoms: C7_11  and  C8_12 
REMARK    8  A    between atoms: C8_12  and  N2_13 
REMARK    9  A    between atoms: N4_27  and  C20_28 
ROOT
HETATM    1  F1  UNL     1      48.384  33.012  39.150  1.00  0.00    -0.206 F 
HETATM    2  C1  UNL     1      48.958  32.140  38.286  1.00  0.00     0.119 A 
HETATM    3  C2  UNL     1      48.634  32.114  36.943  1.00  0.00     0.061 A 
HETATM    4  C3  UNL     1      49.228  31.211  36.088  1.00  0.00     0.017 A 
HETATM    5  C14 UNL     1      50.160  30.337  36.650  1.00  0.00     0.020 A 
HETATM    6  C15 UNL     1      50.918  29.343  36.075  1.00  0.00     0.007 A 
HETATM    7  C16 UNL     1      51.035  28.857  34.798  1.00  0.00     0.031 A 
HETATM    8  C17 UNL     1      51.914  27.829  34.555  1.00  0.00     0.088 A 
HETATM    9  N3  UNL     1      52.654  27.311  35.576  1.00  0.00    -0.373 N 
ATOM     10  H3  UNL     1      53.304  26.549  35.381  1.00  0.00     0.164 HD
HETATM   11  C18 UNL     1      52.552  27.778  36.828  1.00  0.00     0.118 A 
HETATM   12  C19 UNL     1      51.685  28.798  37.108  1.00  0.00     0.062 A 
HETATM   13  N4  UNL     1      51.423  29.417  38.266  1.00  0.00    -0.339 N 
HETATM   14  C23 UNL     1      50.495  30.355  37.992  1.00  0.00     0.050 A 
HETATM   15  C24 UNL     1      49.883  31.269  38.814  1.00  0.00     0.072 A 
ENDROOT
BRANCH   4  16
HETATM   16  S1  UNL     1      48.824  31.251  34.368  1.00  0.00    -0.129 SA
BRANCH  16  17
HETATM   17  C4  UNL     1      47.272  30.482  33.919  1.00  0.00     0.085 C 
BRANCH  17  18
HETATM   18  C5  UNL     1      47.621  29.011  33.625  1.00  0.00     0.055 C 
BRANCH  18  19
HETATM   19  C6  UNL     1      46.613  28.308  32.842  1.00  0.00     0.061 C 
BRANCH  19  20
HETATM   20  N1  UNL     1      46.439  26.931  32.822  1.00  0.00    -0.381 N 
ATOM     21  H1  UNL     1      46.841  26.378  33.578  1.00  0.00     0.164 HD
BRANCH  20  22
HETATM   22  C7  UNL     1      45.737  26.267  31.810  1.00  0.00     0.090 C 
BRANCH  22  23
HETATM   23  C8  UNL     1      46.311  26.252  30.455  1.00  0.00     0.316 C 
BRANCH  23  24
HETATM   24  N2  UNL     1      45.333  26.349  29.382  1.00  0.00     0.093 N 
HETATM   25  C9  UNL     1      44.039  26.777  29.907  1.00  0.00     0.273 C 
HETATM   26  C10 UNL     1      43.048  26.770  28.772  1.00  0.00     0.030 C 
HETATM   27  C11 UNL     1      43.480  27.785  27.741  1.00  0.00     0.003 C 
HETATM   28  C12 UNL     1      44.839  27.366  27.218  1.00  0.00     0.030 C 
HETATM   29  C13 UNL     1      45.801  27.306  28.393  1.00  0.00     0.273 C 
ENDBRANCH  23  24
ENDBRANCH  22  23
ENDBRANCH  20  22
ENDBRANCH  19  20
ENDBRANCH  18  19
ENDBRANCH  17  18
ENDBRANCH  16  17
ENDBRANCH   4  16
BRANCH  13  30
HETATM   30  C20 UNL     1      52.045  29.134  39.568  1.00  0.00     0.090 A 
HETATM   31  C21 UNL     1      52.659  30.236  40.360  1.00  0.00     0.028 A 
HETATM   32  C22 UNL     1      53.591  29.388  39.601  1.00  0.00     0.028 A 
ENDBRANCH  13  30
TORSDOF 9
ENDMDL
MODEL 4
REMARK VINA RESULT: -8.139336425      4.800      6.509
REMARK  9 active torsions:
REMARK  status: ('A' for Active; 'I' for Inactive)
REMARK    1  A    between atoms: C3_4  and  S1_5 
REMARK    2  A    between atoms: S1_5  and  C4_6 
REMARK    3  A    between atoms: C4_6  and  C5_7 
REMARK    4  A    between atoms: C5_7  and  C6_8 
REMARK    5  A    between atoms: C6_8  and  N1_9 
REMARK    6  A    between atoms: N1_9  and  C7_11 
REMARK    7  A    between atoms: C7_11  and  C8_12 
REMARK    8  A    between atoms: C8_12  and  N2_13 
REMARK    9  A    between atoms: N4_27  and  C20_28 
ROOT
HETATM    1  F1  UNL     1      47.686  33.278  38.798  1.00  0.00    -0.206 F 
HETATM    2  C1  UNL     1      48.316  32.411  37.970  1.00  0.00     0.119 A 
HETATM    3  C2  UNL     1      48.046  32.358  36.615  1.00  0.00     0.061 A 
HETATM    4  C3  UNL     1      48.695  31.459  35.797  1.00  0.00     0.017 A 
HETATM    5  C14 UNL     1      49.627  30.618  36.407  1.00  0.00     0.020 A 
HETATM    6  C15 UNL     1      50.431  29.636  35.877  1.00  0.00     0.007 A 
HETATM    7  C16 UNL     1      50.611  29.136  34.613  1.00  0.00     0.031 A 
HETATM    8  C17 UNL     1      51.524  28.128  34.418  1.00  0.00     0.088 A 
HETATM    9  N3  UNL     1      52.237  27.643  35.475  1.00  0.00    -0.373 N 
ATOM     10  H3  UNL     1      52.912  26.896  35.317  1.00  0.00     0.164 HD
HETATM   11  C18 UNL     1      52.073  28.124  36.715  1.00  0.00     0.118 A 
HETATM   12  C19 UNL     1      51.170  29.125  36.947  1.00  0.00     0.062 A 
HETATM   13  N4  UNL     1      50.847  29.752  38.085  1.00  0.00    -0.339 N 
HETATM   14  C23 UNL     1      49.908  30.661  37.761  1.00  0.00     0.050 A 
HETATM   15  C24 UNL     1      49.241  31.571  38.546  1.00  0.00     0.072 A 
ENDROOT
BRANCH   4  16
HETATM   16  S1  UNL     1      48.358  31.466  34.063  1.00  0.00    -0.129 SA
BRANCH  16  17
HETATM   17  C4  UNL     1      46.799  32.199  33.580  1.00  0.00     0.085 C 
BRANCH  17  18
HETATM   18  C5  UNL     1      46.937  32.483  32.072  1.00  0.00     0.055 C 
BRANCH  18  19
HETATM   19  C6  UNL     1      46.171  33.635  31.613  1.00  0.00     0.061 C 
BRANCH  19  20
HETATM   20  N1  UNL     1      46.608  34.557  30.673  1.00  0.00    -0.381 N 
ATOM     21  H1  UNL     1      47.136  34.219  29.869  1.00  0.00     0.164 HD
BRANCH  20  22
HETATM   22  C7  UNL     1      46.356  35.930  30.778  1.00  0.00     0.090 C 
BRANCH  22  23
HETATM   23  C8  UNL     1      46.780  36.805  29.674  1.00  0.00     0.316 C 
BRANCH  23  24
HETATM   24  N2  UNL     1      48.066  37.456  29.877  1.00  0.00     0.093 N 
HETATM   25  C9  UNL     1      48.427  38.250  28.705  1.00  0.00     0.273 C 
HETATM   26  C10 UNL     1      49.802  38.822  28.934  1.00  0.00     0.030 C 
HETATM   27  C11 UNL     1      49.751  39.755  30.119  1.00  0.00     0.003 C 
HETATM   28  C12 UNL     1      49.342  38.944  31.331  1.00  0.00     0.030 C 
HETATM   29  C13 UNL     1      47.988  38.316  31.045  1.00  0.00     0.273 C 
ENDBRANCH  23  24
ENDBRANCH  22  23
ENDBRANCH  20  22
ENDBRANCH  19  20
ENDBRANCH  18  19
ENDBRANCH  17  18
ENDBRANCH  16  17
ENDBRANCH   4  16
BRANCH  13  30
HETATM   30  C20 UNL     1      51.425  29.502  39.414  1.00  0.00     0.090 A 
HETATM   31  C21 UNL     1      52.111  30.600  40.151  1.00  0.00     0.028 A 
HETATM   32  C22 UNL     1      52.985  29.639  39.463  1.00  0.00     0.028 A 
ENDBRANCH  13  30
TORSDOF 9
ENDMDL
MODEL 5
REMARK VINA RESULT: -7.927376452      4.691      6.556
REMARK  9 active torsions:
REMARK  status: ('A' for Active; 'I' for Inactive)
REMARK    1  A    between atoms: C3_4  and  S1_5 
REMARK    2  A    between atoms: S1_5  and  C4_6 
REMARK    3  A    between atoms: C4_6  and  C5_7 
REMARK    4  A    between atoms: C5_7  and  C6_8 
REMARK    5  A    between atoms: C6_8  and  N1_9 
REMARK    6  A    between atoms: N1_9  and  C7_11 
REMARK    7  A    between atoms: C7_11  and  C8_12 
REMARK    8  A    between atoms: C8_12  and  N2_13 
REMARK    9  A    between atoms: N4_27  and  C20_28 
ROOT
HETATM    1  F1  UNL     1      47.581  33.259  38.729  1.00  0.00    -0.206 F 
HETATM    2  C1  UNL     1      48.232  32.402  37.906  1.00  0.00     0.119 A 
HETATM    3  C2  UNL     1      47.997  32.367  36.545  1.00  0.00     0.061 A 
HETATM    4  C3  UNL     1      48.667  31.478  35.732  1.00  0.00     0.017 A 
HETATM    5  C14 UNL     1      49.582  30.628  36.356  1.00  0.00     0.020 A 
HETATM    6  C15 UNL     1      50.399  29.652  35.834  1.00  0.00     0.007 A 
HETATM    7  C16 UNL     1      50.612  29.168  34.569  1.00  0.00     0.031 A 
HETATM    8  C17 UNL     1      51.529  28.162  34.385  1.00  0.00     0.088 A 
HETATM    9  N3  UNL     1      52.214  27.663  35.453  1.00  0.00    -0.373 N 
ATOM     10  H3  UNL     1      52.893  26.917  35.304  1.00  0.00     0.164 HD
HETATM   11  C18 UNL     1      52.018  28.128  36.695  1.00  0.00     0.118 A 
HETATM   12  C19 UNL     1      51.110  29.126  36.916  1.00  0.00     0.062 A 
HETATM   13  N4  UNL     1      50.758  29.739  38.053  1.00  0.00    -0.339 N 
HETATM   14  C23 UNL     1      49.828  30.654  37.717  1.00  0.00     0.050 A 
HETATM   15  C24 UNL     1      49.141  31.553  38.496  1.00  0.00     0.072 A 
ENDROOT
BRANCH   4  16
HETATM   16  S1  UNL     1      48.376  31.508  33.990  1.00  0.00    -0.129 SA
BRANCH  16  17
HETATM   17  C4  UNL     1      46.824  32.236  33.477  1.00  0.00     0.085 C 
BRANCH  17  18
HETATM   18  C5  UNL     1      46.945  32.408  31.950  1.00  0.00     0.055 C 
BRANCH  18  19
HETATM   19  C6  UNL     1      46.450  33.687  31.458  1.00  0.00     0.061 C 
BRANCH  19  20
HETATM   20  N1  UNL     1      46.940  34.354  30.343  1.00  0.00    -0.381 N 
ATOM     21  H1  UNL     1      47.584  33.861  29.725  1.00  0.00     0.164 HD
BRANCH  20  22
HETATM   22  C7  UNL     1      46.591  35.672  30.030  1.00  0.00     0.090 C 
BRANCH  22  23
HETATM   23  C8  UNL     1      46.705  36.694  31.083  1.00  0.00     0.316 C 
BRANCH  23  24
HETATM   24  N2  UNL     1      47.450  37.883  30.696  1.00  0.00     0.093 N 
HETATM   25  C9  UNL     1      47.906  38.608  31.879  1.00  0.00     0.273 C 
HETATM   26  C10 UNL     1      48.587  39.871  31.420  1.00  0.00     0.030 C 
HETATM   27  C11 UNL     1      49.807  39.502  30.613  1.00  0.00     0.003 C 
HETATM   28  C12 UNL     1      49.344  38.718  29.401  1.00  0.00     0.030 C 
HETATM   29  C13 UNL     1      48.594  37.490  29.891  1.00  0.00     0.273 C 
ENDBRANCH  23  24
ENDBRANCH  22  23
ENDBRANCH  20  22
ENDBRANCH  19  20
ENDBRANCH  18  19
ENDBRANCH  17  18
ENDBRANCH  16  17
ENDBRANCH   4  16
BRANCH  13  30
HETATM   30  C20 UNL     1      51.300  29.472  39.393  1.00  0.00     0.090 A 
HETATM   31  C21 UNL     1      51.981  30.556  40.156  1.00  0.00     0.028 A 
HETATM   32  C22 UNL     1      52.860  29.588  39.482  1.00  0.00     0.028 A 
ENDBRANCH  13  30
TORSDOF 9
ENDMDL
