MODEL 1
REMARK VINA RESULT: -7.731091284      0.000      0.000
REMARK  10 active torsions:
REMARK  status: ('A' for Active; 'I' for Inactive)
REMARK    1  A    between atoms: C2_2  and  C3_3 
REMARK    2  A    between atoms: C3_3  and  C4_4 
REMARK    3  A    between atoms: C4_4  and  C5_5 
REMARK    4  A    between atoms: C5_5  and  C6_6 
REMARK    5  A    between atoms: C6_6  and  C7_7 
REMARK    6  A    between atoms: C7_7  and  C8_8 
REMARK    7  A    between atoms: C8_8  and  C9_9 
REMARK    8  A    between atoms: C12_14  and  O3_15 
REMARK    9  A    between atoms: C14_18  and  O4_19 
REMARK   10  A    between atoms: C16_21  and  C17_22 
ROOT
HETATM    1  C9  UNL     1      45.040  26.078  29.645  1.00  0.00     0.143 C 
HETATM    2  O1  UNL     1      45.736  25.473  28.587  1.00  0.00    -0.311 OA
HETATM    3  C10 UNL     1      47.083  25.603  28.185  1.00  0.00     0.297 C 
HETATM    4  O2  UNL     1      47.396  25.405  27.000  1.00  0.00    -0.259 OA
HETATM    5  C11 UNL     1      48.116  25.969  29.152  1.00  0.00     0.087 A 
HETATM    6  C12 UNL     1      49.291  26.337  28.493  1.00  0.00     0.085 A 
HETATM    7  C13 UNL     1      50.378  26.718  29.245  1.00  0.00     0.075 A 
HETATM    8  C14 UNL     1      50.294  26.731  30.602  1.00  0.00     0.082 A 
HETATM    9  C16 UNL     1      49.137  26.371  31.326  1.00  0.00     0.019 A 
HETATM   10  C18 UNL     1      48.069  25.995  30.550  1.00  0.00     0.043 A 
HETATM   11  C19 UNL     1      46.894  25.635  31.319  1.00  0.00     0.167 C 
HETATM   12  O5  UNL     1      47.218  25.106  32.440  1.00  0.00    -0.292 OA
HETATM   13  C20 UNL     1      45.479  25.783  31.010  1.00  0.00     0.086 C 
HETATM   14  C21 UNL     1      44.932  26.820  32.011  1.00  0.00     0.021 C 
ENDROOT
BRANCH   1  15
HETATM   15  C8  UNL     1      45.010  27.562  29.331  1.00  0.00     0.033 C 
BRANCH  15  16
HETATM   16  C7  UNL     1      44.909  27.891  27.874  1.00  0.00     0.002 C 
BRANCH  16  17
HETATM   17  C6  UNL     1      43.561  27.462  27.342  1.00  0.00     0.000 C 
BRANCH  17  18
HETATM   18  C5  UNL     1      43.680  26.571  26.150  1.00  0.00     0.000 C 
BRANCH  18  19
HETATM   19  C4  UNL     1      42.875  25.332  26.318  1.00  0.00     0.000 C 
BRANCH  19  20
HETATM   20  C3  UNL     1      42.211  25.257  27.660  1.00  0.00    -0.000 C 
BRANCH  20  21
HETATM   21  C2  UNL     1      41.073  24.231  27.509  1.00  0.00    -0.005 C 
HETATM   22  C1  UNL     1      40.535  24.372  26.114  1.00  0.00     0.005 C 
ENDBRANCH  20  21
ENDBRANCH  19  20
ENDBRANCH  18  19
ENDBRANCH  17  18
ENDBRANCH  16  17
ENDBRANCH  15  16
ENDBRANCH   1  15
BRANCH   6  23
HETATM   23  O3  UNL     1      49.346  26.314  27.107  1.00  0.00    -0.360 OA
ATOM     24  H3  UNL     1      50.177  26.432  26.662  1.00  0.00     0.217 HD
ENDBRANCH   6  23
BRANCH   9  25
HETATM   25  C17 UNL     1      49.049  26.400  32.762  1.00  0.00     0.071 C 
HETATM   26 BR1  UNL     1      48.624  28.090  33.600  1.00  0.00    -0.063 Br
ENDBRANCH   9  25
BRANCH   8  27
HETATM   27  O4  UNL     1      51.377  27.113  31.394  1.00  0.00    -0.355 OA
HETATM   28  C15 UNL     1      52.551  27.682  30.851  1.00  0.00     0.210 C 
ENDBRANCH   8  27
TORSDOF 10
ENDMDL
MODEL 2
REMARK VINA RESULT: -7.409942725      2.148      3.222
REMARK  10 active torsions:
REMARK  status: ('A' for Active; 'I' for Inactive)
REMARK    1  A    between atoms: C2_2  and  C3_3 
REMARK    2  A    between atoms: C3_3  and  C4_4 
REMARK    3  A    between atoms: C4_4  and  C5_5 
REMARK    4  A    between atoms: C5_5  and  C6_6 
REMARK    5  A    between atoms: C6_6  and  C7_7 
REMARK    6  A    between atoms: C7_7  and  C8_8 
REMARK    7  A    between atoms: C8_8  and  C9_9 
REMARK    8  A    between atoms: C12_14  and  O3_15 
REMARK    9  A    between atoms: C14_18  and  O4_19 
REMARK   10  A    between atoms: C16_21  and  C17_22 
ROOT
HETATM    1  C9  UNL     1      45.789  25.776  29.528  1.00  0.00     0.143 C 
HETATM    2  O1  UNL     1      46.582  24.854  30.230  1.00  0.00    -0.311 OA
HETATM    3  C10 UNL     1      47.638  25.064  31.143  1.00  0.00     0.297 C 
HETATM    4  O2  UNL     1      48.517  24.199  31.280  1.00  0.00    -0.259 OA
HETATM    5  C11 UNL     1      47.706  26.293  31.931  1.00  0.00     0.087 A 
HETATM    6  C12 UNL     1      48.964  26.423  32.521  1.00  0.00     0.085 A 
HETATM    7  C13 UNL     1      49.217  27.527  33.302  1.00  0.00     0.075 A 
HETATM    8  C14 UNL     1      48.249  28.464  33.486  1.00  0.00     0.082 A 
HETATM    9  C16 UNL     1      46.959  28.390  32.918  1.00  0.00     0.019 A 
HETATM   10  C18 UNL     1      46.735  27.279  32.144  1.00  0.00     0.043 A 
HETATM   11  C19 UNL     1      45.405  27.231  31.571  1.00  0.00     0.167 C 
HETATM   12  O5  UNL     1      44.546  27.777  32.348  1.00  0.00    -0.292 OA
HETATM   13  C20 UNL     1      44.939  26.679  30.307  1.00  0.00     0.086 C 
HETATM   14  C21 UNL     1      44.479  27.884  29.462  1.00  0.00     0.021 C 
ENDROOT
BRANCH   1  15
HETATM   15  C8  UNL     1      46.727  26.500  28.581  1.00  0.00     0.033 C 
BRANCH  15  16
HETATM   16  C7  UNL     1      46.843  25.883  27.223  1.00  0.00     0.002 C 
BRANCH  16  17
HETATM   17  C6  UNL     1      45.572  25.139  26.886  1.00  0.00     0.000 C 
BRANCH  17  18
HETATM   18  C5  UNL     1      44.726  25.878  25.903  1.00  0.00     0.000 C 
BRANCH  18  19
HETATM   19  C4  UNL     1      43.313  25.417  25.950  1.00  0.00     0.000 C 
BRANCH  19  20
HETATM   20  C3  UNL     1      42.669  25.677  27.279  1.00  0.00    -0.000 C 
BRANCH  20  21
HETATM   21  C2  UNL     1      41.573  24.606  27.430  1.00  0.00    -0.005 C 
HETATM   22  C1  UNL     1      40.848  24.529  26.118  1.00  0.00     0.005 C 
ENDBRANCH  20  21
ENDBRANCH  19  20
ENDBRANCH  18  19
ENDBRANCH  17  18
ENDBRANCH  16  17
ENDBRANCH  15  16
ENDBRANCH   1  15
BRANCH   6  23
HETATM   23  O3  UNL     1      49.932  25.451  32.315  1.00  0.00    -0.360 OA
ATOM     24  H3  UNL     1      50.434  25.443  31.508  1.00  0.00     0.217 HD
ENDBRANCH   6  23
BRANCH   9  25
HETATM   25  C17 UNL     1      45.943  29.392  33.105  1.00  0.00     0.071 C 
HETATM   26 BR1  UNL     1      46.307  31.173  32.446  1.00  0.00    -0.063 Br
ENDBRANCH   9  25
BRANCH   8  27
HETATM   27  O4  UNL     1      48.472  29.595  34.271  1.00  0.00    -0.355 OA
HETATM   28  C15 UNL     1      49.677  29.803  34.979  1.00  0.00     0.210 C 
ENDBRANCH   8  27
TORSDOF 10
ENDMDL
MODEL 3
REMARK VINA RESULT: -7.297679130      2.113      3.831
REMARK  10 active torsions:
REMARK  status: ('A' for Active; 'I' for Inactive)
REMARK    1  A    between atoms: C2_2  and  C3_3 
REMARK    2  A    between atoms: C3_3  and  C4_4 
REMARK    3  A    between atoms: C4_4  and  C5_5 
REMARK    4  A    between atoms: C5_5  and  C6_6 
REMARK    5  A    between atoms: C6_6  and  C7_7 
REMARK    6  A    between atoms: C7_7  and  C8_8 
REMARK    7  A    between atoms: C8_8  and  C9_9 
REMARK    8  A    between atoms: C12_14  and  O3_15 
REMARK    9  A    between atoms: C14_18  and  O4_19 
REMARK   10  A    between atoms: C16_21  and  C17_22 
ROOT
HETATM    1  C9  UNL     1      44.754  26.379  28.824  1.00  0.00     0.143 C 
HETATM    2  O1  UNL     1      45.529  25.817  27.796  1.00  0.00    -0.311 OA
HETATM    3  C10 UNL     1      46.919  25.880  27.560  1.00  0.00     0.297 C 
HETATM    4  O2  UNL     1      47.356  25.763  26.404  1.00  0.00    -0.259 OA
HETATM    5  C11 UNL     1      47.853  26.080  28.667  1.00  0.00     0.087 A 
HETATM    6  C12 UNL     1      49.118  26.413  28.181  1.00  0.00     0.085 A 
HETATM    7  C13 UNL     1      50.133  26.643  29.082  1.00  0.00     0.075 A 
HETATM    8  C14 UNL     1      49.891  26.544  30.416  1.00  0.00     0.082 A 
HETATM    9  C16 UNL     1      48.635  26.210  30.969  1.00  0.00     0.019 A 
HETATM   10  C18 UNL     1      47.643  25.986  30.048  1.00  0.00     0.043 A 
HETATM   11  C19 UNL     1      46.365  25.651  30.643  1.00  0.00     0.167 C 
HETATM   12  O5  UNL     1      46.520  25.002  31.737  1.00  0.00    -0.292 OA
HETATM   13  C20 UNL     1      45.010  25.932  30.195  1.00  0.00     0.086 C 
HETATM   14  C21 UNL     1      44.417  26.916  31.224  1.00  0.00     0.021 C 
ENDROOT
BRANCH   1  15
HETATM   15  C8  UNL     1      44.858  27.883  28.652  1.00  0.00     0.033 C 
BRANCH  15  16
HETATM   16  C7  UNL     1      44.143  28.426  27.455  1.00  0.00     0.002 C 
BRANCH  16  17
HETATM   17  C6  UNL     1      44.563  29.856  27.209  1.00  0.00     0.000 C 
BRANCH  17  18
HETATM   18  C5  UNL     1      45.400  30.400  28.321  1.00  0.00     0.000 C 
BRANCH  18  19
HETATM   19  C4  UNL     1      46.448  31.322  27.808  1.00  0.00     0.000 C 
BRANCH  19  20
HETATM   20  C3  UNL     1      46.559  32.574  28.624  1.00  0.00    -0.000 C 
BRANCH  20  21
HETATM   21  C2  UNL     1      45.946  32.238  29.995  1.00  0.00    -0.005 C 
HETATM   22  C1  UNL     1      46.663  33.073  31.016  1.00  0.00     0.005 C 
ENDBRANCH  20  21
ENDBRANCH  19  20
ENDBRANCH  18  19
ENDBRANCH  17  18
ENDBRANCH  16  17
ENDBRANCH  15  16
ENDBRANCH   1  15
BRANCH   6  23
HETATM   23  O3  UNL     1      49.335  26.508  26.814  1.00  0.00    -0.360 OA
ATOM     24  H3  UNL     1      48.709  26.134  26.206  1.00  0.00     0.217 HD
ENDBRANCH   6  23
BRANCH   9  25
HETATM   25  C17 UNL     1      48.382  26.120  32.383  1.00  0.00     0.071 C 
HETATM   26 BR1  UNL     1      47.915  27.748  33.316  1.00  0.00    -0.063 Br
ENDBRANCH   9  25
BRANCH   8  27
HETATM   27  O4  UNL     1      50.895  26.770  31.356  1.00  0.00    -0.355 OA
HETATM   28  C15 UNL     1      52.119  27.394  31.024  1.00  0.00     0.210 C 
ENDBRANCH   8  27
TORSDOF 10
ENDMDL
MODEL 4
REMARK VINA RESULT: -6.977881600      8.287     10.465
REMARK  10 active torsions:
REMARK  status: ('A' for Active; 'I' for Inactive)
REMARK    1  A    between atoms: C2_2  and  C3_3 
REMARK    2  A    between atoms: C3_3  and  C4_4 
REMARK    3  A    between atoms: C4_4  and  C5_5 
REMARK    4  A    between atoms: C5_5  and  C6_6 
REMARK    5  A    between atoms: C6_6  and  C7_7 
REMARK    6  A    between atoms: C7_7  and  C8_8 
REMARK    7  A    between atoms: C8_8  and  C9_9 
REMARK    8  A    between atoms: C12_14  and  O3_15 
REMARK    9  A    between atoms: C14_18  and  O4_19 
REMARK   10  A    between atoms: C16_21  and  C17_22 
ROOT
HETATM    1  C9  UNL     1      51.472  28.287  38.210  1.00  0.00     0.143 C 
HETATM    2  O1  UNL     1      51.040  27.924  36.925  1.00  0.00    -0.311 OA
HETATM    3  C10 UNL     1      51.539  28.286  35.655  1.00  0.00     0.297 C 
HETATM    4  O2  UNL     1      50.783  28.288  34.671  1.00  0.00    -0.259 OA
HETATM    5  C11 UNL     1      52.943  28.659  35.487  1.00  0.00     0.087 A 
HETATM    6  C12 UNL     1      53.140  29.264  34.245  1.00  0.00     0.085 A 
HETATM    7  C13 UNL     1      54.405  29.687  33.909  1.00  0.00     0.075 A 
HETATM    8  C14 UNL     1      55.433  29.512  34.781  1.00  0.00     0.082 A 
HETATM    9  C16 UNL     1      55.298  28.907  36.050  1.00  0.00     0.019 A 
HETATM   10  C18 UNL     1      54.026  28.495  36.358  1.00  0.00     0.043 A 
HETATM   11  C19 UNL     1      53.917  27.883  37.667  1.00  0.00     0.167 C 
HETATM   12  O5  UNL     1      54.992  27.261  37.979  1.00  0.00    -0.292 OA
HETATM   13  C20 UNL     1      52.816  27.878  38.620  1.00  0.00     0.086 C 
HETATM   14  C21 UNL     1      53.303  28.692  39.835  1.00  0.00     0.021 C 
ENDROOT
BRANCH   1  15
HETATM   15  C8  UNL     1      51.236  29.782  38.324  1.00  0.00     0.033 C 
BRANCH  15  16
HETATM   16  C7  UNL     1      50.061  30.167  39.166  1.00  0.00     0.002 C 
BRANCH  16  17
HETATM   17  C6  UNL     1      50.117  31.643  39.483  1.00  0.00     0.000 C 
BRANCH  17  18
HETATM   18  C5  UNL     1      49.528  32.478  38.394  1.00  0.00     0.000 C 
BRANCH  18  19
HETATM   19  C4  UNL     1      48.157  32.022  38.043  1.00  0.00     0.000 C 
BRANCH  19  20
HETATM   20  C3  UNL     1      47.885  32.100  36.571  1.00  0.00    -0.000 C 
BRANCH  20  21
HETATM   21  C2  UNL     1      49.164  31.594  35.880  1.00  0.00    -0.005 C 
HETATM   22  C1  UNL     1      48.829  31.382  34.433  1.00  0.00     0.005 C 
ENDBRANCH  20  21
ENDBRANCH  19  20
ENDBRANCH  18  19
ENDBRANCH  17  18
ENDBRANCH  16  17
ENDBRANCH  15  16
ENDBRANCH   1  15
BRANCH   6  23
HETATM   23  O3  UNL     1      52.071  29.429  33.375  1.00  0.00    -0.360 OA
ATOM     24  H3  UNL     1      51.882  28.766  32.722  1.00  0.00     0.217 HD
ENDBRANCH   6  23
BRANCH   9  25
HETATM   25  C17 UNL     1      56.388  28.737  36.975  1.00  0.00     0.071 C 
HETATM   26 BR1  UNL     1      56.973  30.290  37.968  1.00  0.00    -0.063 Br
ENDBRANCH   9  25
BRANCH   8  27
HETATM   27  O4  UNL     1      56.727  29.929  34.474  1.00  0.00    -0.355 OA
HETATM   28  C15 UNL     1      57.469  29.376  33.405  1.00  0.00     0.210 C 
ENDBRANCH   8  27
TORSDOF 10
ENDMDL
MODEL 5
REMARK VINA RESULT: -6.755471930      6.995      9.213
REMARK  10 active torsions:
REMARK  status: ('A' for Active; 'I' for Inactive)
REMARK    1  A    between atoms: C2_2  and  C3_3 
REMARK    2  A    between atoms: C3_3  and  C4_4 
REMARK    3  A    between atoms: C4_4  and  C5_5 
REMARK    4  A    between atoms: C5_5  and  C6_6 
REMARK    5  A    between atoms: C6_6  and  C7_7 
REMARK    6  A    between atoms: C7_7  and  C8_8 
REMARK    7  A    between atoms: C8_8  and  C9_9 
REMARK    8  A    between atoms: C12_14  and  O3_15 
REMARK    9  A    between atoms: C14_18  and  O4_19 
REMARK   10  A    between atoms: C16_21  and  C17_22 
ROOT
HETATM    1  C9  UNL     1      50.540  28.505  35.481  1.00  0.00     0.143 C 
HETATM    2  O1  UNL     1      50.218  27.739  34.350  1.00  0.00    -0.311 OA
HETATM    3  C10 UNL     1      50.959  27.485  33.176  1.00  0.00     0.297 C 
HETATM    4  O2  UNL     1      50.369  27.220  32.116  1.00  0.00    -0.259 OA
HETATM    5  C11 UNL     1      52.421  27.530  33.195  1.00  0.00     0.087 A 
HETATM    6  C12 UNL     1      52.923  27.556  31.893  1.00  0.00     0.085 A 
HETATM    7  C13 UNL     1      54.286  27.603  31.711  1.00  0.00     0.075 A 
HETATM    8  C14 UNL     1      55.114  27.623  32.790  1.00  0.00     0.082 A 
HETATM    9  C16 UNL     1      54.668  27.599  34.129  1.00  0.00     0.019 A 
HETATM   10  C18 UNL     1      53.304  27.552  34.279  1.00  0.00     0.043 A 
HETATM   11  C19 UNL     1      52.875  27.533  35.664  1.00  0.00     0.167 C 
HETATM   12  O5  UNL     1      53.723  26.919  36.403  1.00  0.00    -0.292 OA
HETATM   13  C20 UNL     1      51.682  28.081  36.292  1.00  0.00     0.086 C 
HETATM   14  C21 UNL     1      52.171  29.218  37.210  1.00  0.00     0.021 C 
ENDROOT
BRANCH   1  15
HETATM   15  C8  UNL     1      50.644  29.940  34.999  1.00  0.00     0.033 C 
BRANCH  15  16
HETATM   16  C7  UNL     1      49.332  30.640  34.832  1.00  0.00     0.002 C 
BRANCH  16  17
HETATM   17  C6  UNL     1      49.295  31.879  35.696  1.00  0.00     0.000 C 
BRANCH  17  18
HETATM   18  C5  UNL     1      48.025  31.989  36.473  1.00  0.00     0.000 C 
BRANCH  18  19
HETATM   19  C4  UNL     1      48.280  31.928  37.937  1.00  0.00     0.000 C 
BRANCH  19  20
HETATM   20  C3  UNL     1      49.615  32.498  38.312  1.00  0.00    -0.000 C 
BRANCH  20  21
HETATM   21  C2  UNL     1      50.172  31.576  39.412  1.00  0.00    -0.005 C 
HETATM   22  C1  UNL     1      49.368  30.309  39.374  1.00  0.00     0.005 C 
ENDBRANCH  20  21
ENDBRANCH  19  20
ENDBRANCH  18  19
ENDBRANCH  17  18
ENDBRANCH  16  17
ENDBRANCH  15  16
ENDBRANCH   1  15
BRANCH   6  23
HETATM   23  O3  UNL     1      52.054  27.535  30.812  1.00  0.00    -0.360 OA
ATOM     24  H3  UNL     1      51.526  28.298  30.610  1.00  0.00     0.217 HD
ENDBRANCH   6  23
BRANCH   9  25
HETATM   25  C17 UNL     1      55.548  27.634  35.267  1.00  0.00     0.071 C 
HETATM   26 BR1  UNL     1      56.283  29.348  35.779  1.00  0.00    -0.063 Br
ENDBRANCH   9  25
BRANCH   8  27
HETATM   27  O4  UNL     1      56.500  27.671  32.642  1.00  0.00    -0.355 OA
HETATM   28  C15 UNL     1      57.148  28.667  31.878  1.00  0.00     0.210 C 
ENDBRANCH   8  27
TORSDOF 10
ENDMDL
