MODEL 1
REMARK VINA RESULT: -8.351289330      0.000      0.000
REMARK  11 active torsions:
REMARK  status: ('A' for Active; 'I' for Inactive)
REMARK    1  A    between atoms: C2_2  and  O1_3 
REMARK    2  A    between atoms: C2_2  and  C3_5 
REMARK    3  A    between atoms: C3_5  and  O2_6 
REMARK    4  A    between atoms: C4_8  and  S1_9 
REMARK    5  A    between atoms: S1_9  and  N1_12 
REMARK    6  A    between atoms: N1_12  and  C5_14 
REMARK       I    between atoms: N2_17  and  C8_18 
REMARK       I    between atoms: C8_18  and  N3_20 
REMARK    7  A    between atoms: N3_20  and  C9_21 
REMARK    8  A    between atoms: N3_20  and  C19_36 
REMARK    9  A    between atoms: C9_21  and  C10_22 
REMARK   10  A    between atoms: C17_29  and  O6_30 
REMARK   11  A    between atoms: C17_29  and  C18_32 
ROOT
HETATM    1  C5  UNL     1      30.042  27.586  17.016  1.00  0.00     0.112 C 
HETATM    2  C6  UNL     1      29.457  27.985  18.324  1.00  0.00     0.047 C 
HETATM    3  C7  UNL     1      30.575  28.340  19.184  1.00  0.00     0.129 C 
HETATM    4  N2  UNL     1      31.693  28.743  18.315  1.00  0.00    -0.332 N 
HETATM    5  C8  UNL     1      32.682  29.631  18.804  1.00  0.00     0.325 C 
HETATM    6  O5  UNL     1      32.373  30.063  19.990  1.00  0.00    -0.247 OA
HETATM    7  N3  UNL     1      33.889  30.077  18.198  1.00  0.00    -0.303 N 
HETATM    8  C29 UNL     1      31.455  28.109  17.068  1.00  0.00     0.153 C 
ENDROOT
BRANCH   7   9
HETATM    9  C9  UNL     1      34.456  29.594  16.995  1.00  0.00     0.078 C 
BRANCH   9  10
HETATM   10  C10 UNL     1      34.879  28.193  16.836  1.00  0.00     0.072 C 
HETATM   11  C11 UNL     1      35.596  27.632  18.017  1.00  0.00    -0.002 C 
HETATM   12  C12 UNL     1      35.315  26.111  18.151  1.00  0.00     0.006 C 
HETATM   13  C15 UNL     1      37.108  27.589  17.887  1.00  0.00     0.010 C 
HETATM   14  C13 UNL     1      36.376  25.404  17.387  1.00  0.00     0.005 C 
HETATM   15  C14 UNL     1      37.264  26.518  16.844  1.00  0.00    -0.011 C 
HETATM   16  C16 UNL     1      36.690  26.948  15.554  1.00  0.00     0.052 C 
HETATM   17  C17 UNL     1      35.762  28.125  15.587  1.00  0.00     0.164 C 
BRANCH  17  18
HETATM   18  O6  UNL     1      36.555  29.283  15.506  1.00  0.00    -0.380 OA
ATOM     19  H6  UNL     1      36.339  29.763  14.715  1.00  0.00     0.211 HD
ENDBRANCH  17  18
BRANCH  17  20
HETATM   20  C18 UNL     1      34.987  28.054  14.293  1.00  0.00     0.419 C 
HETATM   21  F1  UNL     1      33.963  27.130  14.340  1.00  0.00    -0.168 F 
HETATM   22  F2  UNL     1      34.661  29.247  13.727  1.00  0.00    -0.168 F 
HETATM   23  F3  UNL     1      35.877  27.471  13.329  1.00  0.00    -0.168 F 
ENDBRANCH  17  20
ENDBRANCH   9  10
ENDBRANCH   7   9
BRANCH   7  24
HETATM   24  C19 UNL     1      34.467  31.292  18.815  1.00  0.00     0.042 C 
HETATM   25  C20 UNL     1      34.926  31.033  20.234  1.00  0.00     0.036 C 
HETATM   26  C21 UNL     1      35.662  32.223  20.830  1.00  0.00    -0.012 C 
HETATM   27  C22 UNL     1      34.776  33.416  20.819  1.00  0.00     0.009 C 
HETATM   28  C26 UNL     1      36.950  32.462  20.063  1.00  0.00     0.009 C 
HETATM   29  C23 UNL     1      34.419  33.671  19.356  1.00  0.00    -0.012 C 
HETATM   30  C24 UNL     1      35.654  33.915  18.558  1.00  0.00     0.009 C 
HETATM   31  C28 UNL     1      33.593  32.480  18.846  1.00  0.00     0.036 C 
HETATM   32  C25 UNL     1      36.535  32.695  18.631  1.00  0.00    -0.012 C 
HETATM   33  C27 UNL     1      35.768  31.554  18.041  1.00  0.00     0.036 C 
ENDBRANCH   7  24
BRANCH   1  34
HETATM   34  N1  UNL     1      29.241  28.206  15.974  1.00  0.00    -0.310 N 
ATOM     35  H1  UNL     1      29.154  29.203  15.779  1.00  0.00     0.172 HD
BRANCH  34  36
HETATM   36  S1  UNL     1      28.456  26.895  15.122  1.00  0.00     0.251 S 
HETATM   37  O3  UNL     1      27.157  26.579  15.806  1.00  0.00    -0.201 OA
HETATM   38  O4  UNL     1      29.405  25.710  15.136  1.00  0.00    -0.201 OA
BRANCH  36  39
HETATM   39  C4  UNL     1      28.232  27.329  13.443  1.00  0.00     0.165 C 
HETATM   40  C3  UNL     1      29.250  27.568  12.662  1.00  0.00     0.084 C 
BRANCH  40  41
HETATM   41  C2  UNL     1      30.674  27.517  13.054  1.00  0.00     0.171 C 
HETATM   42  C1  UNL     1      31.288  28.913  12.958  1.00  0.00     0.046 C 
BRANCH  41  43
HETATM   43  O1  UNL     1      31.422  26.627  12.303  1.00  0.00    -0.389 OA
ATOM     44  H1  UNL     1      31.342  25.753  12.668  1.00  0.00     0.210 HD
ENDBRANCH  41  43
ENDBRANCH  40  41
BRANCH  40  45
HETATM   45  O2  UNL     1      28.970  27.896  11.326  1.00  0.00    -0.362 OA
ATOM     46  H2  UNL     1      28.380  27.318  10.856  1.00  0.00     0.217 HD
ENDBRANCH  40  45
ENDBRANCH  36  39
ENDBRANCH  34  36
ENDBRANCH   1  34
TORSDOF 11
ENDMDL
MODEL 2
REMARK VINA RESULT: -8.300674576      4.467      6.881
REMARK  11 active torsions:
REMARK  status: ('A' for Active; 'I' for Inactive)
REMARK    1  A    between atoms: C2_2  and  O1_3 
REMARK    2  A    between atoms: C2_2  and  C3_5 
REMARK    3  A    between atoms: C3_5  and  O2_6 
REMARK    4  A    between atoms: C4_8  and  S1_9 
REMARK    5  A    between atoms: S1_9  and  N1_12 
REMARK    6  A    between atoms: N1_12  and  C5_14 
REMARK       I    between atoms: N2_17  and  C8_18 
REMARK       I    between atoms: C8_18  and  N3_20 
REMARK    7  A    between atoms: N3_20  and  C9_21 
REMARK    8  A    between atoms: N3_20  and  C19_36 
REMARK    9  A    between atoms: C9_21  and  C10_22 
REMARK   10  A    between atoms: C17_29  and  O6_30 
REMARK   11  A    between atoms: C17_29  and  C18_32 
ROOT
HETATM    1  C5  UNL     1      36.942  27.735  17.369  1.00  0.00     0.112 C 
HETATM    2  C6  UNL     1      36.879  26.637  18.369  1.00  0.00     0.047 C 
HETATM    3  C7  UNL     1      36.383  27.229  19.602  1.00  0.00     0.129 C 
HETATM    4  N2  UNL     1      35.605  28.425  19.236  1.00  0.00    -0.332 N 
HETATM    5  C8  UNL     1      34.578  28.887  20.095  1.00  0.00     0.325 C 
HETATM    6  O5  UNL     1      34.399  28.069  21.088  1.00  0.00    -0.247 OA
HETATM    7  N3  UNL     1      33.773  30.056  20.008  1.00  0.00    -0.303 N 
HETATM    8  C29 UNL     1      36.102  28.832  17.971  1.00  0.00     0.153 C 
ENDROOT
BRANCH   7   9
HETATM    9  C9  UNL     1      33.935  31.124  19.095  1.00  0.00     0.078 C 
BRANCH   9  10
HETATM   10  C10 UNL     1      35.135  31.977  19.093  1.00  0.00     0.072 C 
HETATM   11  C11 UNL     1      35.864  32.014  20.393  1.00  0.00    -0.002 C 
HETATM   12  C12 UNL     1      37.386  32.204  20.159  1.00  0.00     0.006 C 
HETATM   13  C15 UNL     1      35.594  33.242  21.244  1.00  0.00     0.010 C 
HETATM   14  C13 UNL     1      37.648  33.668  20.167  1.00  0.00     0.005 C 
HETATM   15  C14 UNL     1      36.285  34.298  20.428  1.00  0.00    -0.011 C 
HETATM   16  C16 UNL     1      35.625  34.474  19.120  1.00  0.00     0.052 C 
HETATM   17  C17 UNL     1      34.692  33.384  18.684  1.00  0.00     0.164 C 
BRANCH  17  18
HETATM   18  O6  UNL     1      33.433  33.664  19.244  1.00  0.00    -0.380 OA
ATOM     19  H6  UNL     1      32.802  33.815  18.551  1.00  0.00     0.211 HD
ENDBRANCH  17  18
BRANCH  17  20
HETATM   20  C18 UNL     1      34.539  33.568  17.193  1.00  0.00     0.419 C 
HETATM   21  F1  UNL     1      35.667  34.108  16.608  1.00  0.00    -0.168 F 
HETATM   22  F2  UNL     1      33.983  32.526  16.517  1.00  0.00    -0.168 F 
HETATM   23  F3  UNL     1      33.575  34.618  17.018  1.00  0.00    -0.168 F 
ENDBRANCH  17  20
ENDBRANCH   9  10
ENDBRANCH   7   9
BRANCH   7  24
HETATM   24  C19 UNL     1      32.549  30.015  20.840  1.00  0.00     0.042 C 
HETATM   25  C20 UNL     1      32.820  30.480  22.255  1.00  0.00     0.036 C 
HETATM   26  C21 UNL     1      31.548  30.593  23.080  1.00  0.00    -0.012 C 
HETATM   27  C22 UNL     1      30.863  29.275  23.127  1.00  0.00     0.009 C 
HETATM   28  C26 UNL     1      30.658  31.677  22.500  1.00  0.00     0.009 C 
HETATM   29  C23 UNL     1      30.544  28.906  21.680  1.00  0.00    -0.012 C 
HETATM   30  C24 UNL     1      29.667  29.942  21.064  1.00  0.00     0.009 C 
HETATM   31  C28 UNL     1      31.870  28.709  20.928  1.00  0.00     0.036 C 
HETATM   32  C25 UNL     1      30.389  31.265  21.073  1.00  0.00    -0.012 C 
HETATM   33  C27 UNL     1      31.632  31.102  20.256  1.00  0.00     0.036 C 
ENDBRANCH   7  24
BRANCH   1  34
HETATM   34  N1  UNL     1      36.401  27.220  16.122  1.00  0.00    -0.310 N 
ATOM     35  H1  UNL     1      35.430  26.973  15.931  1.00  0.00     0.172 HD
BRANCH  34  36
HETATM   36  S1  UNL     1      37.752  27.109  15.016  1.00  0.00     0.251 S 
HETATM   37  O3  UNL     1      38.101  25.662  14.819  1.00  0.00    -0.201 OA
HETATM   38  O4  UNL     1      38.902  27.890  15.624  1.00  0.00    -0.201 OA
BRANCH  36  39
HETATM   39  C4  UNL     1      37.353  27.905  13.512  1.00  0.00     0.165 C 
HETATM   40  C3  UNL     1      38.271  28.174  12.623  1.00  0.00     0.084 C 
BRANCH  40  41
HETATM   41  C2  UNL     1      39.712  27.870  12.745  1.00  0.00     0.171 C 
HETATM   42  C1  UNL     1      40.508  28.730  11.764  1.00  0.00     0.046 C 
BRANCH  41  43
HETATM   43  O1  UNL     1      40.013  26.533  12.543  1.00  0.00    -0.389 OA
ATOM     44  H1  UNL     1      39.219  26.015  12.595  1.00  0.00     0.210 HD
ENDBRANCH  41  43
ENDBRANCH  40  41
BRANCH  40  45
HETATM   45  O2  UNL     1      37.853  28.803  11.440  1.00  0.00    -0.362 OA
ATOM     46  H2  UNL     1      37.077  29.348  11.494  1.00  0.00     0.217 HD
ENDBRANCH  40  45
ENDBRANCH  36  39
ENDBRANCH  34  36
ENDBRANCH   1  34
TORSDOF 11
ENDMDL
MODEL 3
REMARK VINA RESULT: -8.182160674      3.728      6.582
REMARK  11 active torsions:
REMARK  status: ('A' for Active; 'I' for Inactive)
REMARK    1  A    between atoms: C2_2  and  O1_3 
REMARK    2  A    between atoms: C2_2  and  C3_5 
REMARK    3  A    between atoms: C3_5  and  O2_6 
REMARK    4  A    between atoms: C4_8  and  S1_9 
REMARK    5  A    between atoms: S1_9  and  N1_12 
REMARK    6  A    between atoms: N1_12  and  C5_14 
REMARK       I    between atoms: N2_17  and  C8_18 
REMARK       I    between atoms: C8_18  and  N3_20 
REMARK    7  A    between atoms: N3_20  and  C9_21 
REMARK    8  A    between atoms: N3_20  and  C19_36 
REMARK    9  A    between atoms: C9_21  and  C10_22 
REMARK   10  A    between atoms: C17_29  and  O6_30 
REMARK   11  A    between atoms: C17_29  and  C18_32 
ROOT
HETATM    1  C5  UNL     1      33.964  28.223  15.032  1.00  0.00     0.112 C 
HETATM    2  C6  UNL     1      32.529  28.059  14.676  1.00  0.00     0.047 C 
HETATM    3  C7  UNL     1      31.789  29.001  15.502  1.00  0.00     0.129 C 
HETATM    4  N2  UNL     1      32.711  30.090  15.865  1.00  0.00    -0.332 N 
HETATM    5  C8  UNL     1      32.199  31.374  16.172  1.00  0.00     0.325 C 
HETATM    6  O5  UNL     1      30.916  31.423  15.970  1.00  0.00    -0.247 OA
HETATM    7  N3  UNL     1      32.870  32.537  16.640  1.00  0.00    -0.303 N 
HETATM    8  C29 UNL     1      34.014  29.536  15.770  1.00  0.00     0.153 C 
ENDROOT
BRANCH   7   9
HETATM    9  C9  UNL     1      34.218  32.619  17.061  1.00  0.00     0.078 C 
BRANCH   9  10
HETATM   10  C10 UNL     1      34.591  32.696  18.483  1.00  0.00     0.072 C 
HETATM   11  C11 UNL     1      34.996  34.057  18.938  1.00  0.00    -0.002 C 
HETATM   12  C12 UNL     1      34.613  34.270  20.426  1.00  0.00     0.006 C 
HETATM   13  C15 UNL     1      36.495  34.278  19.040  1.00  0.00     0.010 C 
HETATM   14  C13 UNL     1      35.778  33.838  21.243  1.00  0.00     0.005 C 
HETATM   15  C14 UNL     1      36.822  33.406  20.219  1.00  0.00    -0.011 C 
HETATM   16  C16 UNL     1      36.573  31.984  19.911  1.00  0.00     0.052 C 
HETATM   17  C17 UNL     1      35.725  31.692  18.710  1.00  0.00     0.164 C 
BRANCH  17  18
HETATM   18  O6  UNL     1      36.577  31.681  17.591  1.00  0.00    -0.380 OA
ATOM     19  H6  UNL     1      36.495  30.852  17.136  1.00  0.00     0.211 HD
ENDBRANCH  17  18
BRANCH  17  20
HETATM   20  C18 UNL     1      35.254  30.270  18.894  1.00  0.00     0.419 C 
HETATM   21  F1  UNL     1      33.878  30.162  18.884  1.00  0.00    -0.168 F 
HETATM   22  F2  UNL     1      35.911  29.325  18.167  1.00  0.00    -0.168 F 
HETATM   23  F3  UNL     1      35.576  29.917  20.248  1.00  0.00    -0.168 F 
ENDBRANCH  17  20
ENDBRANCH   9  10
ENDBRANCH   7   9
BRANCH   7  24
HETATM   24  C19 UNL     1      32.104  33.792  16.470  1.00  0.00     0.042 C 
HETATM   25  C20 UNL     1      33.018  34.976  16.238  1.00  0.00     0.036 C 
HETATM   26  C21 UNL     1      32.247  36.245  15.907  1.00  0.00    -0.012 C 
HETATM   27  C22 UNL     1      31.311  36.566  17.017  1.00  0.00     0.009 C 
HETATM   28  C26 UNL     1      31.523  36.072  14.584  1.00  0.00     0.009 C 
HETATM   29  C23 UNL     1      30.369  35.371  17.142  1.00  0.00    -0.012 C 
HETATM   30  C24 UNL     1      29.630  35.160  15.864  1.00  0.00     0.009 C 
HETATM   31  C28 UNL     1      31.193  34.149  17.574  1.00  0.00     0.036 C 
HETATM   32  C25 UNL     1      30.621  34.876  14.765  1.00  0.00    -0.012 C 
HETATM   33  C27 UNL     1      31.356  33.627  15.138  1.00  0.00     0.036 C 
ENDBRANCH   7  24
BRANCH   1  34
HETATM   34  N1  UNL     1      34.721  28.236  13.791  1.00  0.00    -0.310 N 
ATOM     35  H1  UNL     1      34.357  28.396  12.852  1.00  0.00     0.172 HD
BRANCH  34  36
HETATM   36  S1  UNL     1      36.383  27.918  14.235  1.00  0.00     0.251 S 
HETATM   37  O3  UNL     1      36.473  26.544  14.835  1.00  0.00    -0.201 OA
HETATM   38  O4  UNL     1      36.805  28.993  15.219  1.00  0.00    -0.201 OA
BRANCH  36  39
HETATM   39  C4  UNL     1      37.415  28.097  12.835  1.00  0.00     0.165 C 
HETATM   40  C3  UNL     1      38.690  27.821  12.892  1.00  0.00     0.084 C 
BRANCH  40  41
HETATM   41  C2  UNL     1      39.422  27.346  14.085  1.00  0.00     0.171 C 
HETATM   42  C1  UNL     1      40.895  27.735  13.979  1.00  0.00     0.046 C 
BRANCH  41  43
HETATM   43  O1  UNL     1      39.314  25.981  14.292  1.00  0.00    -0.389 OA
ATOM     44  H1  UNL     1      39.266  25.533  13.455  1.00  0.00     0.210 HD
ENDBRANCH  41  43
ENDBRANCH  40  41
BRANCH  40  45
HETATM   45  O2  UNL     1      39.434  27.982  11.714  1.00  0.00    -0.362 OA
ATOM     46  H2  UNL     1      40.381  27.987  11.800  1.00  0.00     0.217 HD
ENDBRANCH  40  45
ENDBRANCH  36  39
ENDBRANCH  34  36
ENDBRANCH   1  34
TORSDOF 11
ENDMDL
MODEL 4
REMARK VINA RESULT: -8.098757785      1.560      1.926
REMARK  11 active torsions:
REMARK  status: ('A' for Active; 'I' for Inactive)
REMARK    1  A    between atoms: C2_2  and  O1_3 
REMARK    2  A    between atoms: C2_2  and  C3_5 
REMARK    3  A    between atoms: C3_5  and  O2_6 
REMARK    4  A    between atoms: C4_8  and  S1_9 
REMARK    5  A    between atoms: S1_9  and  N1_12 
REMARK    6  A    between atoms: N1_12  and  C5_14 
REMARK       I    between atoms: N2_17  and  C8_18 
REMARK       I    between atoms: C8_18  and  N3_20 
REMARK    7  A    between atoms: N3_20  and  C9_21 
REMARK    8  A    between atoms: N3_20  and  C19_36 
REMARK    9  A    between atoms: C9_21  and  C10_22 
REMARK   10  A    between atoms: C17_29  and  O6_30 
REMARK   11  A    between atoms: C17_29  and  C18_32 
ROOT
HETATM    1  C5  UNL     1      29.866  29.760  16.466  1.00  0.00     0.112 C 
HETATM    2  C6  UNL     1      29.138  30.489  17.539  1.00  0.00     0.047 C 
HETATM    3  C7  UNL     1      30.062  30.607  18.657  1.00  0.00     0.129 C 
HETATM    4  N2  UNL     1      31.428  30.537  18.112  1.00  0.00    -0.332 N 
HETATM    5  C8  UNL     1      32.498  31.147  18.811  1.00  0.00     0.325 C 
HETATM    6  O5  UNL     1      32.063  31.808  19.841  1.00  0.00    -0.247 OA
HETATM    7  N3  UNL     1      33.894  31.126  18.540  1.00  0.00    -0.303 N 
HETATM    8  C29 UNL     1      31.313  29.840  16.881  1.00  0.00     0.153 C 
ENDROOT
BRANCH   7   9
HETATM    9  C9  UNL     1      34.552  30.338  17.568  1.00  0.00     0.078 C 
BRANCH   9  10
HETATM   10  C10 UNL     1      34.886  28.923  17.801  1.00  0.00     0.072 C 
HETATM   11  C11 UNL     1      35.582  28.663  19.094  1.00  0.00    -0.002 C 
HETATM   12  C12 UNL     1      35.210  27.258  19.638  1.00  0.00     0.006 C 
HETATM   13  C15 UNL     1      37.087  28.490  18.988  1.00  0.00     0.010 C 
HETATM   14  C13 UNL     1      36.214  26.302  19.103  1.00  0.00     0.005 C 
HETATM   15  C14 UNL     1      37.162  27.167  18.279  1.00  0.00    -0.011 C 
HETATM   16  C16 UNL     1      36.599  27.262  16.918  1.00  0.00     0.052 C 
HETATM   17  C17 UNL     1      35.746  28.459  16.623  1.00  0.00     0.164 C 
BRANCH  17  18
HETATM   18  O6  UNL     1      36.609  29.498  16.230  1.00  0.00    -0.380 OA
ATOM     19  H6  UNL     1      36.428  29.740  15.330  1.00  0.00     0.211 HD
ENDBRANCH  17  18
BRANCH  17  20
HETATM   20  C18 UNL     1      34.952  28.085  15.395  1.00  0.00     0.419 C 
HETATM   21  F1  UNL     1      33.669  27.676  15.699  1.00  0.00    -0.168 F 
HETATM   22  F2  UNL     1      35.048  28.938  14.339  1.00  0.00    -0.168 F 
HETATM   23  F3  UNL     1      35.543  26.878  14.891  1.00  0.00    -0.168 F 
ENDBRANCH  17  20
ENDBRANCH   9  10
ENDBRANCH   7   9
BRANCH   7  24
HETATM   24  C19 UNL     1      34.663  32.185  19.232  1.00  0.00     0.042 C 
HETATM   25  C20 UNL     1      34.965  31.809  20.667  1.00  0.00     0.036 C 
HETATM   26  C21 UNL     1      35.885  32.812  21.346  1.00  0.00    -0.012 C 
HETATM   27  C22 UNL     1      35.261  34.161  21.320  1.00  0.00     0.009 C 
HETATM   28  C26 UNL     1      37.243  32.800  20.667  1.00  0.00     0.009 C 
HETATM   29  C23 UNL     1      35.061  34.513  19.848  1.00  0.00    -0.012 C 
HETATM   30  C24 UNL     1      36.371  34.516  19.136  1.00  0.00     0.009 C 
HETATM   31  C28 UNL     1      34.048  33.526  19.249  1.00  0.00     0.036 C 
HETATM   32  C25 UNL     1      36.980  33.141  19.221  1.00  0.00    -0.012 C 
HETATM   33  C27 UNL     1      36.039  32.192  18.547  1.00  0.00     0.036 C 
ENDBRANCH   7  24
BRANCH   1  34
HETATM   34  N1  UNL     1      29.592  30.444  15.213  1.00  0.00    -0.310 N 
ATOM     35  H1  UNL     1      29.863  31.394  14.961  1.00  0.00     0.172 HD
BRANCH  34  36
HETATM   36  S1  UNL     1      28.702  29.307  14.226  1.00  0.00     0.251 S 
HETATM   37  O3  UNL     1      28.938  29.631  12.778  1.00  0.00    -0.201 OA
HETATM   38  O4  UNL     1      27.236  29.428  14.600  1.00  0.00    -0.201 OA
BRANCH  36  39
HETATM   39  C4  UNL     1      29.181  27.673  14.624  1.00  0.00     0.165 C 
HETATM   40  C3  UNL     1      30.246  27.131  14.099  1.00  0.00     0.084 C 
BRANCH  40  41
HETATM   41  C2  UNL     1      31.161  27.777  13.134  1.00  0.00     0.171 C 
HETATM   42  C1  UNL     1      32.196  26.765  12.644  1.00  0.00     0.046 C 
BRANCH  41  43
HETATM   43  O1  UNL     1      31.805  28.892  13.644  1.00  0.00    -0.389 OA
ATOM     44  H1  UNL     1      31.181  29.600  13.753  1.00  0.00     0.210 HD
ENDBRANCH  41  43
ENDBRANCH  40  41
BRANCH  40  45
HETATM   45  O2  UNL     1      30.558  25.820  14.489  1.00  0.00    -0.362 OA
ATOM     46  H2  UNL     1      29.870  25.170  14.402  1.00  0.00     0.217 HD
ENDBRANCH  40  45
ENDBRANCH  36  39
ENDBRANCH  34  36
ENDBRANCH   1  34
TORSDOF 11
ENDMDL
MODEL 5
REMARK VINA RESULT: -7.979575837      1.087      1.288
REMARK  11 active torsions:
REMARK  status: ('A' for Active; 'I' for Inactive)
REMARK    1  A    between atoms: C2_2  and  O1_3 
REMARK    2  A    between atoms: C2_2  and  C3_5 
REMARK    3  A    between atoms: C3_5  and  O2_6 
REMARK    4  A    between atoms: C4_8  and  S1_9 
REMARK    5  A    between atoms: S1_9  and  N1_12 
REMARK    6  A    between atoms: N1_12  and  C5_14 
REMARK       I    between atoms: N2_17  and  C8_18 
REMARK       I    between atoms: C8_18  and  N3_20 
REMARK    7  A    between atoms: N3_20  and  C9_21 
REMARK    8  A    between atoms: N3_20  and  C19_36 
REMARK    9  A    between atoms: C9_21  and  C10_22 
REMARK   10  A    between atoms: C17_29  and  O6_30 
REMARK   11  A    between atoms: C17_29  and  C18_32 
ROOT
HETATM    1  C5  UNL     1      30.066  27.830  16.726  1.00  0.00     0.112 C 
HETATM    2  C6  UNL     1      29.408  28.263  17.987  1.00  0.00     0.047 C 
HETATM    3  C7  UNL     1      30.477  28.577  18.923  1.00  0.00     0.129 C 
HETATM    4  N2  UNL     1      31.670  28.926  18.133  1.00  0.00    -0.332 N 
HETATM    5  C8  UNL     1      32.659  29.774  18.687  1.00  0.00     0.325 C 
HETATM    6  O5  UNL     1      32.286  30.228  19.846  1.00  0.00    -0.247 OA
HETATM    7  N3  UNL     1      33.923  30.164  18.165  1.00  0.00    -0.303 N 
HETATM    8  C29 UNL     1      31.493  28.293  16.875  1.00  0.00     0.153 C 
ENDROOT
BRANCH   7   9
HETATM    9  C9  UNL     1      34.552  29.649  17.008  1.00  0.00     0.078 C 
BRANCH   9  10
HETATM   10  C10 UNL     1      34.931  28.232  16.888  1.00  0.00     0.072 C 
HETATM   11  C11 UNL     1      35.597  27.671  18.098  1.00  0.00    -0.002 C 
HETATM   12  C12 UNL     1      35.261  26.164  18.255  1.00  0.00     0.006 C 
HETATM   13  C15 UNL     1      37.110  27.573  18.011  1.00  0.00     0.010 C 
HETATM   14  C13 UNL     1      36.317  25.405  17.533  1.00  0.00     0.005 C 
HETATM   15  C14 UNL     1      37.256  26.477  16.993  1.00  0.00    -0.011 C 
HETATM   16  C16 UNL     1      36.731  26.899  15.680  1.00  0.00     0.052 C 
HETATM   17  C17 UNL     1      35.844  28.108  15.665  1.00  0.00     0.164 C 
BRANCH  17  18
HETATM   18  O6  UNL     1      36.678  29.236  15.582  1.00  0.00    -0.380 OA
ATOM     19  H6  UNL     1      36.178  30.018  15.784  1.00  0.00     0.211 HD
ENDBRANCH  17  18
BRANCH  17  20
HETATM   20  C18 UNL     1      35.101  28.036  14.352  1.00  0.00     0.419 C 
HETATM   21  F1  UNL     1      34.077  27.111  14.374  1.00  0.00    -0.168 F 
HETATM   22  F2  UNL     1      34.787  29.229  13.779  1.00  0.00    -0.168 F 
HETATM   23  F3  UNL     1      36.015  27.455  13.410  1.00  0.00    -0.168 F 
ENDBRANCH  17  20
ENDBRANCH   9  10
ENDBRANCH   7   9
BRANCH   7  24
HETATM   24  C19 UNL     1      34.508  31.358  18.816  1.00  0.00     0.042 C 
HETATM   25  C20 UNL     1      34.912  31.072  20.247  1.00  0.00     0.036 C 
HETATM   26  C21 UNL     1      35.655  32.237  20.882  1.00  0.00    -0.012 C 
HETATM   27  C22 UNL     1      34.798  33.451  20.856  1.00  0.00     0.009 C 
HETATM   28  C26 UNL     1      36.974  32.455  20.162  1.00  0.00     0.009 C 
HETATM   29  C23 UNL     1      34.497  33.731  19.385  1.00  0.00    -0.012 C 
HETATM   30  C24 UNL     1      35.764  33.955  18.633  1.00  0.00     0.009 C 
HETATM   31  C28 UNL     1      33.662  32.566  18.832  1.00  0.00     0.036 C 
HETATM   32  C25 UNL     1      36.613  32.714  18.720  1.00  0.00    -0.012 C 
HETATM   33  C27 UNL     1      35.840  31.598  18.090  1.00  0.00     0.036 C 
ENDBRANCH   7  24
BRANCH   1  34
HETATM   34  N1  UNL     1      29.368  28.476  15.627  1.00  0.00    -0.310 N 
ATOM     35  H1  UNL     1      28.889  29.376  15.649  1.00  0.00     0.172 HD
BRANCH  34  36
HETATM   36  S1  UNL     1      29.515  27.396  14.258  1.00  0.00     0.251 S 
HETATM   37  O3  UNL     1      29.141  26.008  14.691  1.00  0.00    -0.201 OA
HETATM   38  O4  UNL     1      30.951  27.469  13.774  1.00  0.00    -0.201 OA
BRANCH  36  39
HETATM   39  C4  UNL     1      28.519  27.969  12.941  1.00  0.00     0.165 C 
HETATM   40  C3  UNL     1      28.479  29.234  12.620  1.00  0.00     0.084 C 
BRANCH  40  41
HETATM   41  C2  UNL     1      29.227  30.321  13.287  1.00  0.00     0.171 C 
HETATM   42  C1  UNL     1      28.283  31.480  13.604  1.00  0.00     0.046 C 
BRANCH  41  43
HETATM   43  O1  UNL     1      30.303  30.785  12.549  1.00  0.00    -0.389 OA
ATOM     44  H1  UNL     1      30.656  31.567  12.956  1.00  0.00     0.210 HD
ENDBRANCH  41  43
ENDBRANCH  40  41
BRANCH  40  45
HETATM   45  O2  UNL     1      27.661  29.597  11.540  1.00  0.00    -0.362 OA
ATOM     46  H2  UNL     1      27.760  29.097  10.738  1.00  0.00     0.217 HD
ENDBRANCH  40  45
ENDBRANCH  36  39
ENDBRANCH  34  36
ENDBRANCH   1  34
TORSDOF 11
ENDMDL
