MODEL 1
REMARK VINA RESULT: -7.257668802      0.000      0.000
REMARK  8 active torsions:
REMARK  status: ('A' for Active; 'I' for Inactive)
REMARK    1  A    between atoms: O1_2  and  C2_3 
REMARK    2  A    between atoms: C4_6  and  O2_7 
REMARK    3  A    between atoms: C6_11  and  O3_12 
REMARK    4  A    between atoms: O3_12  and  C7_13 
REMARK    5  A    between atoms: C7_13  and  C8_14 
REMARK       I    between atoms: C8_14  and  N1_16 
REMARK    6  A    between atoms: N1_16  and  N2_18 
REMARK       I    between atoms: N2_18  and  C9_20 
REMARK    7  A    between atoms: C9_20  and  C10_22 
REMARK    8  A    between atoms: C16_31  and  C17_32 
ROOT
HETATM    1  C7  UNL     1      36.566  32.575  19.542  1.00  0.00     0.280 C 
ENDROOT
BRANCH   1   2
HETATM    2  O3  UNL     1      36.031  33.859  19.590  1.00  0.00    -0.340 OA
BRANCH   2   3
HETATM    3  C6  UNL     1      35.762  34.598  20.703  1.00  0.00     0.102 A 
HETATM    4  C5  UNL     1      36.729  35.265  21.386  1.00  0.00     0.079 A 
HETATM    5  C4  UNL     1      36.428  36.006  22.512  1.00  0.00     0.106 A 
HETATM    6 BR2  UNL     1      38.574  35.228  20.840  1.00  0.00    -0.045 Br
HETATM    7  C3  UNL     1      35.135  36.092  22.975  1.00  0.00     0.079 A 
HETATM    8  C2  UNL     1      34.133  35.400  22.262  1.00  0.00     0.101 A 
HETATM    9 BR1  UNL     1      34.686  37.109  24.530  1.00  0.00    -0.045 Br
HETATM   10  C16 UNL     1      34.413  34.661  21.154  1.00  0.00     0.034 A 
BRANCH   5  11
HETATM   11  O2  UNL     1      37.413  36.669  23.188  1.00  0.00    -0.358 OA
ATOM     12  H2  UNL     1      38.101  37.096  22.691  1.00  0.00     0.217 HD
ENDBRANCH   5  11
BRANCH   8  13
HETATM   13  O1  UNL     1      32.842  35.554  22.782  1.00  0.00    -0.354 OA
HETATM   14  C1  UNL     1      31.966  36.497  22.132  1.00  0.00     0.210 C 
ENDBRANCH   8  13
BRANCH  10  15
HETATM   15  C17 UNL     1      33.508  33.804  20.482  1.00  0.00     0.024 C 
HETATM   16  C18 UNL     1      33.074  32.626  20.710  1.00  0.00     0.057 C 
HETATM   17 BR3  UNL     1      33.454  31.409  22.098  1.00  0.00    -0.064 Br
ENDBRANCH  10  15
ENDBRANCH   2   3
ENDBRANCH   1   2
BRANCH   1  18
HETATM   18  C8  UNL     1      35.784  31.763  18.580  1.00  0.00     0.260 C 
HETATM   19  O4  UNL     1      35.204  32.331  17.627  1.00  0.00    -0.269 OA
HETATM   20  N1  UNL     1      35.691  30.364  18.735  1.00  0.00    -0.266 N 
ATOM     21  H1  UNL     1      36.174  29.927  19.521  1.00  0.00     0.190 HD
BRANCH  20  22
HETATM   22  N2  UNL     1      34.960  29.540  17.850  1.00  0.00    -0.267 N 
HETATM   23  C9  UNL     1      35.548  29.015  16.676  1.00  0.00     0.243 C 
HETATM   24  O5  UNL     1      36.743  29.290  16.424  1.00  0.00    -0.271 OA
ATOM     25  H2  UNL     1      33.987  29.319  18.062  1.00  0.00     0.190 HD
BRANCH  23  26
HETATM   26  C10 UNL     1      34.769  28.168  15.777  1.00  0.00     0.115 C 
HETATM   27  C11 UNL     1      35.719  27.326  14.905  1.00  0.00     0.119 C 
HETATM   28  C12 UNL     1      36.026  28.228  13.786  1.00  0.00     0.219 C 
HETATM   29  O6  UNL     1      37.041  28.241  13.020  1.00  0.00    -0.274 OA
HETATM   30  N3  UNL     1      34.946  29.152  13.673  1.00  0.00    -0.352 N 
HETATM   31  C13 UNL     1      33.980  28.881  14.731  1.00  0.00     0.038 C 
ATOM     32  H3  UNL     1      34.863  29.884  12.967  1.00  0.00     0.163 HD
HETATM   33  C14 UNL     1      32.933  27.915  14.191  1.00  0.00     0.039 C 
HETATM   34  C15 UNL     1      33.328  30.151  15.153  1.00  0.00     0.039 C 
ENDBRANCH  23  26
ENDBRANCH  20  22
ENDBRANCH   1  18
TORSDOF 8
ENDMDL
MODEL 2
REMARK VINA RESULT: -7.175793016      1.883      2.924
REMARK  8 active torsions:
REMARK  status: ('A' for Active; 'I' for Inactive)
REMARK    1  A    between atoms: O1_2  and  C2_3 
REMARK    2  A    between atoms: C4_6  and  O2_7 
REMARK    3  A    between atoms: C6_11  and  O3_12 
REMARK    4  A    between atoms: O3_12  and  C7_13 
REMARK    5  A    between atoms: C7_13  and  C8_14 
REMARK       I    between atoms: C8_14  and  N1_16 
REMARK    6  A    between atoms: N1_16  and  N2_18 
REMARK       I    between atoms: N2_18  and  C9_20 
REMARK    7  A    between atoms: C9_20  and  C10_22 
REMARK    8  A    between atoms: C16_31  and  C17_32 
ROOT
HETATM    1  C7  UNL     1      35.138  30.743  20.807  1.00  0.00     0.280 C 
ENDROOT
BRANCH   1   2
HETATM    2  O3  UNL     1      34.709  32.067  20.780  1.00  0.00    -0.340 OA
BRANCH   2   3
HETATM    3  C6  UNL     1      35.344  33.149  21.312  1.00  0.00     0.102 A 
HETATM    4  C5  UNL     1      35.081  33.607  22.565  1.00  0.00     0.079 A 
HETATM    5  C4  UNL     1      35.741  34.706  23.077  1.00  0.00     0.106 A 
HETATM    6 BR2  UNL     1      33.781  32.764  23.706  1.00  0.00    -0.045 Br
HETATM    7  C3  UNL     1      36.689  35.370  22.334  1.00  0.00     0.079 A 
HETATM    8  C2  UNL     1      36.962  34.891  21.035  1.00  0.00     0.101 A 
HETATM    9 BR1  UNL     1      37.619  36.895  23.015  1.00  0.00    -0.045 Br
HETATM   10  C16 UNL     1      36.317  33.812  20.511  1.00  0.00     0.034 A 
BRANCH   5  11
HETATM   11  O2  UNL     1      35.462  35.155  24.338  1.00  0.00    -0.358 OA
ATOM     12  H2  UNL     1      35.667  36.056  24.557  1.00  0.00     0.217 HD
ENDBRANCH   5  11
BRANCH   8  13
HETATM   13  O1  UNL     1      37.952  35.606  20.351  1.00  0.00    -0.354 OA
HETATM   14  C1  UNL     1      39.324  35.386  20.735  1.00  0.00     0.210 C 
ENDBRANCH   8  13
BRANCH  10  15
HETATM   15  C17 UNL     1      36.402  33.369  19.169  1.00  0.00     0.024 C 
HETATM   16  C18 UNL     1      35.591  33.375  18.185  1.00  0.00     0.057 C 
HETATM   17 BR3  UNL     1      33.814  33.988  18.044  1.00  0.00    -0.064 Br
ENDBRANCH  10  15
ENDBRANCH   2   3
ENDBRANCH   1   2
BRANCH   1  18
HETATM   18  C8  UNL     1      34.629  30.046  19.603  1.00  0.00     0.260 C 
HETATM   19  O4  UNL     1      33.562  30.435  19.076  1.00  0.00    -0.269 OA
HETATM   20  N1  UNL     1      35.337  28.957  19.053  1.00  0.00    -0.266 N 
ATOM     21  H1  UNL     1      36.204  28.663  19.504  1.00  0.00     0.190 HD
BRANCH  20  22
HETATM   22  N2  UNL     1      34.899  28.256  17.907  1.00  0.00    -0.267 N 
HETATM   23  C9  UNL     1      35.525  28.433  16.651  1.00  0.00     0.243 C 
HETATM   24  O5  UNL     1      36.487  29.228  16.562  1.00  0.00    -0.271 OA
ATOM     25  H2  UNL     1      34.114  27.609  17.988  1.00  0.00     0.190 HD
BRANCH  23  26
HETATM   26  C10 UNL     1      35.050  27.697  15.482  1.00  0.00     0.115 C 
HETATM   27  C11 UNL     1      36.252  27.230  14.640  1.00  0.00     0.119 C 
HETATM   28  C12 UNL     1      36.533  28.396  13.791  1.00  0.00     0.219 C 
HETATM   29  O6  UNL     1      37.621  28.738  13.230  1.00  0.00    -0.274 OA
HETATM   30  N3  UNL     1      35.323  29.142  13.675  1.00  0.00    -0.352 N 
HETATM   31  C13 UNL     1      34.290  28.493  14.476  1.00  0.00     0.038 C 
ATOM     32  H3  UNL     1      35.200  29.991  13.123  1.00  0.00     0.163 HD
HETATM   33  C14 UNL     1      33.529  27.522  13.583  1.00  0.00     0.039 C 
HETATM   34  C15 UNL     1      33.359  29.519  15.018  1.00  0.00     0.039 C 
ENDBRANCH  23  26
ENDBRANCH  20  22
ENDBRANCH   1  18
TORSDOF 8
ENDMDL
MODEL 3
REMARK VINA RESULT: -7.159425636      1.551      2.928
REMARK  8 active torsions:
REMARK  status: ('A' for Active; 'I' for Inactive)
REMARK    1  A    between atoms: O1_2  and  C2_3 
REMARK    2  A    between atoms: C4_6  and  O2_7 
REMARK    3  A    between atoms: C6_11  and  O3_12 
REMARK    4  A    between atoms: O3_12  and  C7_13 
REMARK    5  A    between atoms: C7_13  and  C8_14 
REMARK       I    between atoms: C8_14  and  N1_16 
REMARK    6  A    between atoms: N1_16  and  N2_18 
REMARK       I    between atoms: N2_18  and  C9_20 
REMARK    7  A    between atoms: C9_20  and  C10_22 
REMARK    8  A    between atoms: C16_31  and  C17_32 
ROOT
HETATM    1  C7  UNL     1      35.476  31.243  20.488  1.00  0.00     0.280 C 
ENDROOT
BRANCH   1   2
HETATM    2  O3  UNL     1      34.573  32.274  20.734  1.00  0.00    -0.340 OA
BRANCH   2   3
HETATM    3  C6  UNL     1      34.495  33.048  21.852  1.00  0.00     0.102 A 
HETATM    4  C5  UNL     1      33.893  32.622  22.994  1.00  0.00     0.079 A 
HETATM    5  C4  UNL     1      33.828  33.429  24.113  1.00  0.00     0.106 A 
HETATM    6 BR2  UNL     1      33.094  30.877  23.136  1.00  0.00    -0.045 Br
HETATM    7  C3  UNL     1      34.375  34.691  24.105  1.00  0.00     0.079 A 
HETATM    8  C2  UNL     1      35.002  35.130  22.919  1.00  0.00     0.101 A 
HETATM    9 BR1  UNL     1      34.302  35.833  25.637  1.00  0.00    -0.045 Br
HETATM   10  C16 UNL     1      35.070  34.350  21.805  1.00  0.00     0.034 A 
BRANCH   5  11
HETATM   11  O2  UNL     1      33.217  32.985  25.252  1.00  0.00    -0.358 OA
ATOM     12  H2  UNL     1      32.309  33.222  25.404  1.00  0.00     0.217 HD
ENDBRANCH   5  11
BRANCH   8  13
HETATM   13  O1  UNL     1      35.551  36.416  22.997  1.00  0.00    -0.354 OA
HETATM   14  C1  UNL     1      36.969  36.524  23.239  1.00  0.00     0.210 C 
ENDBRANCH   8  13
BRANCH  10  15
HETATM   15  C17 UNL     1      35.523  34.767  20.530  1.00  0.00     0.024 C 
HETATM   16  C18 UNL     1      36.675  34.851  19.988  1.00  0.00     0.057 C 
HETATM   17 BR3  UNL     1      38.394  34.458  20.653  1.00  0.00    -0.064 Br
ENDBRANCH  10  15
ENDBRANCH   2   3
ENDBRANCH   1   2
BRANCH   1  18
HETATM   18  C8  UNL     1      34.981  30.431  19.351  1.00  0.00     0.260 C 
HETATM   19  O4  UNL     1      33.977  30.820  18.711  1.00  0.00    -0.269 OA
HETATM   20  N1  UNL     1      35.632  29.233  18.991  1.00  0.00    -0.266 N 
ATOM     21  H1  UNL     1      36.448  28.941  19.529  1.00  0.00     0.190 HD
BRANCH  20  22
HETATM   22  N2  UNL     1      35.205  28.419  17.917  1.00  0.00    -0.267 N 
HETATM   23  C9  UNL     1      35.755  28.560  16.622  1.00  0.00     0.243 C 
HETATM   24  O5  UNL     1      36.639  29.425  16.431  1.00  0.00    -0.271 OA
ATOM     25  H2  UNL     1      34.484  27.716  18.080  1.00  0.00     0.190 HD
BRANCH  23  26
HETATM   26  C10 UNL     1      35.292  27.708  15.529  1.00  0.00     0.115 C 
HETATM   27  C11 UNL     1      36.500  27.223  14.705  1.00  0.00     0.119 C 
HETATM   28  C12 UNL     1      36.714  28.323  13.754  1.00  0.00     0.219 C 
HETATM   29  O6  UNL     1      37.776  28.662  13.143  1.00  0.00    -0.274 OA
HETATM   30  N3  UNL     1      35.470  29.004  13.601  1.00  0.00    -0.352 N 
HETATM   31  C13 UNL     1      34.481  28.382  14.475  1.00  0.00     0.038 C 
ATOM     32  H3  UNL     1      35.300  29.796  12.981  1.00  0.00     0.163 HD
HETATM   33  C14 UNL     1      33.748  27.306  13.684  1.00  0.00     0.039 C 
HETATM   34  C15 UNL     1      33.515  29.410  14.948  1.00  0.00     0.039 C 
ENDBRANCH  23  26
ENDBRANCH  20  22
ENDBRANCH   1  18
TORSDOF 8
ENDMDL
MODEL 4
REMARK VINA RESULT: -6.980428811      2.157      3.499
REMARK  8 active torsions:
REMARK  status: ('A' for Active; 'I' for Inactive)
REMARK    1  A    between atoms: O1_2  and  C2_3 
REMARK    2  A    between atoms: C4_6  and  O2_7 
REMARK    3  A    between atoms: C6_11  and  O3_12 
REMARK    4  A    between atoms: O3_12  and  C7_13 
REMARK    5  A    between atoms: C7_13  and  C8_14 
REMARK       I    between atoms: C8_14  and  N1_16 
REMARK    6  A    between atoms: N1_16  and  N2_18 
REMARK       I    between atoms: N2_18  and  C9_20 
REMARK    7  A    between atoms: C9_20  and  C10_22 
REMARK    8  A    between atoms: C16_31  and  C17_32 
ROOT
HETATM    1  C7  UNL     1      34.559  32.077  20.224  1.00  0.00     0.280 C 
ENDROOT
BRANCH   1   2
HETATM    2  O3  UNL     1      35.409  32.466  21.255  1.00  0.00    -0.340 OA
BRANCH   2   3
HETATM    3  C6  UNL     1      35.134  33.342  22.262  1.00  0.00     0.102 A 
HETATM    4  C5  UNL     1      34.522  32.962  23.414  1.00  0.00     0.079 A 
HETATM    5  C4  UNL     1      34.257  33.872  24.417  1.00  0.00     0.106 A 
HETATM    6 BR2  UNL     1      33.986  31.141  23.731  1.00  0.00    -0.045 Br
HETATM    7  C3  UNL     1      34.607  35.196  24.280  1.00  0.00     0.079 A 
HETATM    8  C2  UNL     1      35.244  35.587  23.084  1.00  0.00     0.101 A 
HETATM    9 BR1  UNL     1      34.253  36.481  25.650  1.00  0.00    -0.045 Br
HETATM   10  C16 UNL     1      35.509  34.704  22.082  1.00  0.00     0.034 A 
BRANCH   5  11
HETATM   11  O2  UNL     1      33.638  33.473  25.569  1.00  0.00    -0.358 OA
ATOM     12  H2  UNL     1      32.692  33.543  25.627  1.00  0.00     0.217 HD
ENDBRANCH   5  11
BRANCH   8  13
HETATM   13  O1  UNL     1      35.588  36.944  23.029  1.00  0.00    -0.354 OA
HETATM   14  C1  UNL     1      36.965  37.296  23.274  1.00  0.00     0.210 C 
ENDBRANCH   8  13
BRANCH  10  15
HETATM   15  C17 UNL     1      35.986  35.037  20.791  1.00  0.00     0.024 C 
HETATM   16  C18 UNL     1      37.150  35.138  20.279  1.00  0.00     0.057 C 
HETATM   17 BR3  UNL     1      38.862  34.898  21.030  1.00  0.00    -0.064 Br
ENDBRANCH  10  15
ENDBRANCH   2   3
ENDBRANCH   1   2
BRANCH   1  18
HETATM   18  C8  UNL     1      34.892  30.691  19.821  1.00  0.00     0.260 C 
HETATM   19  O4  UNL     1      33.979  29.837  19.751  1.00  0.00    -0.269 OA
HETATM   20  N1  UNL     1      36.223  30.334  19.519  1.00  0.00    -0.266 N 
ATOM     21  H1  UNL     1      36.946  31.050  19.584  1.00  0.00     0.190 HD
BRANCH  20  22
HETATM   22  N2  UNL     1      36.598  29.028  19.131  1.00  0.00    -0.267 N 
HETATM   23  C9  UNL     1      36.712  28.669  17.768  1.00  0.00     0.243 C 
HETATM   24  O5  UNL     1      36.475  29.532  16.893  1.00  0.00    -0.271 OA
ATOM     25  H2  UNL     1      36.791  28.329  19.849  1.00  0.00     0.190 HD
BRANCH  23  26
HETATM   26  C10 UNL     1      37.099  27.311  17.394  1.00  0.00     0.115 C 
HETATM   27  C11 UNL     1      37.628  27.303  15.947  1.00  0.00     0.119 C 
HETATM   28  C12 UNL     1      36.401  27.171  15.148  1.00  0.00     0.219 C 
HETATM   29  O6  UNL     1      36.184  27.523  13.946  1.00  0.00    -0.274 OA
HETATM   30  N3  UNL     1      35.420  26.545  15.972  1.00  0.00    -0.352 N 
HETATM   31  C13 UNL     1      35.989  26.320  17.296  1.00  0.00     0.038 C 
ATOM     32  H3  UNL     1      34.474  26.296  15.682  1.00  0.00     0.163 HD
HETATM   33  C14 UNL     1      36.599  24.924  17.326  1.00  0.00     0.039 C 
HETATM   34  C15 UNL     1      34.920  26.428  18.326  1.00  0.00     0.039 C 
ENDBRANCH  23  26
ENDBRANCH  20  22
ENDBRANCH   1  18
TORSDOF 8
ENDMDL
MODEL 5
REMARK VINA RESULT: -6.935344718      4.046      8.893
REMARK  8 active torsions:
REMARK  status: ('A' for Active; 'I' for Inactive)
REMARK    1  A    between atoms: O1_2  and  C2_3 
REMARK    2  A    between atoms: C4_6  and  O2_7 
REMARK    3  A    between atoms: C6_11  and  O3_12 
REMARK    4  A    between atoms: O3_12  and  C7_13 
REMARK    5  A    between atoms: C7_13  and  C8_14 
REMARK       I    between atoms: C8_14  and  N1_16 
REMARK    6  A    between atoms: N1_16  and  N2_18 
REMARK       I    between atoms: N2_18  and  C9_20 
REMARK    7  A    between atoms: C9_20  and  C10_22 
REMARK    8  A    between atoms: C16_31  and  C17_32 
ROOT
HETATM    1  C7  UNL     1      35.063  29.281  16.861  1.00  0.00     0.280 C 
ENDROOT
BRANCH   1   2
HETATM    2  O3  UNL     1      35.994  28.595  17.636  1.00  0.00    -0.340 OA
BRANCH   2   3
HETATM    3  C6  UNL     1      35.961  27.279  17.988  1.00  0.00     0.102 A 
HETATM    4  C5  UNL     1      36.516  26.304  17.220  1.00  0.00     0.079 A 
HETATM    5  C4  UNL     1      36.467  24.978  17.602  1.00  0.00     0.106 A 
HETATM    6 BR2  UNL     1      37.402  26.696  15.557  1.00  0.00    -0.045 Br
HETATM    7  C3  UNL     1      35.857  24.604  18.776  1.00  0.00     0.079 A 
HETATM    8  C2  UNL     1      35.284  25.618  19.573  1.00  0.00     0.101 A 
HETATM    9 BR1  UNL     1      35.773  22.777  19.333  1.00  0.00    -0.045 Br
HETATM   10  C16 UNL     1      35.318  26.930  19.209  1.00  0.00     0.034 A 
BRANCH   5  11
HETATM   11  O2  UNL     1      37.028  24.011  16.816  1.00  0.00    -0.358 OA
ATOM     12  H2  UNL     1      37.760  24.244  16.257  1.00  0.00     0.217 HD
ENDBRANCH   5  11
BRANCH   8  13
HETATM   13  O1  UNL     1      34.701  25.161  20.761  1.00  0.00    -0.354 OA
HETATM   14  C1  UNL     1      35.409  25.407  21.993  1.00  0.00     0.210 C 
ENDBRANCH   8  13
BRANCH  10  15
HETATM   15  C17 UNL     1      34.628  27.985  19.854  1.00  0.00     0.024 C 
HETATM   16  C18 UNL     1      33.394  28.275  19.995  1.00  0.00     0.057 C 
HETATM   17 BR3  UNL     1      31.836  27.413  19.377  1.00  0.00    -0.064 Br
ENDBRANCH  10  15
ENDBRANCH   2   3
ENDBRANCH   1   2
BRANCH   1  18
HETATM   18  C8  UNL     1      34.867  30.635  17.430  1.00  0.00     0.260 C 
HETATM   19  O4  UNL     1      33.710  31.106  17.504  1.00  0.00    -0.269 OA
HETATM   20  N1  UNL     1      35.971  31.387  17.884  1.00  0.00    -0.266 N 
ATOM     21  H1  UNL     1      36.903  30.978  17.811  1.00  0.00     0.190 HD
BRANCH  20  22
HETATM   22  N2  UNL     1      35.843  32.682  18.434  1.00  0.00    -0.267 N 
HETATM   23  C9  UNL     1      36.529  33.052  19.615  1.00  0.00     0.243 C 
HETATM   24  O5  UNL     1      37.263  32.208  20.177  1.00  0.00    -0.271 OA
ATOM     25  H2  UNL     1      35.244  33.365  17.970  1.00  0.00     0.190 HD
BRANCH  23  26
HETATM   26  C10 UNL     1      36.377  34.397  20.164  1.00  0.00     0.115 C 
HETATM   27  C11 UNL     1      37.641  35.224  19.864  1.00  0.00     0.119 C 
HETATM   28  C12 UNL     1      38.537  34.874  20.975  1.00  0.00     0.219 C 
HETATM   29  O6  UNL     1      39.806  34.912  21.026  1.00  0.00    -0.274 OA
HETATM   30  N3  UNL     1      37.721  34.456  22.067  1.00  0.00    -0.352 N 
HETATM   31  C13 UNL     1      36.323  34.491  21.651  1.00  0.00     0.038 C 
ATOM     32  H3  UNL     1      38.059  34.177  22.988  1.00  0.00     0.163 HD
HETATM   33  C14 UNL     1      35.746  35.853  22.017  1.00  0.00     0.039 C 
HETATM   34  C15 UNL     1      35.566  33.417  22.350  1.00  0.00     0.039 C 
ENDBRANCH  23  26
ENDBRANCH  20  22
ENDBRANCH   1  18
TORSDOF 8
ENDMDL
