MODEL 1
REMARK VINA RESULT: -8.906004681      0.000      0.000
REMARK  7 active torsions:
REMARK  status: ('A' for Active; 'I' for Inactive)
REMARK    1  A    between atoms: C2_2  and  N1_4 
REMARK       I    between atoms: N1_4  and  C4_6 
REMARK       I    between atoms: C4_6  and  N2_8 
REMARK    2  A    between atoms: N2_8  and  C5_10 
REMARK    3  A    between atoms: C7_14  and  C8_15 
REMARK    4  A    between atoms: C9_16  and  N4_17 
REMARK    5  A    between atoms: N4_17  and  S1_19 
REMARK    6  A    between atoms: S1_19  and  C10_22 
REMARK    7  A    between atoms: C19_39  and  C20_40 
REMARK       I    between atoms: C20_40  and  N7_42 
ROOT
HETATM    1  C5  UNL     1      36.511  28.020  16.335  1.00  0.00     0.125 A 
HETATM    2  N3  UNL     1      35.411  28.696  16.707  1.00  0.00    -0.339 N 
ATOM      3  H3  UNL     1      35.289  28.925  17.693  1.00  0.00     0.167 HD
HETATM    4  C6  UNL     1      34.451  29.087  15.820  1.00  0.00     0.070 A 
HETATM    5  C7  UNL     1      33.262  29.772  15.958  1.00  0.00     0.012 A 
HETATM    6  C16 UNL     1      32.690  29.886  14.707  1.00  0.00     0.100 A 
HETATM    7  N6  UNL     1      33.493  29.293  13.813  1.00  0.00    -0.363 N 
ATOM      8  H6  UNL     1      33.321  29.225  12.810  1.00  0.00     0.165 HD
HETATM    9  C17 UNL     1      34.563  28.804  14.461  1.00  0.00     0.060 A 
HETATM   10  C18 UNL     1      35.683  28.114  14.065  1.00  0.00     0.052 A 
HETATM   11  C19 UNL     1      36.649  27.725  14.994  1.00  0.00     0.078 A 
ENDROOT
BRANCH   5  12
HETATM   12  C8  UNL     1      32.717  30.293  17.232  1.00  0.00     0.156 C 
HETATM   13  C9  UNL     1      32.974  29.379  18.411  1.00  0.00     0.212 C 
HETATM   14  C14 UNL     1      31.726  28.688  17.955  1.00  0.00     0.245 C 
HETATM   15  O4  UNL     1      31.201  27.548  17.960  1.00  0.00    -0.271 OA
HETATM   16  N5  UNL     1      31.315  29.976  17.452  1.00  0.00    -0.343 N 
HETATM   17  C15 UNL     1      30.018  30.586  17.287  1.00  0.00     0.153 C 
BRANCH  13  18
HETATM   18  N4  UNL     1      32.774  30.009  19.703  1.00  0.00    -0.299 N 
ATOM     19  H4  UNL     1      31.907  30.435  20.029  1.00  0.00     0.173 HD
BRANCH  18  20
HETATM   20  S1  UNL     1      34.228  29.918  20.581  1.00  0.00     0.268 S 
HETATM   21  O2  UNL     1      33.972  29.545  22.013  1.00  0.00    -0.200 OA
HETATM   22  O3  UNL     1      35.195  28.965  19.926  1.00  0.00    -0.200 OA
BRANCH  20  23
HETATM   23  C10 UNL     1      35.069  31.477  20.605  1.00  0.00     0.145 A 
HETATM   24  S2  UNL     1      36.552  31.949  19.934  1.00  0.00    -0.061 SA
HETATM   25  C11 UNL     1      36.575  33.576  20.432  1.00  0.00     0.099 A 
HETATM   26 CL1  UNL     1      37.814  34.818  20.138  1.00  0.00    -0.074 Cl
HETATM   27  C12 UNL     1      35.401  33.711  21.123  1.00  0.00     0.086 A 
HETATM   28 CL2  UNL     1      34.990  35.299  21.846  1.00  0.00    -0.080 Cl
HETATM   29  C13 UNL     1      34.611  32.612  21.214  1.00  0.00     0.088 A 
HETATM   30 CL3  UNL     1      33.045  32.648  22.091  1.00  0.00    -0.080 Cl
ENDBRANCH  20  23
ENDBRANCH  18  20
ENDBRANCH  13  18
ENDBRANCH   5  12
BRANCH   1  31
HETATM   31  N2  UNL     1      37.428  27.630  17.134  1.00  0.00    -0.294 N 
HETATM   32  C4  UNL     1      37.242  26.671  18.158  1.00  0.00     0.322 C 
HETATM   33  N1  UNL     1      36.838  25.340  17.921  1.00  0.00    -0.339 N 
HETATM   34  O1  UNL     1      37.450  27.029  19.343  1.00  0.00    -0.247 OA
ATOM     35  H1  UNL     1      36.665  25.038  16.963  1.00  0.00     0.164 HD
ATOM     36  H2  UNL     1      38.357  28.036  17.026  1.00  0.00     0.172 HD
BRANCH  33  37
HETATM   37  C2  UNL     1      36.664  24.398  18.990  1.00  0.00     0.078 C 
HETATM   38  C1  UNL     1      37.005  23.008  18.441  1.00  0.00     0.032 C 
HETATM   39  C3  UNL     1      35.208  24.317  19.425  1.00  0.00     0.032 C 
ENDBRANCH  33  37
ENDBRANCH   1  31
BRANCH  11  40
HETATM   40  C20 UNL     1      37.823  26.998  14.514  1.00  0.00     0.256 C 
HETATM   41  O5  UNL     1      38.165  25.915  15.056  1.00  0.00    -0.267 OA
HETATM   42  N7  UNL     1      38.607  27.479  13.438  1.00  0.00    -0.357 N 
HETATM   43  C21 UNL     1      39.775  26.760  12.961  1.00  0.00     0.152 C 
HETATM   44  C22 UNL     1      38.265  28.726  12.768  1.00  0.00     0.152 C 
ENDBRANCH  11  40
TORSDOF 7
ENDMDL
MODEL 2
REMARK VINA RESULT: -8.844710044      0.969      1.033
REMARK  7 active torsions:
REMARK  status: ('A' for Active; 'I' for Inactive)
REMARK    1  A    between atoms: C2_2  and  N1_4 
REMARK       I    between atoms: N1_4  and  C4_6 
REMARK       I    between atoms: C4_6  and  N2_8 
REMARK    2  A    between atoms: N2_8  and  C5_10 
REMARK    3  A    between atoms: C7_14  and  C8_15 
REMARK    4  A    between atoms: C9_16  and  N4_17 
REMARK    5  A    between atoms: N4_17  and  S1_19 
REMARK    6  A    between atoms: S1_19  and  C10_22 
REMARK    7  A    between atoms: C19_39  and  C20_40 
REMARK       I    between atoms: C20_40  and  N7_42 
ROOT
HETATM    1  C5  UNL     1      36.532  27.869  16.102  1.00  0.00     0.125 A 
HETATM    2  N3  UNL     1      35.368  28.454  16.427  1.00  0.00    -0.339 N 
ATOM      3  H3  UNL     1      35.164  28.626  17.411  1.00  0.00     0.167 HD
HETATM    4  C6  UNL     1      34.445  28.829  15.493  1.00  0.00     0.070 A 
HETATM    5  C7  UNL     1      33.207  29.430  15.578  1.00  0.00     0.012 A 
HETATM    6  C16 UNL     1      32.715  29.570  14.296  1.00  0.00     0.100 A 
HETATM    7  N6  UNL     1      33.613  29.074  13.435  1.00  0.00    -0.363 N 
ATOM      8  H6  UNL     1      33.514  29.046  12.420  1.00  0.00     0.165 HD
HETATM    9  C17 UNL     1      34.667  28.621  14.134  1.00  0.00     0.060 A 
HETATM   10  C18 UNL     1      35.855  28.024  13.786  1.00  0.00     0.052 A 
HETATM   11  C19 UNL     1      36.780  27.650  14.762  1.00  0.00     0.078 A 
ENDROOT
BRANCH   5  12
HETATM   12  C8  UNL     1      32.544  29.851  16.832  1.00  0.00     0.156 C 
HETATM   13  C9  UNL     1      32.230  28.696  17.760  1.00  0.00     0.212 C 
HETATM   14  C14 UNL     1      30.986  28.570  16.936  1.00  0.00     0.245 C 
HETATM   15  O4  UNL     1      30.167  27.697  16.557  1.00  0.00    -0.271 OA
HETATM   16  N5  UNL     1      31.101  29.992  16.723  1.00  0.00    -0.343 N 
HETATM   17  C15 UNL     1      30.118  31.025  16.506  1.00  0.00     0.153 C 
BRANCH  13  18
HETATM   18  N4  UNL     1      31.914  29.098  19.118  1.00  0.00    -0.299 N 
ATOM     19  H4  UNL     1      31.042  29.531  19.423  1.00  0.00     0.173 HD
BRANCH  18  20
HETATM   20  S1  UNL     1      33.239  28.724  20.115  1.00  0.00     0.268 S 
HETATM   21  O2  UNL     1      32.787  28.355  21.499  1.00  0.00    -0.200 OA
HETATM   22  O3  UNL     1      34.087  27.638  19.503  1.00  0.00    -0.200 OA
BRANCH  20  23
HETATM   23  C10 UNL     1      34.329  30.109  20.291  1.00  0.00     0.145 A 
HETATM   24  S2  UNL     1      35.866  30.403  19.641  1.00  0.00    -0.061 SA
HETATM   25  C11 UNL     1      36.163  31.937  20.314  1.00  0.00     0.099 A 
HETATM   26 CL1  UNL     1      37.591  32.982  20.129  1.00  0.00    -0.074 Cl
HETATM   27  C12 UNL     1      35.033  32.185  21.044  1.00  0.00     0.086 A 
HETATM   28 CL2  UNL     1      34.897  33.728  21.947  1.00  0.00    -0.080 Cl
HETATM   29  C13 UNL     1      34.071  31.228  21.033  1.00  0.00     0.088 A 
HETATM   30 CL3  UNL     1      32.537  31.424  21.945  1.00  0.00    -0.080 Cl
ENDBRANCH  20  23
ENDBRANCH  18  20
ENDBRANCH  13  18
ENDBRANCH   5  12
BRANCH   1  31
HETATM   31  N2  UNL     1      37.417  27.497  16.945  1.00  0.00    -0.294 N 
HETATM   32  C4  UNL     1      37.192  26.557  17.979  1.00  0.00     0.322 C 
HETATM   33  N1  UNL     1      36.802  25.220  17.752  1.00  0.00    -0.339 N 
HETATM   34  O1  UNL     1      37.351  26.939  19.165  1.00  0.00    -0.247 OA
ATOM     35  H1  UNL     1      36.670  24.900  16.793  1.00  0.00     0.164 HD
ATOM     36  H2  UNL     1      38.348  27.905  16.868  1.00  0.00     0.172 HD
BRANCH  33  37
HETATM   37  C2  UNL     1      36.587  24.298  18.830  1.00  0.00     0.078 C 
HETATM   38  C1  UNL     1      36.963  22.900  18.325  1.00  0.00     0.032 C 
HETATM   39  C3  UNL     1      35.114  24.213  19.202  1.00  0.00     0.032 C 
ENDBRANCH  33  37
ENDBRANCH   1  31
BRANCH  11  40
HETATM   40  C20 UNL     1      38.028  27.024  14.334  1.00  0.00     0.256 C 
HETATM   41  O5  UNL     1      38.462  26.000  14.924  1.00  0.00    -0.267 OA
HETATM   42  N7  UNL     1      38.787  27.538  13.255  1.00  0.00    -0.357 N 
HETATM   43  C21 UNL     1      40.029  26.918  12.829  1.00  0.00     0.152 C 
HETATM   44  C22 UNL     1      38.341  28.720  12.529  1.00  0.00     0.152 C 
ENDBRANCH  11  40
TORSDOF 7
ENDMDL
MODEL 3
REMARK VINA RESULT: -8.755708968      0.893      1.227
REMARK  7 active torsions:
REMARK  status: ('A' for Active; 'I' for Inactive)
REMARK    1  A    between atoms: C2_2  and  N1_4 
REMARK       I    between atoms: N1_4  and  C4_6 
REMARK       I    between atoms: C4_6  and  N2_8 
REMARK    2  A    between atoms: N2_8  and  C5_10 
REMARK    3  A    between atoms: C7_14  and  C8_15 
REMARK    4  A    between atoms: C9_16  and  N4_17 
REMARK    5  A    between atoms: N4_17  and  S1_19 
REMARK    6  A    between atoms: S1_19  and  C10_22 
REMARK    7  A    between atoms: C19_39  and  C20_40 
REMARK       I    between atoms: C20_40  and  N7_42 
ROOT
HETATM    1  C5  UNL     1      36.475  28.001  16.328  1.00  0.00     0.125 A 
HETATM    2  N3  UNL     1      35.364  28.667  16.684  1.00  0.00    -0.339 N 
ATOM      3  H3  UNL     1      35.227  28.899  17.667  1.00  0.00     0.167 HD
HETATM    4  C6  UNL     1      34.412  29.047  15.782  1.00  0.00     0.070 A 
HETATM    5  C7  UNL     1      33.215  29.721  15.902  1.00  0.00     0.012 A 
HETATM    6  C16 UNL     1      32.659  29.826  14.644  1.00  0.00     0.100 A 
HETATM    7  N6  UNL     1      33.479  29.237  13.763  1.00  0.00    -0.363 N 
ATOM      8  H6  UNL     1      33.321  29.164  12.758  1.00  0.00     0.165 HD
HETATM    9  C17 UNL     1      34.545  28.760  14.426  1.00  0.00     0.060 A 
HETATM   10  C18 UNL     1      35.676  28.079  14.047  1.00  0.00     0.052 A 
HETATM   11  C19 UNL     1      36.634  27.702  14.990  1.00  0.00     0.078 A 
ENDROOT
BRANCH   5  12
HETATM   12  C8  UNL     1      32.648  30.242  17.167  1.00  0.00     0.156 C 
HETATM   13  C9  UNL     1      32.977  29.381  18.368  1.00  0.00     0.212 C 
HETATM   14  C14 UNL     1      31.775  28.596  17.946  1.00  0.00     0.245 C 
HETATM   15  O4  UNL     1      31.327  27.424  17.990  1.00  0.00    -0.271 OA
HETATM   16  N5  UNL     1      31.273  29.838  17.412  1.00  0.00    -0.343 N 
HETATM   17  C15 UNL     1      29.937  30.355  17.245  1.00  0.00     0.153 C 
BRANCH  13  18
HETATM   18  N4  UNL     1      32.748  30.034  19.644  1.00  0.00    -0.299 N 
ATOM     19  H4  UNL     1      31.878  30.480  19.937  1.00  0.00     0.173 HD
BRANCH  18  20
HETATM   20  S1  UNL     1      34.172  29.932  20.569  1.00  0.00     0.268 S 
HETATM   21  O2  UNL     1      33.913  29.257  21.885  1.00  0.00    -0.200 OA
HETATM   22  O3  UNL     1      35.267  29.240  19.798  1.00  0.00    -0.200 OA
BRANCH  20  23
HETATM   23  C10 UNL     1      34.820  31.538  20.941  1.00  0.00     0.145 A 
HETATM   24  S2  UNL     1      34.688  32.493  22.335  1.00  0.00    -0.061 SA
HETATM   25  C11 UNL     1      35.593  33.842  21.832  1.00  0.00     0.099 A 
HETATM   26 CL1  UNL     1      35.957  35.339  22.722  1.00  0.00    -0.074 Cl
HETATM   27  C12 UNL     1      35.983  33.506  20.565  1.00  0.00     0.086 A 
HETATM   28 CL2  UNL     1      36.985  34.657  19.624  1.00  0.00    -0.080 Cl
HETATM   29  C13 UNL     1      35.578  32.299  20.096  1.00  0.00     0.088 A 
HETATM   30 CL3  UNL     1      36.019  31.731  18.451  1.00  0.00    -0.080 Cl
ENDBRANCH  20  23
ENDBRANCH  18  20
ENDBRANCH  13  18
ENDBRANCH   5  12
BRANCH   1  31
HETATM   31  N2  UNL     1      37.385  27.621  17.140  1.00  0.00    -0.294 N 
HETATM   32  C4  UNL     1      37.196  26.659  18.161  1.00  0.00     0.322 C 
HETATM   33  N1  UNL     1      36.813  25.323  17.917  1.00  0.00    -0.339 N 
HETATM   34  O1  UNL     1      37.381  27.019  19.350  1.00  0.00    -0.247 OA
ATOM     35  H1  UNL     1      36.659  25.020  16.956  1.00  0.00     0.164 HD
ATOM     36  H2  UNL     1      38.310  28.040  17.047  1.00  0.00     0.172 HD
BRANCH  33  37
HETATM   37  C2  UNL     1      36.635  24.378  18.982  1.00  0.00     0.078 C 
HETATM   38  C1  UNL     1      36.988  22.991  18.433  1.00  0.00     0.032 C 
HETATM   39  C3  UNL     1      35.176  24.288  19.406  1.00  0.00     0.032 C 
ENDBRANCH  33  37
ENDBRANCH   1  31
BRANCH  11  40
HETATM   40  C20 UNL     1      37.820  26.985  14.529  1.00  0.00     0.256 C 
HETATM   41  O5  UNL     1      38.170  25.911  15.084  1.00  0.00    -0.267 OA
HETATM   42  N7  UNL     1      38.609  27.465  13.455  1.00  0.00    -0.357 N 
HETATM   43  C21 UNL     1      39.789  26.755  12.997  1.00  0.00     0.152 C 
HETATM   44  C22 UNL     1      38.259  28.701  12.770  1.00  0.00     0.152 C 
ENDBRANCH  11  40
TORSDOF 7
ENDMDL
MODEL 4
REMARK VINA RESULT: -8.362925319      4.397      6.479
REMARK  7 active torsions:
REMARK  status: ('A' for Active; 'I' for Inactive)
REMARK    1  A    between atoms: C2_2  and  N1_4 
REMARK       I    between atoms: N1_4  and  C4_6 
REMARK       I    between atoms: C4_6  and  N2_8 
REMARK    2  A    between atoms: N2_8  and  C5_10 
REMARK    3  A    between atoms: C7_14  and  C8_15 
REMARK    4  A    between atoms: C9_16  and  N4_17 
REMARK    5  A    between atoms: N4_17  and  S1_19 
REMARK    6  A    between atoms: S1_19  and  C10_22 
REMARK    7  A    between atoms: C19_39  and  C20_40 
REMARK       I    between atoms: C20_40  and  N7_42 
ROOT
HETATM    1  C5  UNL     1      35.196  28.088  16.360  1.00  0.00     0.125 A 
HETATM    2  N3  UNL     1      34.813  27.540  17.525  1.00  0.00    -0.339 N 
ATOM      3  H3  UNL     1      34.125  28.033  18.094  1.00  0.00     0.167 HD
HETATM    4  C6  UNL     1      35.307  26.352  17.979  1.00  0.00     0.070 A 
HETATM    5  C7  UNL     1      35.076  25.606  19.115  1.00  0.00     0.012 A 
HETATM    6  C16 UNL     1      35.865  24.475  19.049  1.00  0.00     0.100 A 
HETATM    7  N6  UNL     1      36.568  24.510  17.909  1.00  0.00    -0.363 N 
ATOM      8  H6  UNL     1      37.234  23.803  17.597  1.00  0.00     0.165 HD
HETATM    9  C17 UNL     1      36.248  25.633  17.245  1.00  0.00     0.060 A 
HETATM   10  C18 UNL     1      36.649  26.180  16.051  1.00  0.00     0.052 A 
HETATM   11  C19 UNL     1      36.128  27.398  15.611  1.00  0.00     0.078 A 
ENDROOT
BRANCH   5  12
HETATM   12  C8  UNL     1      34.136  25.967  20.200  1.00  0.00     0.156 C 
HETATM   13  C9  UNL     1      33.919  24.851  21.200  1.00  0.00     0.212 C 
HETATM   14  C14 UNL     1      32.888  24.379  20.222  1.00  0.00     0.245 C 
HETATM   15  O4  UNL     1      32.349  23.315  19.831  1.00  0.00    -0.271 OA
HETATM   16  N5  UNL     1      32.735  25.767  19.864  1.00  0.00    -0.343 N 
HETATM   17  C15 UNL     1      31.608  26.529  19.384  1.00  0.00     0.153 C 
BRANCH  13  18
HETATM   18  N4  UNL     1      33.299  25.279  22.440  1.00  0.00    -0.299 N 
ATOM     19  H4  UNL     1      32.328  25.119  22.707  1.00  0.00     0.173 HD
BRANCH  18  20
HETATM   20  S1  UNL     1      34.464  26.095  23.374  1.00  0.00     0.268 S 
HETATM   21  O2  UNL     1      35.849  25.608  23.055  1.00  0.00    -0.200 OA
HETATM   22  O3  UNL     1      34.348  27.587  23.198  1.00  0.00    -0.200 OA
BRANCH  20  23
HETATM   23  C10 UNL     1      34.215  25.818  25.105  1.00  0.00     0.145 A 
HETATM   24  S2  UNL     1      32.980  25.006  25.935  1.00  0.00    -0.061 SA
HETATM   25  C11 UNL     1      33.528  25.224  27.530  1.00  0.00     0.099 A 
HETATM   26 CL1  UNL     1      32.793  24.667  29.051  1.00  0.00    -0.074 Cl
HETATM   27  C12 UNL     1      34.685  25.938  27.372  1.00  0.00     0.086 A 
HETATM   28 CL2  UNL     1      35.630  26.405  28.822  1.00  0.00    -0.080 Cl
HETATM   29  C13 UNL     1      35.046  26.250  26.102  1.00  0.00     0.088 A 
HETATM   30 CL3  UNL     1      36.538  27.183  25.749  1.00  0.00    -0.080 Cl
ENDBRANCH  20  23
ENDBRANCH  18  20
ENDBRANCH  13  18
ENDBRANCH   5  12
BRANCH   1  31
HETATM   31  N2  UNL     1      34.764  29.201  15.905  1.00  0.00    -0.294 N 
HETATM   32  C4  UNL     1      34.566  30.363  16.687  1.00  0.00     0.322 C 
HETATM   33  N1  UNL     1      35.597  31.018  17.393  1.00  0.00    -0.339 N 
HETATM   34  O1  UNL     1      33.404  30.836  16.754  1.00  0.00    -0.247 OA
ATOM     35  H1  UNL     1      36.544  30.642  17.347  1.00  0.00     0.164 HD
ATOM     36  H2  UNL     1      34.546  29.255  14.910  1.00  0.00     0.172 HD
BRANCH  33  37
HETATM   37  C2  UNL     1      35.354  32.197  18.173  1.00  0.00     0.078 C 
HETATM   38  C1  UNL     1      35.593  33.409  17.266  1.00  0.00     0.032 C 
HETATM   39  C3  UNL     1      36.362  32.331  19.305  1.00  0.00     0.032 C 
ENDBRANCH  33  37
ENDBRANCH   1  31
BRANCH  11  40
HETATM   40  C20 UNL     1      36.586  27.930  14.330  1.00  0.00     0.256 C 
HETATM   41  O5  UNL     1      35.769  28.454  13.530  1.00  0.00    -0.267 OA
HETATM   42  N7  UNL     1      37.948  27.874  13.946  1.00  0.00    -0.357 N 
HETATM   43  C21 UNL     1      38.405  28.401  12.672  1.00  0.00     0.152 C 
HETATM   44  C22 UNL     1      38.945  27.280  14.825  1.00  0.00     0.152 C 
ENDBRANCH  11  40
TORSDOF 7
ENDMDL
MODEL 5
REMARK VINA RESULT: -8.317984798      2.310      4.729
REMARK  7 active torsions:
REMARK  status: ('A' for Active; 'I' for Inactive)
REMARK    1  A    between atoms: C2_2  and  N1_4 
REMARK       I    between atoms: N1_4  and  C4_6 
REMARK       I    between atoms: C4_6  and  N2_8 
REMARK    2  A    between atoms: N2_8  and  C5_10 
REMARK    3  A    between atoms: C7_14  and  C8_15 
REMARK    4  A    between atoms: C9_16  and  N4_17 
REMARK    5  A    between atoms: N4_17  and  S1_19 
REMARK    6  A    between atoms: S1_19  and  C10_22 
REMARK    7  A    between atoms: C19_39  and  C20_40 
REMARK       I    between atoms: C20_40  and  N7_42 
ROOT
HETATM    1  C5  UNL     1      35.538  27.887  15.799  1.00  0.00     0.125 A 
HETATM    2  N3  UNL     1      34.989  27.477  16.954  1.00  0.00    -0.339 N 
ATOM      3  H3  UNL     1      34.252  28.044  17.373  1.00  0.00     0.167 HD
HETATM    4  C6  UNL     1      35.377  26.334  17.591  1.00  0.00     0.070 A 
HETATM    5  C7  UNL     1      34.975  25.721  18.758  1.00  0.00     0.012 A 
HETATM    6  C16 UNL     1      35.724  24.573  18.915  1.00  0.00     0.100 A 
HETATM    7  N6  UNL     1      36.569  24.468  17.881  1.00  0.00    -0.363 N 
ATOM      8  H6  UNL     1      37.243  23.716  17.735  1.00  0.00     0.165 HD
HETATM    9  C17 UNL     1      36.378  25.519  17.067  1.00  0.00     0.060 A 
HETATM   10  C18 UNL     1      36.949  25.925  15.885  1.00  0.00     0.052 A 
HETATM   11  C19 UNL     1      36.533  27.099  15.256  1.00  0.00     0.078 A 
ENDROOT
BRANCH   5  12
HETATM   12  C8  UNL     1      33.916  26.219  19.666  1.00  0.00     0.156 C 
HETATM   13  C9  UNL     1      34.389  27.323  20.587  1.00  0.00     0.212 C 
HETATM   14  C14 UNL     1      34.851  26.196  21.457  1.00  0.00     0.245 C 
HETATM   15  O4  UNL     1      35.740  25.936  22.304  1.00  0.00    -0.271 OA
HETATM   16  N5  UNL     1      33.764  25.440  20.884  1.00  0.00    -0.343 N 
HETATM   17  C15 UNL     1      32.940  24.376  21.405  1.00  0.00     0.153 C 
BRANCH  13  18
HETATM   18  N4  UNL     1      33.315  28.062  21.224  1.00  0.00    -0.299 N 
ATOM     19  H4  UNL     1      32.881  27.830  22.118  1.00  0.00     0.173 HD
BRANCH  18  20
HETATM   20  S1  UNL     1      32.901  29.380  20.232  1.00  0.00     0.268 S 
HETATM   21  O2  UNL     1      33.138  29.061  18.783  1.00  0.00    -0.200 OA
HETATM   22  O3  UNL     1      31.478  29.813  20.476  1.00  0.00    -0.200 OA
BRANCH  20  23
HETATM   23  C10 UNL     1      33.883  30.806  20.605  1.00  0.00     0.145 A 
HETATM   24  S2  UNL     1      33.509  32.219  21.464  1.00  0.00    -0.061 SA
HETATM   25  C11 UNL     1      35.002  33.024  21.334  1.00  0.00     0.099 A 
HETATM   26 CL1  UNL     1      35.473  34.615  21.976  1.00  0.00    -0.074 Cl
HETATM   27  C12 UNL     1      35.769  32.153  20.609  1.00  0.00     0.086 A 
HETATM   28 CL2  UNL     1      37.463  32.593  20.222  1.00  0.00    -0.080 Cl
HETATM   29  C13 UNL     1      35.183  30.990  20.227  1.00  0.00     0.088 A 
HETATM   30 CL3  UNL     1      36.074  29.757  19.273  1.00  0.00    -0.080 Cl
ENDBRANCH  20  23
ENDBRANCH  18  20
ENDBRANCH  13  18
ENDBRANCH   5  12
BRANCH   1  31
HETATM   31  N2  UNL     1      35.209  28.953  15.177  1.00  0.00    -0.294 N 
HETATM   32  C4  UNL     1      33.879  29.313  14.856  1.00  0.00     0.322 C 
HETATM   33  N1  UNL     1      32.870  29.527  15.819  1.00  0.00    -0.339 N 
HETATM   34  O1  UNL     1      33.583  29.450  13.643  1.00  0.00    -0.247 OA
ATOM     35  H1  UNL     1      33.099  29.418  16.807  1.00  0.00     0.164 HD
ATOM     36  H2  UNL     1      35.955  29.587  14.892  1.00  0.00     0.172 HD
BRANCH  33  37
HETATM   37  C2  UNL     1      31.533  29.895  15.450  1.00  0.00     0.078 C 
HETATM   38  C1  UNL     1      30.966  30.766  16.577  1.00  0.00     0.032 C 
HETATM   39  C3  UNL     1      30.623  28.677  15.381  1.00  0.00     0.032 C 
ENDBRANCH  33  37
ENDBRANCH   1  31
BRANCH  11  40
HETATM   40  C20 UNL     1      37.172  27.479  13.998  1.00  0.00     0.256 C 
HETATM   41  O5  UNL     1      36.473  27.759  12.990  1.00  0.00    -0.267 OA
HETATM   42  N7  UNL     1      38.580  27.544  13.868  1.00  0.00    -0.357 N 
HETATM   43  C21 UNL     1      39.217  27.918  12.619  1.00  0.00     0.152 C 
HETATM   44  C22 UNL     1      39.446  27.231  14.997  1.00  0.00     0.152 C 
ENDBRANCH  11  40
TORSDOF 7
ENDMDL
