MODEL 1
REMARK VINA RESULT: -9.017450964      0.000      0.000
REMARK  7 active torsions:
REMARK  status: ('A' for Active; 'I' for Inactive)
REMARK    1  A    between atoms: C5_5  and  N1_6 
REMARK    2  A    between atoms: N1_6  and  C6_8 
REMARK    3  A    between atoms: C6_8  and  C9_11 
REMARK    4  A    between atoms: C20_29  and  C21_30 
REMARK       I    between atoms: C21_30  and  N3_32 
REMARK    5  A    between atoms: N3_32  and  C22_34 
REMARK    6  A    between atoms: C22_34  and  C23_35 
REMARK       I    between atoms: C23_35  and  N4_37 
REMARK    7  A    between atoms: N4_37  and  C24_39 
ROOT
HETATM    1  C24 UNL     1      38.176  39.516  23.780  1.00  0.00     0.122 A 
HETATM    2  C25 UNL     1      37.946  40.622  22.860  1.00  0.00     0.091 C 
HETATM    3  N5  UNL     1      37.759  41.481  22.124  1.00  0.00    -0.195 NA
HETATM    4  C26 UNL     1      39.638  39.137  23.934  1.00  0.00     0.050 A 
HETATM    5  C27 UNL     1      38.893  39.726  25.083  1.00  0.00     0.050 A 
ENDROOT
BRANCH   1   6
HETATM    6  N4  UNL     1      37.197  38.464  23.698  1.00  0.00    -0.338 N 
HETATM    7  C23 UNL     1      35.888  38.586  24.214  1.00  0.00     0.236 C 
HETATM    8  O4  UNL     1      35.628  39.706  24.768  1.00  0.00    -0.272 OA
ATOM      9  H4  UNL     1      37.461  37.588  23.245  1.00  0.00     0.164 HD
BRANCH   7  10
HETATM   10  C22 UNL     1      34.889  37.533  24.129  1.00  0.00     0.225 C 
BRANCH  10  11
HETATM   11  N3  UNL     1      34.946  36.743  22.916  1.00  0.00    -0.352 N 
HETATM   12  C21 UNL     1      35.467  35.455  22.968  1.00  0.00     0.231 C 
HETATM   13  O3  UNL     1      35.868  35.062  24.137  1.00  0.00    -0.273 OA
ATOM     14  H3  UNL     1      34.608  37.128  22.034  1.00  0.00     0.162 HD
BRANCH  12  15
HETATM   15  C20 UNL     1      35.634  34.463  21.895  1.00  0.00     0.174 C 
HETATM   16  C19 UNL     1      34.308  33.802  21.734  1.00  0.00     0.232 C 
HETATM   17  N2  UNL     1      33.866  32.760  20.844  1.00  0.00    -0.340 N 
HETATM   18  O2  UNL     1      33.383  34.196  22.487  1.00  0.00    -0.273 OA
HETATM   19  C5  UNL     1      34.459  32.375  19.604  1.00  0.00     0.180 C 
ATOM     20  H2  UNL     1      33.037  32.240  21.131  1.00  0.00     0.164 HD
HETATM   21  C4  UNL     1      35.974  32.725  19.705  1.00  0.00     0.052 C 
HETATM   22  C3  UNL     1      36.194  34.175  19.473  1.00  0.00    -0.001 A 
HETATM   23  C2  UNL     1      37.436  34.846  20.018  1.00  0.00    -0.008 A 
HETATM   24  C28 UNL     1      36.106  35.079  20.630  1.00  0.00     0.016 A 
HETATM   25  C1  UNL     1      38.470  33.940  20.581  1.00  0.00     0.011 C 
BRANCH  19  26
HETATM   26  N1  UNL     1      34.376  31.049  19.172  1.00  0.00    -0.391 N 
ATOM     27  H1  UNL     1      34.992  30.364  19.610  1.00  0.00     0.156 HD
BRANCH  26  28
HETATM   28  C6  UNL     1      33.498  30.600  18.172  1.00  0.00     0.048 C 
HETATM   29  C7  UNL     1      32.076  30.610  18.699  1.00  0.00     0.040 C 
HETATM   30  C8  UNL     1      33.559  31.448  16.937  1.00  0.00     0.040 C 
BRANCH  28  31
HETATM   31  C9  UNL     1      33.795  29.148  17.899  1.00  0.00     0.168 C 
HETATM   32  O1  UNL     1      33.799  28.364  19.048  1.00  0.00    -0.340 OA
HETATM   33  C10 UNL     1      34.580  27.252  18.812  1.00  0.00     0.101 A 
HETATM   34  C11 UNL     1      34.730  26.069  19.552  1.00  0.00     0.089 A 
HETATM   35  C15 UNL     1      35.294  27.414  17.642  1.00  0.00     0.009 A 
HETATM   36 CL1  UNL     1      33.830  25.825  21.046  1.00  0.00    -0.080 Cl
HETATM   37  C12 UNL     1      35.583  25.088  19.108  1.00  0.00     0.060 A 
HETATM   38 CL2  UNL     1      35.806  23.585  20.002  1.00  0.00    -0.082 Cl
HETATM   39  C13 UNL     1      36.300  25.248  17.941  1.00  0.00     0.050 A 
HETATM   40  C14 UNL     1      36.143  26.415  17.220  1.00  0.00     0.045 A 
HETATM   41 CL3  UNL     1      37.086  26.557  15.747  1.00  0.00    -0.084 Cl
HETATM   42  C16 UNL     1      34.911  28.736  17.074  1.00  0.00     0.013 C 
HETATM   43  C17 UNL     1      36.157  29.569  17.088  1.00  0.00     0.023 C 
HETATM   44  C18 UNL     1      34.500  28.409  15.628  1.00  0.00     0.023 C 
ENDBRANCH  28  31
ENDBRANCH  26  28
ENDBRANCH  19  26
ENDBRANCH  12  15
ENDBRANCH  10  11
ENDBRANCH   7  10
ENDBRANCH   1   6
TORSDOF 7
ENDMDL
MODEL 2
REMARK VINA RESULT: -8.997658161      4.358     11.019
REMARK  7 active torsions:
REMARK  status: ('A' for Active; 'I' for Inactive)
REMARK    1  A    between atoms: C5_5  and  N1_6 
REMARK    2  A    between atoms: N1_6  and  C6_8 
REMARK    3  A    between atoms: C6_8  and  C9_11 
REMARK    4  A    between atoms: C20_29  and  C21_30 
REMARK       I    between atoms: C21_30  and  N3_32 
REMARK    5  A    between atoms: N3_32  and  C22_34 
REMARK    6  A    between atoms: C22_34  and  C23_35 
REMARK       I    between atoms: C23_35  and  N4_37 
REMARK    7  A    between atoms: N4_37  and  C24_39 
ROOT
HETATM    1  C24 UNL     1      35.701  24.339  18.849  1.00  0.00     0.122 A 
HETATM    2  C25 UNL     1      36.645  23.444  18.192  1.00  0.00     0.091 C 
HETATM    3  N5  UNL     1      37.377  22.741  17.660  1.00  0.00    -0.195 NA
HETATM    4  C26 UNL     1      34.670  23.628  19.706  1.00  0.00     0.050 A 
HETATM    5  C27 UNL     1      35.697  24.503  20.341  1.00  0.00     0.050 A 
ENDROOT
BRANCH   1   6
HETATM    6  N4  UNL     1      35.274  25.447  18.035  1.00  0.00    -0.338 N 
HETATM    7  C23 UNL     1      36.141  26.486  17.628  1.00  0.00     0.236 C 
HETATM    8  O4  UNL     1      37.345  26.376  18.037  1.00  0.00    -0.272 OA
ATOM      9  H4  UNL     1      34.298  25.485  17.739  1.00  0.00     0.164 HD
BRANCH   7  10
HETATM   10  C22 UNL     1      35.721  27.605  16.801  1.00  0.00     0.225 C 
BRANCH  10  11
HETATM   11  N3  UNL     1      34.991  28.638  17.506  1.00  0.00    -0.352 N 
HETATM   12  C21 UNL     1      35.567  29.895  17.655  1.00  0.00     0.231 C 
HETATM   13  O3  UNL     1      36.744  30.034  17.131  1.00  0.00    -0.273 OA
ATOM     14  H3  UNL     1      34.066  28.446  17.890  1.00  0.00     0.162 HD
BRANCH  12  15
HETATM   15  C20 UNL     1      35.043  31.098  18.320  1.00  0.00     0.174 C 
HETATM   16  C19 UNL     1      34.952  30.761  19.769  1.00  0.00     0.232 C 
HETATM   17  N2  UNL     1      34.512  31.536  20.900  1.00  0.00    -0.340 N 
HETATM   18  O2  UNL     1      35.315  29.607  20.108  1.00  0.00    -0.273 OA
HETATM   19  C5  UNL     1      34.443  32.959  20.997  1.00  0.00     0.180 C 
ATOM     20  H2  UNL     1      34.218  31.011  21.724  1.00  0.00     0.164 HD
HETATM   21  C4  UNL     1      34.224  33.496  19.550  1.00  0.00     0.052 C 
HETATM   22  C3  UNL     1      35.505  33.510  18.798  1.00  0.00    -0.001 A 
HETATM   23  C2  UNL     1      35.491  33.474  17.285  1.00  0.00    -0.008 A 
HETATM   24  C28 UNL     1      35.896  32.288  18.079  1.00  0.00     0.016 A 
HETATM   25  C1  UNL     1      34.162  33.638  16.644  1.00  0.00     0.011 C 
BRANCH  19  26
HETATM   26  N1  UNL     1      33.472  33.557  21.803  1.00  0.00    -0.391 N 
ATOM     27  H1  UNL     1      32.507  33.558  21.470  1.00  0.00     0.156 HD
BRANCH  26  28
HETATM   28  C6  UNL     1      33.739  34.158  23.044  1.00  0.00     0.048 C 
HETATM   29  C7  UNL     1      32.440  34.605  23.685  1.00  0.00     0.040 C 
HETATM   30  C8  UNL     1      34.445  33.228  23.986  1.00  0.00     0.040 C 
BRANCH  28  31
HETATM   31  C9  UNL     1      34.504  35.432  22.799  1.00  0.00     0.168 C 
HETATM   32  O1  UNL     1      35.837  35.214  22.462  1.00  0.00    -0.340 OA
HETATM   33  C10 UNL     1      36.557  36.343  22.788  1.00  0.00     0.101 A 
HETATM   34  C11 UNL     1      37.870  36.715  22.459  1.00  0.00     0.089 A 
HETATM   35  C15 UNL     1      35.790  37.188  23.565  1.00  0.00     0.009 A 
HETATM   36 CL1  UNL     1      38.877  35.666  21.465  1.00  0.00    -0.080 Cl
HETATM   37  C12 UNL     1      38.377  37.909  22.911  1.00  0.00     0.060 A 
HETATM   38 CL2  UNL     1      40.019  38.420  22.524  1.00  0.00    -0.082 Cl
HETATM   39  C13 UNL     1      37.614  38.754  23.688  1.00  0.00     0.050 A 
HETATM   40  C14 UNL     1      36.323  38.379  24.005  1.00  0.00     0.045 A 
HETATM   41 CL3  UNL     1      35.406  39.496  25.000  1.00  0.00    -0.084 Cl
HETATM   42  C16 UNL     1      34.455  36.547  23.721  1.00  0.00     0.013 C 
HETATM   43  C17 UNL     1      34.303  36.258  25.185  1.00  0.00     0.023 C 
HETATM   44  C18 UNL     1      33.468  37.643  23.286  1.00  0.00     0.023 C 
ENDBRANCH  28  31
ENDBRANCH  26  28
ENDBRANCH  19  26
ENDBRANCH  12  15
ENDBRANCH  10  11
ENDBRANCH   7  10
ENDBRANCH   1   6
TORSDOF 7
ENDMDL
MODEL 3
REMARK VINA RESULT: -8.905747033      3.111      4.723
REMARK  7 active torsions:
REMARK  status: ('A' for Active; 'I' for Inactive)
REMARK    1  A    between atoms: C5_5  and  N1_6 
REMARK    2  A    between atoms: N1_6  and  C6_8 
REMARK    3  A    between atoms: C6_8  and  C9_11 
REMARK    4  A    between atoms: C20_29  and  C21_30 
REMARK       I    between atoms: C21_30  and  N3_32 
REMARK    5  A    between atoms: N3_32  and  C22_34 
REMARK    6  A    between atoms: C22_34  and  C23_35 
REMARK       I    between atoms: C23_35  and  N4_37 
REMARK    7  A    between atoms: N4_37  and  C24_39 
ROOT
HETATM    1  C24 UNL     1      32.527  33.864  28.077  1.00  0.00     0.122 A 
HETATM    2  C25 UNL     1      31.791  34.897  28.795  1.00  0.00     0.091 C 
HETATM    3  N5  UNL     1      31.228  35.718  29.363  1.00  0.00    -0.195 NA
HETATM    4  C26 UNL     1      32.733  32.589  28.873  1.00  0.00     0.050 A 
HETATM    5  C27 UNL     1      31.862  32.583  27.663  1.00  0.00     0.050 A 
ENDROOT
BRANCH   1   6
HETATM    6  N4  UNL     1      33.616  34.361  27.277  1.00  0.00    -0.338 N 
HETATM    7  C23 UNL     1      33.426  35.093  26.084  1.00  0.00     0.236 C 
HETATM    8  O4  UNL     1      32.208  35.285  25.756  1.00  0.00    -0.272 OA
ATOM      9  H4  UNL     1      34.570  34.175  27.587  1.00  0.00     0.164 HD
BRANCH   7  10
HETATM   10  C22 UNL     1      34.520  35.605  25.274  1.00  0.00     0.225 C 
BRANCH  10  11
HETATM   11  N3  UNL     1      35.151  34.622  24.419  1.00  0.00    -0.352 N 
HETATM   12  C21 UNL     1      35.300  34.895  23.064  1.00  0.00     0.231 C 
HETATM   13  O3  UNL     1      34.846  36.044  22.674  1.00  0.00    -0.273 OA
ATOM     14  H3  UNL     1      35.483  33.738  24.807  1.00  0.00     0.162 HD
BRANCH  12  15
HETATM   15  C20 UNL     1      35.897  34.075  21.998  1.00  0.00     0.174 C 
HETATM   16  C19 UNL     1      34.927  32.976  21.732  1.00  0.00     0.232 C 
HETATM   17  N2  UNL     1      34.966  31.877  20.801  1.00  0.00    -0.340 N 
HETATM   18  O2  UNL     1      33.873  32.970  22.415  1.00  0.00    -0.273 OA
HETATM   19  C5  UNL     1      35.742  31.785  19.607  1.00  0.00     0.180 C 
ATOM     20  H2  UNL     1      34.374  31.076  21.020  1.00  0.00     0.164 HD
HETATM   21  C4  UNL     1      37.008  32.668  19.826  1.00  0.00     0.052 C 
HETATM   22  C3  UNL     1      36.686  34.104  19.624  1.00  0.00    -0.001 A 
HETATM   23  C2  UNL     1      37.548  35.168  20.267  1.00  0.00    -0.008 A 
HETATM   24  C28 UNL     1      36.189  34.868  20.778  1.00  0.00     0.016 A 
HETATM   25  C1  UNL     1      38.804  34.691  20.899  1.00  0.00     0.011 C 
BRANCH  19  26
HETATM   26  N1  UNL     1      36.189  30.540  19.158  1.00  0.00    -0.391 N 
ATOM     27  H1  UNL     1      37.042  30.161  19.571  1.00  0.00     0.156 HD
BRANCH  26  28
HETATM   28  C6  UNL     1      35.538  29.776  18.175  1.00  0.00     0.048 C 
HETATM   29  C7  UNL     1      34.452  30.606  17.521  1.00  0.00     0.040 C 
HETATM   30  C8  UNL     1      36.481  29.293  17.114  1.00  0.00     0.040 C 
BRANCH  28  31
HETATM   31  C9  UNL     1      34.804  28.652  18.858  1.00  0.00     0.168 C 
HETATM   32  O1  UNL     1      34.097  29.064  19.985  1.00  0.00    -0.340 OA
HETATM   33  C10 UNL     1      33.934  27.976  20.816  1.00  0.00     0.101 A 
HETATM   34  C11 UNL     1      33.123  27.808  21.949  1.00  0.00     0.089 A 
HETATM   35  C15 UNL     1      34.733  26.933  20.395  1.00  0.00     0.009 A 
HETATM   36 CL1  UNL     1      32.085  29.115  22.512  1.00  0.00    -0.080 Cl
HETATM   37  C12 UNL     1      33.133  26.612  22.625  1.00  0.00     0.060 A 
HETATM   38 CL2  UNL     1      32.132  26.352  24.054  1.00  0.00    -0.082 Cl
HETATM   39  C13 UNL     1      33.932  25.569  22.209  1.00  0.00     0.050 A 
HETATM   40  C14 UNL     1      34.725  25.745  21.092  1.00  0.00     0.045 A 
HETATM   41 CL3  UNL     1      35.720  24.381  20.616  1.00  0.00    -0.084 Cl
HETATM   42  C16 UNL     1      35.446  27.394  19.172  1.00  0.00     0.013 C 
HETATM   43  C17 UNL     1      36.905  27.403  19.521  1.00  0.00     0.023 C 
HETATM   44  C18 UNL     1      35.149  26.294  18.138  1.00  0.00     0.023 C 
ENDBRANCH  28  31
ENDBRANCH  26  28
ENDBRANCH  19  26
ENDBRANCH  12  15
ENDBRANCH  10  11
ENDBRANCH   7  10
ENDBRANCH   1   6
TORSDOF 7
ENDMDL
MODEL 4
REMARK VINA RESULT: -8.816179484      1.678      2.507
REMARK  7 active torsions:
REMARK  status: ('A' for Active; 'I' for Inactive)
REMARK    1  A    between atoms: C5_5  and  N1_6 
REMARK    2  A    between atoms: N1_6  and  C6_8 
REMARK    3  A    between atoms: C6_8  and  C9_11 
REMARK    4  A    between atoms: C20_29  and  C21_30 
REMARK       I    between atoms: C21_30  and  N3_32 
REMARK    5  A    between atoms: N3_32  and  C22_34 
REMARK    6  A    between atoms: C22_34  and  C23_35 
REMARK       I    between atoms: C23_35  and  N4_37 
REMARK    7  A    between atoms: N4_37  and  C24_39 
ROOT
HETATM    1  C24 UNL     1      36.816  39.774  24.671  1.00  0.00     0.122 A 
HETATM    2  C25 UNL     1      37.557  40.159  23.477  1.00  0.00     0.091 C 
HETATM    3  N5  UNL     1      38.145  40.445  22.535  1.00  0.00    -0.195 NA
HETATM    4  C26 UNL     1      37.534  40.090  25.971  1.00  0.00     0.050 A 
HETATM    5  C27 UNL     1      36.276  40.808  25.617  1.00  0.00     0.050 A 
ENDROOT
BRANCH   1   6
HETATM    6  N4  UNL     1      36.120  38.519  24.557  1.00  0.00    -0.338 N 
HETATM    7  C23 UNL     1      34.814  38.406  24.030  1.00  0.00     0.236 C 
HETATM    8  O4  UNL     1      34.284  39.506  23.660  1.00  0.00    -0.272 OA
ATOM      9  H4  UNL     1      36.592  37.671  24.871  1.00  0.00     0.164 HD
BRANCH   7  10
HETATM   10  C22 UNL     1      34.105  37.143  23.903  1.00  0.00     0.225 C 
BRANCH  10  11
HETATM   11  N3  UNL     1      34.500  36.341  22.764  1.00  0.00    -0.352 N 
HETATM   12  C21 UNL     1      35.456  35.345  22.933  1.00  0.00     0.231 C 
HETATM   13  O3  UNL     1      35.924  35.220  24.135  1.00  0.00    -0.273 OA
ATOM     14  H3  UNL     1      34.082  36.504  21.848  1.00  0.00     0.162 HD
BRANCH  12  15
HETATM   15  C20 UNL     1      36.023  34.407  21.951  1.00  0.00     0.174 C 
HETATM   16  C19 UNL     1      34.953  33.407  21.673  1.00  0.00     0.232 C 
HETATM   17  N2  UNL     1      34.927  32.260  20.802  1.00  0.00    -0.340 N 
HETATM   18  O2  UNL     1      33.865  33.554  22.283  1.00  0.00    -0.273 OA
HETATM   19  C5  UNL     1      35.760  32.017  19.669  1.00  0.00     0.180 C 
ATOM     20  H2  UNL     1      34.235  31.542  21.019  1.00  0.00     0.164 HD
HETATM   21  C4  UNL     1      37.101  32.768  19.930  1.00  0.00     0.052 C 
HETATM   22  C3  UNL     1      36.955  34.217  19.638  1.00  0.00    -0.001 A 
HETATM   23  C2  UNL     1      37.890  35.215  20.285  1.00  0.00    -0.008 A 
HETATM   24  C28 UNL     1      36.477  35.094  20.717  1.00  0.00     0.016 A 
HETATM   25  C1  UNL     1      39.043  34.639  21.024  1.00  0.00     0.011 C 
BRANCH  19  26
HETATM   26  N1  UNL     1      36.091  30.708  19.313  1.00  0.00    -0.391 N 
ATOM     27  H1  UNL     1      36.856  30.255  19.814  1.00  0.00     0.156 HD
BRANCH  26  28
HETATM   28  C6  UNL     1      35.436  29.975  18.310  1.00  0.00     0.048 C 
HETATM   29  C7  UNL     1      34.297  30.795  17.739  1.00  0.00     0.040 C 
HETATM   30  C8  UNL     1      36.359  29.590  17.193  1.00  0.00     0.040 C 
BRANCH  28  31
HETATM   31  C9  UNL     1      34.769  28.786  18.951  1.00  0.00     0.168 C 
HETATM   32  O1  UNL     1      34.110  29.100  20.136  1.00  0.00    -0.340 OA
HETATM   33  C10 UNL     1      34.019  27.956  20.900  1.00  0.00     0.101 A 
HETATM   34  C11 UNL     1      33.273  27.688  22.057  1.00  0.00     0.089 A 
HETATM   35  C15 UNL     1      34.826  26.968  20.371  1.00  0.00     0.009 A 
HETATM   36 CL1  UNL     1      32.228  28.922  22.756  1.00  0.00    -0.080 Cl
HETATM   37  C12 UNL     1      33.350  26.452  22.651  1.00  0.00     0.060 A 
HETATM   38 CL2  UNL     1      32.431  26.067  24.105  1.00  0.00    -0.082 Cl
HETATM   39  C13 UNL     1      34.156  25.464  22.127  1.00  0.00     0.050 A 
HETATM   40  C14 UNL     1      34.886  25.737  20.987  1.00  0.00     0.045 A 
HETATM   41 CL3  UNL     1      35.894  24.439  20.373  1.00  0.00    -0.084 Cl
HETATM   42  C16 UNL     1      35.462  27.530  19.148  1.00  0.00     0.013 C 
HETATM   43  C17 UNL     1      36.936  27.563  19.425  1.00  0.00     0.023 C 
HETATM   44  C18 UNL     1      35.144  26.492  18.058  1.00  0.00     0.023 C 
ENDBRANCH  28  31
ENDBRANCH  26  28
ENDBRANCH  19  26
ENDBRANCH  12  15
ENDBRANCH  10  11
ENDBRANCH   7  10
ENDBRANCH   1   6
TORSDOF 7
ENDMDL
MODEL 5
REMARK VINA RESULT: -8.712496121      3.837     10.149
REMARK  7 active torsions:
REMARK  status: ('A' for Active; 'I' for Inactive)
REMARK    1  A    between atoms: C5_5  and  N1_6 
REMARK    2  A    between atoms: N1_6  and  C6_8 
REMARK    3  A    between atoms: C6_8  and  C9_11 
REMARK    4  A    between atoms: C20_29  and  C21_30 
REMARK       I    between atoms: C21_30  and  N3_32 
REMARK    5  A    between atoms: N3_32  and  C22_34 
REMARK    6  A    between atoms: C22_34  and  C23_35 
REMARK       I    between atoms: C23_35  and  N4_37 
REMARK    7  A    between atoms: N4_37  and  C24_39 
ROOT
HETATM    1  C24 UNL     1      35.720  24.869  18.726  1.00  0.00     0.122 A 
HETATM    2  C25 UNL     1      36.491  23.795  18.114  1.00  0.00     0.091 C 
HETATM    3  N5  UNL     1      37.090  22.954  17.616  1.00  0.00    -0.195 NA
HETATM    4  C26 UNL     1      34.500  24.392  19.492  1.00  0.00     0.050 A 
HETATM    5  C27 UNL     1      35.643  25.016  20.218  1.00  0.00     0.050 A 
ENDROOT
BRANCH   1   6
HETATM    6  N4  UNL     1      35.604  26.052  17.914  1.00  0.00    -0.338 N 
HETATM    7  C23 UNL     1      36.668  26.960  17.717  1.00  0.00     0.236 C 
HETATM    8  O4  UNL     1      37.753  26.660  18.318  1.00  0.00    -0.272 OA
ATOM      9  H4  UNL     1      34.711  26.243  17.459  1.00  0.00     0.164 HD
BRANCH   7  10
HETATM   10  C22 UNL     1      36.563  28.153  16.892  1.00  0.00     0.225 C 
BRANCH  10  11
HETATM   11  N3  UNL     1      36.534  29.398  17.631  1.00  0.00    -0.352 N 
HETATM   12  C21 UNL     1      35.348  30.121  17.698  1.00  0.00     0.231 C 
HETATM   13  O3  UNL     1      34.340  29.597  17.074  1.00  0.00    -0.273 OA
ATOM     14  H3  UNL     1      37.375  29.741  18.096  1.00  0.00     0.162 HD
BRANCH  12  15
HETATM   15  C20 UNL     1      35.059  31.396  18.374  1.00  0.00     0.174 C 
HETATM   16  C19 UNL     1      35.153  31.118  19.835  1.00  0.00     0.232 C 
HETATM   17  N2  UNL     1      34.973  31.974  20.979  1.00  0.00    -0.340 N 
HETATM   18  O2  UNL     1      35.441  29.943  20.173  1.00  0.00    -0.273 OA
HETATM   19  C5  UNL     1      35.068  33.398  21.015  1.00  0.00     0.180 C 
ATOM     20  H2  UNL     1      34.754  31.511  21.862  1.00  0.00     0.164 HD
HETATM   21  C4  UNL     1      34.690  33.908  19.592  1.00  0.00     0.052 C 
HETATM   22  C3  UNL     1      35.836  33.756  18.660  1.00  0.00    -0.001 A 
HETATM   23  C2  UNL     1      35.590  33.672  17.169  1.00  0.00    -0.008 A 
HETATM   24  C28 UNL     1      35.984  32.476  17.951  1.00  0.00     0.016 A 
HETATM   25  C1  UNL     1      34.203  33.961  16.723  1.00  0.00     0.011 C 
BRANCH  19  26
HETATM   26  N1  UNL     1      34.298  34.126  21.925  1.00  0.00    -0.391 N 
ATOM     27  H1  UNL     1      33.288  34.155  21.782  1.00  0.00     0.156 HD
BRANCH  26  28
HETATM   28  C6  UNL     1      34.826  34.821  23.026  1.00  0.00     0.048 C 
HETATM   29  C7  UNL     1      36.339  34.741  23.002  1.00  0.00     0.040 C 
HETATM   30  C8  UNL     1      34.420  36.265  23.035  1.00  0.00     0.040 C 
BRANCH  28  31
HETATM   31  C9  UNL     1      34.423  34.093  24.282  1.00  0.00     0.168 C 
HETATM   32  O1  UNL     1      34.421  32.709  24.137  1.00  0.00    -0.340 OA
HETATM   33  C10 UNL     1      33.561  32.176  25.074  1.00  0.00     0.101 A 
HETATM   34  C11 UNL     1      33.369  30.848  25.483  1.00  0.00     0.089 A 
HETATM   35  C15 UNL     1      32.805  33.177  25.648  1.00  0.00     0.009 A 
HETATM   36 CL1  UNL     1      34.319  29.544  24.777  1.00  0.00    -0.080 Cl
HETATM   37  C12 UNL     1      32.435  30.558  26.448  1.00  0.00     0.060 A 
HETATM   38 CL2  UNL     1      32.157  28.906  26.997  1.00  0.00    -0.082 Cl
HETATM   39  C13 UNL     1      31.676  31.556  27.023  1.00  0.00     0.050 A 
HETATM   40  C14 UNL     1      31.875  32.860  26.613  1.00  0.00     0.045 A 
HETATM   41 CL3  UNL     1      30.876  34.082  27.380  1.00  0.00    -0.084 Cl
HETATM   42  C16 UNL     1      33.246  34.463  25.040  1.00  0.00     0.013 C 
HETATM   43  C17 UNL     1      32.058  35.000  24.298  1.00  0.00     0.023 C 
HETATM   44  C18 UNL     1      33.568  35.353  26.253  1.00  0.00     0.023 C 
ENDBRANCH  28  31
ENDBRANCH  26  28
ENDBRANCH  19  26
ENDBRANCH  12  15
ENDBRANCH  10  11
ENDBRANCH   7  10
ENDBRANCH   1   6
TORSDOF 7
ENDMDL
