MODEL 1
REMARK VINA RESULT: -7.357579162      0.000      0.000
REMARK  5 active torsions:
REMARK  status: ('A' for Active; 'I' for Inactive)
REMARK    1  A    between atoms: C2_2  and  O1_3 
REMARK    2  A    between atoms: O1_3  and  C3_4 
REMARK    3  A    between atoms: C3_4  and  C4_6 
REMARK    4  A    between atoms: C4_6  and  O3_7 
REMARK    5  A    between atoms: C10_15  and  N1_16 
ROOT
HETATM    1  C4  UNL     1      -4.314   2.183  14.162  1.00  0.00     0.258 C 
HETATM    2  O4  UNL     1      -3.398   1.620  13.344  1.00  0.00    -0.338 OA
HETATM    3  C5  UNL     1      -3.699   1.740  11.999  1.00  0.00     0.144 C 
HETATM    4  C6  UNL     1      -3.071   0.630  11.177  1.00  0.00     0.044 C 
HETATM    5  C7  UNL     1      -3.205   3.065  11.579  1.00  0.00     0.001 C 
HETATM    6  C8  UNL     1      -3.221   4.174  12.273  1.00  0.00    -0.021 C 
HETATM    7  C9  UNL     1      -3.664   4.602  13.612  1.00  0.00     0.048 C 
HETATM    8  C10 UNL     1      -4.595   5.775  13.353  1.00  0.00     0.193 C 
HETATM    9  C12 UNL     1      -6.045   5.391  13.527  1.00  0.00     0.034 C 
HETATM   10  C13 UNL     1      -6.156   5.078  14.985  1.00  0.00     0.003 C 
HETATM   11  C14 UNL     1      -5.309   3.959  15.428  1.00  0.00     0.011 C 
HETATM   12  C15 UNL     1      -4.104   3.615  14.576  1.00  0.00     0.068 C 
ENDROOT
BRANCH   1  13
HETATM   13  C3  UNL     1      -4.316   1.322  15.392  1.00  0.00     0.322 C 
HETATM   14  O2  UNL     1      -3.287   1.284  16.137  1.00  0.00    -0.259 OA
BRANCH  13  15
HETATM   15  O1  UNL     1      -5.387   0.568  15.753  1.00  0.00    -0.318 OA
BRANCH  15  16
HETATM   16  C2  UNL     1      -6.000   0.566  17.024  1.00  0.00     0.174 C 
HETATM   17  C1  UNL     1      -7.324   1.297  17.032  1.00  0.00     0.034 C 
ENDBRANCH  15  16
ENDBRANCH  13  15
ENDBRANCH   1  13
BRANCH   1  18
HETATM   18  O3  UNL     1      -5.575   1.985  13.597  1.00  0.00    -0.357 OA
ATOM     19  H3  UNL     1      -5.622   2.624  12.895  1.00  0.00     0.213 HD
ENDBRANCH   1  18
BRANCH   8  20
HETATM   20  N1  UNL     1      -4.445   6.319  12.020  1.00  0.00    -0.074 N 
HETATM   21  C11 UNL     1      -5.584   7.178  11.757  1.00  0.00     0.267 C 
ATOM     22  H12 UNL     1      -3.553   6.795  11.885  1.00  0.00     0.277 HD
ATOM     23  H11 UNL     1      -4.322   5.598  11.309  1.00  0.00     0.277 HD
ENDBRANCH   8  20
TORSDOF 5
ENDMDL
MODEL 2
REMARK VINA RESULT: -6.903645066      1.292      1.526
REMARK  5 active torsions:
REMARK  status: ('A' for Active; 'I' for Inactive)
REMARK    1  A    between atoms: C2_2  and  O1_3 
REMARK    2  A    between atoms: O1_3  and  C3_4 
REMARK    3  A    between atoms: C3_4  and  C4_6 
REMARK    4  A    between atoms: C4_6  and  O3_7 
REMARK    5  A    between atoms: C10_15  and  N1_16 
ROOT
HETATM    1  C4  UNL     1      -4.105   2.538  14.048  1.00  0.00     0.258 C 
HETATM    2  O4  UNL     1      -3.679   1.396  13.466  1.00  0.00    -0.338 OA
HETATM    3  C5  UNL     1      -4.135   1.223  12.171  1.00  0.00     0.144 C 
HETATM    4  C6  UNL     1      -4.198  -0.243  11.785  1.00  0.00     0.044 C 
HETATM    5  C7  UNL     1      -3.209   1.970  11.300  1.00  0.00     0.001 C 
HETATM    6  C8  UNL     1      -2.627   3.113  11.555  1.00  0.00    -0.021 C 
HETATM    7  C9  UNL     1      -2.599   4.084  12.664  1.00  0.00     0.048 C 
HETATM    8  C10 UNL     1      -2.972   5.411  12.024  1.00  0.00     0.193 C 
HETATM    9  C12 UNL     1      -4.390   5.813  12.351  1.00  0.00     0.034 C 
HETATM   10  C13 UNL     1      -4.361   6.051  13.827  1.00  0.00     0.003 C 
HETATM   11  C14 UNL     1      -4.005   4.864  14.621  1.00  0.00     0.011 C 
HETATM   12  C15 UNL     1      -3.235   3.761  13.924  1.00  0.00     0.068 C 
ENDROOT
BRANCH   1  13
HETATM   13  C3  UNL     1      -4.252   2.199  15.503  1.00  0.00     0.322 C 
HETATM   14  O2  UNL     1      -3.279   1.674  16.131  1.00  0.00    -0.259 OA
BRANCH  13  15
HETATM   15  O1  UNL     1      -5.398   2.432  16.195  1.00  0.00    -0.318 OA
BRANCH  15  16
HETATM   16  C2  UNL     1      -5.832   1.722  17.333  1.00  0.00     0.174 C 
HETATM   17  C1  UNL     1      -7.178   1.064  17.130  1.00  0.00     0.034 C 
ENDBRANCH  15  16
ENDBRANCH  13  15
ENDBRANCH   1  13
BRANCH   1  18
HETATM   18  O3  UNL     1      -5.409   2.782  13.614  1.00  0.00    -0.357 OA
ATOM     19  H3  UNL     1      -5.798   1.919  13.539  1.00  0.00     0.213 HD
ENDBRANCH   1  18
BRANCH   8  20
HETATM   20  N1  UNL     1      -2.846   5.387  10.582  1.00  0.00    -0.074 N 
HETATM   21  C11 UNL     1      -3.901   6.215  10.028  1.00  0.00     0.267 C 
ATOM     22  H12 UNL     1      -1.918   5.664  10.261  1.00  0.00     0.277 HD
ATOM     23  H11 UNL     1      -2.845   4.441  10.201  1.00  0.00     0.277 HD
ENDBRANCH   8  20
TORSDOF 5
ENDMDL
MODEL 3
REMARK VINA RESULT: -6.779668645      1.826      4.272
REMARK  5 active torsions:
REMARK  status: ('A' for Active; 'I' for Inactive)
REMARK    1  A    between atoms: C2_2  and  O1_3 
REMARK    2  A    between atoms: O1_3  and  C3_4 
REMARK    3  A    between atoms: C3_4  and  C4_6 
REMARK    4  A    between atoms: C4_6  and  O3_7 
REMARK    5  A    between atoms: C10_15  and  N1_16 
ROOT
HETATM    1  C4  UNL     1      -4.622   2.881  12.991  1.00  0.00     0.258 C 
HETATM    2  O4  UNL     1      -5.763   3.133  13.667  1.00  0.00    -0.338 OA
HETATM    3  C5  UNL     1      -5.560   3.626  14.944  1.00  0.00     0.144 C 
HETATM    4  C6  UNL     1      -6.724   3.310  15.864  1.00  0.00     0.044 C 
HETATM    5  C7  UNL     1      -5.367   5.081  14.802  1.00  0.00     0.001 C 
HETATM    6  C8  UNL     1      -4.744   5.709  13.838  1.00  0.00    -0.021 C 
HETATM    7  C9  UNL     1      -4.033   5.346  12.599  1.00  0.00     0.048 C 
HETATM    8  C10 UNL     1      -2.669   6.005  12.731  1.00  0.00     0.193 C 
HETATM    9  C12 UNL     1      -1.591   5.003  13.068  1.00  0.00     0.034 C 
HETATM   10  C13 UNL     1      -1.523   4.132  11.854  1.00  0.00     0.003 C 
HETATM   11  C14 UNL     1      -2.772   3.410  11.560  1.00  0.00     0.011 C 
HETATM   12  C15 UNL     1      -4.058   3.978  12.126  1.00  0.00     0.068 C 
ENDROOT
BRANCH   1  13
HETATM   13  C3  UNL     1      -4.940   1.700  12.121  1.00  0.00     0.322 C 
HETATM   14  O2  UNL     1      -5.648   1.857  11.077  1.00  0.00    -0.259 OA
BRANCH  13  15
HETATM   15  O1  UNL     1      -4.497   0.446  12.402  1.00  0.00    -0.318 OA
BRANCH  15  16
HETATM   16  C2  UNL     1      -4.121  -0.526  11.452  1.00  0.00     0.174 C 
HETATM   17  C1  UNL     1      -2.770  -0.242  10.833  1.00  0.00     0.034 C 
ENDBRANCH  15  16
ENDBRANCH  13  15
ENDBRANCH   1  13
BRANCH   1  18
HETATM   18  O3  UNL     1      -3.679   2.400  13.900  1.00  0.00    -0.357 OA
ATOM     19  H3  UNL     1      -3.433   3.162  14.411  1.00  0.00     0.213 HD
ENDBRANCH   1  18
BRANCH   8  20
HETATM   20  N1  UNL     1      -2.645   7.032  13.751  1.00  0.00    -0.074 N 
HETATM   21  C11 UNL     1      -1.353   7.690  13.691  1.00  0.00     0.267 C 
ATOM     22  H12 UNL     1      -3.424   7.686  13.672  1.00  0.00     0.277 HD
ATOM     23  H11 UNL     1      -2.862   6.673  14.680  1.00  0.00     0.277 HD
ENDBRANCH   8  20
TORSDOF 5
ENDMDL
MODEL 4
REMARK VINA RESULT: -6.572492610      2.402      4.023
REMARK  5 active torsions:
REMARK  status: ('A' for Active; 'I' for Inactive)
REMARK    1  A    between atoms: C2_2  and  O1_3 
REMARK    2  A    between atoms: O1_3  and  C3_4 
REMARK    3  A    between atoms: C3_4  and  C4_6 
REMARK    4  A    between atoms: C4_6  and  O3_7 
REMARK    5  A    between atoms: C10_15  and  N1_16 
ROOT
HETATM    1  C4  UNL     1      -3.851   2.469  12.338  1.00  0.00     0.258 C 
HETATM    2  O4  UNL     1      -3.607   1.158  12.547  1.00  0.00    -0.338 OA
HETATM    3  C5  UNL     1      -3.611   0.396  11.391  1.00  0.00     0.144 C 
HETATM    4  C6  UNL     1      -3.967  -1.052  11.670  1.00  0.00     0.044 C 
HETATM    5  C7  UNL     1      -2.262   0.517  10.809  1.00  0.00     0.001 C 
HETATM    6  C8  UNL     1      -1.495   1.576  10.795  1.00  0.00    -0.021 C 
HETATM    7  C9  UNL     1      -1.570   2.967  11.278  1.00  0.00     0.048 C 
HETATM    8  C10 UNL     1      -1.284   3.817  10.050  1.00  0.00     0.193 C 
HETATM    9  C12 UNL     1      -2.540   4.452   9.503  1.00  0.00     0.034 C 
HETATM   10  C13 UNL     1      -2.959   5.398  10.582  1.00  0.00     0.003 C 
HETATM   11  C14 UNL     1      -3.273   4.748  11.865  1.00  0.00     0.011 C 
HETATM   12  C15 UNL     1      -2.672   3.381  12.121  1.00  0.00     0.068 C 
ENDROOT
BRANCH   1  13
HETATM   13  C3  UNL     1      -4.591   2.925  13.562  1.00  0.00     0.322 C 
HETATM   14  O2  UNL     1      -4.027   2.864  14.700  1.00  0.00    -0.259 OA
BRANCH  13  15
HETATM   15  O1  UNL     1      -5.859   3.410  13.510  1.00  0.00    -0.318 OA
BRANCH  15  16
HETATM   16  C2  UNL     1      -6.392   4.413  14.347  1.00  0.00     0.174 C 
HETATM   17  C1  UNL     1      -6.381   5.778  13.698  1.00  0.00     0.034 C 
ENDBRANCH  15  16
ENDBRANCH  13  15
ENDBRANCH   1  13
BRANCH   1  18
HETATM   18  O3  UNL     1      -4.786   2.575  11.307  1.00  0.00    -0.357 OA
ATOM     19  H3  UNL     1      -5.349   3.293  11.572  1.00  0.00     0.213 HD
ENDBRANCH   1  18
BRANCH   8  20
HETATM   20  N1  UNL     1      -0.675   3.058   8.978  1.00  0.00    -0.074 N 
HETATM   21  C11 UNL     1      -0.529   3.939   7.835  1.00  0.00     0.267 C 
ATOM     22  H12 UNL     1       0.203   2.619   9.254  1.00  0.00     0.277 HD
ATOM     23  H11 UNL     1      -1.189   2.205   8.757  1.00  0.00     0.277 HD
ENDBRANCH   8  20
TORSDOF 5
ENDMDL
MODEL 5
REMARK VINA RESULT: -6.542302883      2.382      3.844
REMARK  5 active torsions:
REMARK  status: ('A' for Active; 'I' for Inactive)
REMARK    1  A    between atoms: C2_2  and  O1_3 
REMARK    2  A    between atoms: O1_3  and  C3_4 
REMARK    3  A    between atoms: C3_4  and  C4_6 
REMARK    4  A    between atoms: C4_6  and  O3_7 
REMARK    5  A    between atoms: C10_15  and  N1_16 
ROOT
HETATM    1  C4  UNL     1      -3.752   2.427  12.317  1.00  0.00     0.258 C 
HETATM    2  O4  UNL     1      -3.506   1.109  12.477  1.00  0.00    -0.338 OA
HETATM    3  C5  UNL     1      -3.549   0.383  11.300  1.00  0.00     0.144 C 
HETATM    4  C6  UNL     1      -3.899  -1.072  11.545  1.00  0.00     0.044 C 
HETATM    5  C7  UNL     1      -2.219   0.519  10.678  1.00  0.00     0.001 C 
HETATM    6  C8  UNL     1      -1.449   1.577  10.672  1.00  0.00    -0.021 C 
HETATM    7  C9  UNL     1      -1.505   2.952  11.200  1.00  0.00     0.048 C 
HETATM    8  C10 UNL     1      -1.256   3.839   9.990  1.00  0.00     0.193 C 
HETATM    9  C12 UNL     1      -2.527   4.493   9.503  1.00  0.00     0.034 C 
HETATM   10  C13 UNL     1      -2.908   5.406  10.623  1.00  0.00     0.003 C 
HETATM   11  C14 UNL     1      -3.183   4.718  11.895  1.00  0.00     0.011 C 
HETATM   12  C15 UNL     1      -2.578   3.342  12.090  1.00  0.00     0.068 C 
ENDROOT
BRANCH   1  13
HETATM   13  C3  UNL     1      -4.451   2.847  13.577  1.00  0.00     0.322 C 
HETATM   14  O2  UNL     1      -5.668   3.213  13.532  1.00  0.00    -0.259 OA
BRANCH  13  15
HETATM   15  O1  UNL     1      -3.833   2.854  14.787  1.00  0.00    -0.318 OA
BRANCH  15  16
HETATM   16  C2  UNL     1      -4.258   2.148  15.932  1.00  0.00     0.174 C 
HETATM   17  C1  UNL     1      -4.434   0.669  15.672  1.00  0.00     0.034 C 
ENDBRANCH  15  16
ENDBRANCH  13  15
ENDBRANCH   1  13
BRANCH   1  18
HETATM   18  O3  UNL     1      -4.719   2.566  11.320  1.00  0.00    -0.357 OA
ATOM     19  H3  UNL     1      -4.354   3.210  10.725  1.00  0.00     0.213 HD
ENDBRANCH   1  18
BRANCH   8  20
HETATM   20  N1  UNL     1      -0.684   3.112   8.877  1.00  0.00    -0.074 N 
HETATM   21  C11 UNL     1      -0.562   4.030   7.760  1.00  0.00     0.267 C 
ATOM     22  H12 UNL     1       0.199   2.658   9.113  1.00  0.00     0.277 HD
ATOM     23  H11 UNL     1      -1.210   2.271   8.642  1.00  0.00     0.277 HD
ENDBRANCH   8  20
TORSDOF 5
ENDMDL
