MODEL 1
REMARK VINA RESULT: -7.591967321      0.000      0.000
REMARK  4 active torsions:
REMARK  status: ('A' for Active; 'I' for Inactive)
REMARK    1  A    between atoms: C2_2  and  O1_3 
REMARK    2  A    between atoms: O1_3  and  C3_4 
REMARK    3  A    between atoms: C3_4  and  C4_6 
REMARK    4  A    between atoms: C4_6  and  O3_7 
ROOT
HETATM    1  C4  UNL     1      -4.258   1.240  15.421  1.00  0.00     0.170 C 
HETATM    2  C5  UNL     1      -3.981  -0.058  14.718  1.00  0.00     0.216 C 
HETATM    3  O4  UNL     1      -4.603  -0.129  13.490  1.00  0.00    -0.387 OA
HETATM    4  C6  UNL     1      -3.997   0.861  12.680  1.00  0.00     0.175 C 
HETATM    5  C7  UNL     1      -4.577   2.174  13.107  1.00  0.00     0.045 C 
HETATM    6  C8  UNL     1      -4.834   2.301  14.562  1.00  0.00     0.041 C 
HETATM    7  C9  UNL     1      -4.203   3.634  14.945  1.00  0.00     0.011 C 
HETATM    8  C10 UNL     1      -4.161   4.422  13.631  1.00  0.00     0.032 C 
HETATM    9  C11 UNL     1      -3.771   3.360  12.656  1.00  0.00     0.035 C 
HETATM   10  C12 UNL     1      -4.159   3.681  11.230  1.00  0.00     0.031 C 
HETATM   11  C13 UNL     1      -3.354   4.763  10.621  1.00  0.00     0.007 C 
HETATM   12  C14 UNL     1      -2.110   5.136  11.343  1.00  0.00     0.044 C 
HETATM   13  C15 UNL     1      -1.526   4.103  12.224  1.00  0.00     0.056 C 
HETATM   14  N1  UNL     1      -2.369   3.061  12.654  1.00  0.00    -0.393 N 
ATOM     15  H1  UNL     1      -2.007   2.152  12.945  1.00  0.00     0.159 HD
ENDROOT
BRANCH   1  16
HETATM   16  C3  UNL     1      -5.198   0.936  16.543  1.00  0.00     0.296 C 
HETATM   17  O2  UNL     1      -5.930  -0.083  16.454  1.00  0.00    -0.262 OA
BRANCH  16  18
HETATM   18  O1  UNL     1      -5.301   1.724  17.677  1.00  0.00    -0.319 OA
BRANCH  18  19
HETATM   19  C2  UNL     1      -6.585   2.200  18.107  1.00  0.00     0.174 C 
HETATM   20  C1  UNL     1      -7.166   3.165  17.107  1.00  0.00     0.034 C 
ENDBRANCH  18  19
ENDBRANCH  16  18
ENDBRANCH   1  16
BRANCH   1  21
HETATM   21  O3  UNL     1      -3.050   1.639  16.024  1.00  0.00    -0.377 OA
ATOM     22  H3  UNL     1      -2.414   0.968  15.804  1.00  0.00     0.211 HD
ENDBRANCH   1  21
TORSDOF 4
ENDMDL
MODEL 2
REMARK VINA RESULT: -6.803172066      1.976      2.896
REMARK  4 active torsions:
REMARK  status: ('A' for Active; 'I' for Inactive)
REMARK    1  A    between atoms: C2_2  and  O1_3 
REMARK    2  A    between atoms: O1_3  and  C3_4 
REMARK    3  A    between atoms: C3_4  and  C4_6 
REMARK    4  A    between atoms: C4_6  and  O3_7 
ROOT
HETATM    1  C4  UNL     1      -4.234   2.885  14.690  1.00  0.00     0.170 C 
HETATM    2  C5  UNL     1      -5.677   2.991  14.285  1.00  0.00     0.216 C 
HETATM    3  O4  UNL     1      -6.183   4.257  14.488  1.00  0.00    -0.387 OA
HETATM    4  C6  UNL     1      -5.490   5.109  13.596  1.00  0.00     0.175 C 
HETATM    5  C7  UNL     1      -4.140   5.350  14.199  1.00  0.00     0.045 C 
HETATM    6  C8  UNL     1      -3.549   4.182  14.897  1.00  0.00     0.041 C 
HETATM    7  C9  UNL     1      -2.135   4.081  14.339  1.00  0.00     0.011 C 
HETATM    8  C10 UNL     1      -1.828   5.495  13.833  1.00  0.00     0.032 C 
HETATM    9  C11 UNL     1      -3.133   5.886  13.220  1.00  0.00     0.035 C 
HETATM   10  C12 UNL     1      -3.326   7.381  13.115  1.00  0.00     0.031 C 
HETATM   11  C13 UNL     1      -2.469   8.023  12.092  1.00  0.00     0.007 C 
HETATM   12  C14 UNL     1      -1.815   7.108  11.122  1.00  0.00     0.044 C 
HETATM   13  C15 UNL     1      -2.466   5.797  10.913  1.00  0.00     0.056 C 
HETATM   14  N1  UNL     1      -3.346   5.340  11.912  1.00  0.00    -0.393 N 
ATOM     15  H1  UNL     1      -4.086   4.665  11.717  1.00  0.00     0.159 HD
ENDROOT
BRANCH   1  16
HETATM   16  C3  UNL     1      -4.194   2.088  15.955  1.00  0.00     0.296 C 
HETATM   17  O2  UNL     1      -3.236   1.293  16.133  1.00  0.00    -0.262 OA
BRANCH  16  18
HETATM   18  O1  UNL     1      -5.163   2.184  16.939  1.00  0.00    -0.319 OA
BRANCH  18  19
HETATM   19  C2  UNL     1      -5.873   1.011  17.366  1.00  0.00     0.174 C 
HETATM   20  C1  UNL     1      -7.338   1.117  17.037  1.00  0.00     0.034 C 
ENDBRANCH  18  19
ENDBRANCH  16  18
ENDBRANCH   1  16
BRANCH   1  21
HETATM   21  O3  UNL     1      -3.597   2.095  13.714  1.00  0.00    -0.377 OA
ATOM     22  H3  UNL     1      -3.645   2.591  12.904  1.00  0.00     0.211 HD
ENDBRANCH   1  21
TORSDOF 4
ENDMDL
MODEL 3
REMARK VINA RESULT: -6.629377593      3.201      4.975
REMARK  4 active torsions:
REMARK  status: ('A' for Active; 'I' for Inactive)
REMARK    1  A    between atoms: C2_2  and  O1_3 
REMARK    2  A    between atoms: O1_3  and  C3_4 
REMARK    3  A    between atoms: C3_4  and  C4_6 
REMARK    4  A    between atoms: C4_6  and  O3_7 
ROOT
HETATM    1  C4  UNL     1      -4.008   1.127  11.399  1.00  0.00     0.170 C 
HETATM    2  C5  UNL     1      -5.073   2.039  11.937  1.00  0.00     0.216 C 
HETATM    3  O4  UNL     1      -4.562   2.986  12.798  1.00  0.00    -0.387 OA
HETATM    4  C6  UNL     1      -3.726   3.821  12.018  1.00  0.00     0.175 C 
HETATM    5  C7  UNL     1      -2.453   3.063  11.799  1.00  0.00     0.045 C 
HETATM    6  C8  UNL     1      -2.620   1.602  11.606  1.00  0.00     0.041 C 
HETATM    7  C9  UNL     1      -1.807   1.288  10.356  1.00  0.00     0.011 C 
HETATM    8  C10 UNL     1      -0.788   2.430  10.273  1.00  0.00     0.032 C 
HETATM    9  C11 UNL     1      -1.620   3.605  10.671  1.00  0.00     0.035 C 
HETATM   10  C12 UNL     1      -0.808   4.766  11.199  1.00  0.00     0.031 C 
HETATM   11  C13 UNL     1      -0.024   5.469  10.158  1.00  0.00     0.007 C 
HETATM   12  C14 UNL     1      -0.388   5.164   8.750  1.00  0.00     0.044 C 
HETATM   13  C15 UNL     1      -1.761   4.666   8.519  1.00  0.00     0.056 C 
HETATM   14  N1  UNL     1      -2.448   4.113   9.617  1.00  0.00    -0.393 N 
ATOM     15  H1  UNL     1      -3.466   4.077   9.659  1.00  0.00     0.159 HD
ENDROOT
BRANCH   1  16
HETATM   16  C3  UNL     1      -4.190  -0.198  12.069  1.00  0.00     0.296 C 
HETATM   17  O2  UNL     1      -4.400  -0.220  13.309  1.00  0.00    -0.262 OA
BRANCH  16  18
HETATM   18  O1  UNL     1      -4.139  -1.402  11.388  1.00  0.00    -0.319 OA
BRANCH  18  19
HETATM   19  C2  UNL     1      -2.896  -2.110  11.272  1.00  0.00     0.174 C 
HETATM   20  C1  UNL     1      -3.125  -3.597  11.208  1.00  0.00     0.034 C 
ENDBRANCH  18  19
ENDBRANCH  16  18
ENDBRANCH   1  16
BRANCH   1  21
HETATM   21  O3  UNL     1      -4.304   0.917  10.040  1.00  0.00    -0.377 OA
ATOM     22  H3  UNL     1      -5.121   0.431  10.021  1.00  0.00     0.211 HD
ENDBRANCH   1  21
TORSDOF 4
ENDMDL
MODEL 4
REMARK VINA RESULT: -6.609244378      2.677      4.828
REMARK  4 active torsions:
REMARK  status: ('A' for Active; 'I' for Inactive)
REMARK    1  A    between atoms: C2_2  and  O1_3 
REMARK    2  A    between atoms: O1_3  and  C3_4 
REMARK    3  A    between atoms: C3_4  and  C4_6 
REMARK    4  A    between atoms: C4_6  and  O3_7 
ROOT
HETATM    1  C4  UNL     1      -4.448   1.632  11.628  1.00  0.00     0.170 C 
HETATM    2  C5  UNL     1      -4.590   1.270  13.079  1.00  0.00     0.216 C 
HETATM    3  O4  UNL     1      -3.552   1.759  13.842  1.00  0.00    -0.387 OA
HETATM    4  C6  UNL     1      -3.663   3.170  13.805  1.00  0.00     0.175 C 
HETATM    5  C7  UNL     1      -3.133   3.603  12.473  1.00  0.00     0.045 C 
HETATM    6  C8  UNL     1      -3.451   2.692  11.346  1.00  0.00     0.041 C 
HETATM    7  C9  UNL     1      -4.007   3.607  10.262  1.00  0.00     0.011 C 
HETATM    8  C10 UNL     1      -3.431   4.986  10.602  1.00  0.00     0.032 C 
HETATM    9  C11 UNL     1      -3.541   4.999  12.092  1.00  0.00     0.035 C 
HETATM   10  C12 UNL     1      -2.589   5.967  12.757  1.00  0.00     0.031 C 
HETATM   11  C13 UNL     1      -2.948   7.390  12.557  1.00  0.00     0.007 C 
HETATM   12  C14 UNL     1      -4.316   7.651  12.041  1.00  0.00     0.044 C 
HETATM   13  C15 UNL     1      -5.324   6.599  12.288  1.00  0.00     0.056 C 
HETATM   14  N1  UNL     1      -4.856   5.302  12.574  1.00  0.00    -0.393 N 
ATOM     15  H1  UNL     1      -5.416   4.623  13.090  1.00  0.00     0.159 HD
ENDROOT
BRANCH   1  16
HETATM   16  C3  UNL     1      -4.068   0.380  10.902  1.00  0.00     0.296 C 
HETATM   17  O2  UNL     1      -4.512   0.202   9.739  1.00  0.00    -0.262 OA
BRANCH  16  18
HETATM   18  O1  UNL     1      -3.249  -0.592  11.451  1.00  0.00    -0.319 OA
BRANCH  18  19
HETATM   19  C2  UNL     1      -3.742  -1.928  11.632  1.00  0.00     0.174 C 
HETATM   20  C1  UNL     1      -2.718  -2.944  11.201  1.00  0.00     0.034 C 
ENDBRANCH  18  19
ENDBRANCH  16  18
ENDBRANCH   1  16
BRANCH   1  21
HETATM   21  O3  UNL     1      -5.733   1.972  11.167  1.00  0.00    -0.377 OA
ATOM     22  H3  UNL     1      -6.330   1.357  11.579  1.00  0.00     0.211 HD
ENDBRANCH   1  21
TORSDOF 4
ENDMDL
MODEL 5
REMARK VINA RESULT: -6.504134296      1.618      1.871
REMARK  4 active torsions:
REMARK  status: ('A' for Active; 'I' for Inactive)
REMARK    1  A    between atoms: C2_2  and  O1_3 
REMARK    2  A    between atoms: O1_3  and  C3_4 
REMARK    3  A    between atoms: C3_4  and  C4_6 
REMARK    4  A    between atoms: C4_6  and  O3_7 
ROOT
HETATM    1  C4  UNL     1      -4.484   1.779  14.664  1.00  0.00     0.170 C 
HETATM    2  C5  UNL     1      -4.048   1.021  13.443  1.00  0.00     0.216 C 
HETATM    3  O4  UNL     1      -4.707   1.439  12.307  1.00  0.00    -0.387 OA
HETATM    4  C6  UNL     1      -4.294   2.773  12.076  1.00  0.00     0.175 C 
HETATM    5  C7  UNL     1      -5.045   3.626  13.051  1.00  0.00     0.045 C 
HETATM    6  C8  UNL     1      -5.252   3.016  14.387  1.00  0.00     0.041 C 
HETATM    7  C9  UNL     1      -4.812   4.093  15.370  1.00  0.00     0.011 C 
HETATM    8  C10 UNL     1      -4.948   5.401  14.582  1.00  0.00     0.032 C 
HETATM    9  C11 UNL     1      -4.447   4.994  13.234  1.00  0.00     0.035 C 
HETATM   10  C12 UNL     1      -4.944   5.880  12.115  1.00  0.00     0.031 C 
HETATM   11  C13 UNL     1      -4.338   7.231  12.110  1.00  0.00     0.007 C 
HETATM   12  C14 UNL     1      -3.134   7.409  12.961  1.00  0.00     0.044 C 
HETATM   13  C15 UNL     1      -2.361   6.187  13.271  1.00  0.00     0.056 C 
HETATM   14  N1  UNL     1      -3.018   4.949  13.136  1.00  0.00    -0.393 N 
ATOM     15  H1  UNL     1      -2.510   4.078  12.978  1.00  0.00     0.159 HD
ENDROOT
BRANCH   1  16
HETATM   16  C3  UNL     1      -5.317   0.844  15.483  1.00  0.00     0.296 C 
HETATM   17  O2  UNL     1      -4.854  -0.295  15.748  1.00  0.00    -0.262 OA
BRANCH  16  18
HETATM   18  O1  UNL     1      -6.573   1.174  15.962  1.00  0.00    -0.319 OA
BRANCH  18  19
HETATM   19  C2  UNL     1      -6.888   0.976  17.348  1.00  0.00     0.174 C 
HETATM   20  C1  UNL     1      -6.225   2.019  18.208  1.00  0.00     0.034 C 
ENDBRANCH  18  19
ENDBRANCH  16  18
ENDBRANCH   1  16
BRANCH   1  21
HETATM   21  O3  UNL     1      -3.325   2.029  15.421  1.00  0.00    -0.377 OA
ATOM     22  H3  UNL     1      -2.702   1.354  15.177  1.00  0.00     0.211 HD
ENDBRANCH   1  21
TORSDOF 4
ENDMDL
