MODEL 1
REMARK VINA RESULT: -8.142364081      0.000      0.000
REMARK  11 active torsions:
REMARK  status: ('A' for Active; 'I' for Inactive)
REMARK    1  A    between atoms: C2_2  and  N1_3 
REMARK    2  A    between atoms: N1_3  and  C3_4 
REMARK    3  A    between atoms: N1_3  and  C13_17 
REMARK    4  A    between atoms: C3_4  and  C4_5 
REMARK    5  A    between atoms: C4_5  and  N2_6 
REMARK    6  A    between atoms: N2_6  and  C5_9 
REMARK    7  A    between atoms: C13_17  and  N3_19 
REMARK    8  A    between atoms: N3_19  and  C14_21 
REMARK    9  A    between atoms: C14_21  and  C15_22 
REMARK   10  A    between atoms: C15_22  and  C16_23 
REMARK   11  A    between atoms: C16_23  and  N4_24 
ROOT
HETATM    1  N1  UNL     1      34.606  81.184  -1.100  1.00  0.00    -0.357 N 
ENDROOT
BRANCH   1   2
HETATM    2  C2  UNL     1      35.040  80.859  -2.454  1.00  0.00     0.120 C 
HETATM    3  C1  UNL     1      35.859  79.571  -2.484  1.00  0.00     0.026 C 
ENDBRANCH   1   2
BRANCH   1   4
HETATM    4  C3  UNL     1      34.745  80.278  -0.017  1.00  0.00     0.152 C 
BRANCH   4   5
HETATM    5  C4  UNL     1      33.700  79.219   0.070  1.00  0.00     0.253 C 
BRANCH   5   6
HETATM    6  N2  UNL     1      34.184  77.923   0.402  1.00  0.00    -0.065 N 
ATOM      7  H22 UNL     1      34.920  77.611  -0.231  1.00  0.00     0.278 HD
ATOM      8  H21 UNL     1      34.726  77.922   1.266  1.00  0.00     0.278 HD
BRANCH   6   9
HETATM    9  C5  UNL     1      33.049  76.978   0.450  1.00  0.00     0.218 C 
HETATM   10  C6  UNL     1      32.717  76.603  -0.984  1.00  0.00    -0.057 C 
HETATM   11  C7  UNL     1      33.853  76.206  -1.887  1.00  0.00     0.045 C 
HETATM   12  C8  UNL     1      31.508  76.616  -1.478  1.00  0.00    -0.022 C 
HETATM   13  C9  UNL     1      30.298  77.011  -0.670  1.00  0.00     0.028 C 
HETATM   14  C10 UNL     1      30.663  76.731   0.781  1.00  0.00     0.010 C 
HETATM   15  C11 UNL     1      31.868  77.619   1.105  1.00  0.00     0.016 C 
HETATM   16  C12 UNL     1      32.060  77.747   2.581  1.00  0.00     0.012 C 
ENDBRANCH   6   9
ENDBRANCH   5   6
ENDBRANCH   4   5
ENDBRANCH   1   4
BRANCH   1  17
HETATM   17  C13 UNL     1      34.057  82.500  -0.844  1.00  0.00     0.169 C 
HETATM   18  S1  UNL     1      34.788  83.815  -1.514  1.00  0.00    -0.041 SA
BRANCH  17  19
HETATM   19  N3  UNL     1      32.920  82.651  -0.044  1.00  0.00    -0.367 N 
ATOM     20  H3  UNL     1      32.240  81.903   0.092  1.00  0.00     0.161 HD
BRANCH  19  21
HETATM   21  C14 UNL     1      32.781  83.990   0.591  1.00  0.00     0.123 C 
BRANCH  21  22
HETATM   22  C15 UNL     1      31.445  84.525   0.255  1.00  0.00     0.050 C 
BRANCH  22  23
HETATM   23  C16 UNL     1      30.688  85.231   1.329  1.00  0.00     0.274 C 
BRANCH  23  24
HETATM   24  N4  UNL     1      29.364  85.576   0.937  1.00  0.00     0.088 N 
HETATM   25  C17 UNL     1      29.436  86.505  -0.250  1.00  0.00     0.272 C 
HETATM   26  C18 UNL     1      28.015  86.875  -0.537  1.00  0.00     0.030 C 
HETATM   27  C19 UNL     1      27.014  85.981   0.171  1.00  0.00     0.003 C 
HETATM   28  C20 UNL     1      27.172  86.005   1.677  1.00  0.00     0.030 C 
HETATM   29  C21 UNL     1      28.621  86.364   1.933  1.00  0.00     0.272 C 
ENDBRANCH  23  24
ENDBRANCH  22  23
ENDBRANCH  21  22
ENDBRANCH  19  21
ENDBRANCH  17  19
ENDBRANCH   1  17
TORSDOF 11
ENDMDL
MODEL 2
REMARK VINA RESULT: -8.130515225      2.021      3.019
REMARK  11 active torsions:
REMARK  status: ('A' for Active; 'I' for Inactive)
REMARK    1  A    between atoms: C2_2  and  N1_3 
REMARK    2  A    between atoms: N1_3  and  C3_4 
REMARK    3  A    between atoms: N1_3  and  C13_17 
REMARK    4  A    between atoms: C3_4  and  C4_5 
REMARK    5  A    between atoms: C4_5  and  N2_6 
REMARK    6  A    between atoms: N2_6  and  C5_9 
REMARK    7  A    between atoms: C13_17  and  N3_19 
REMARK    8  A    between atoms: N3_19  and  C14_21 
REMARK    9  A    between atoms: C14_21  and  C15_22 
REMARK   10  A    between atoms: C15_22  and  C16_23 
REMARK   11  A    between atoms: C16_23  and  N4_24 
ROOT
HETATM    1  N1  UNL     1      34.262  82.343  -0.585  1.00  0.00    -0.357 N 
ENDROOT
BRANCH   1   2
HETATM    2  C2  UNL     1      34.994  82.846  -1.743  1.00  0.00     0.120 C 
HETATM    3  C1  UNL     1      34.395  84.154  -2.255  1.00  0.00     0.026 C 
ENDBRANCH   1   2
BRANCH   1   4
HETATM    4  C3  UNL     1      34.328  80.988  -0.170  1.00  0.00     0.152 C 
BRANCH   4   5
HETATM    5  C4  UNL     1      34.047  79.980  -1.232  1.00  0.00     0.253 C 
BRANCH   5   6
HETATM    6  N2  UNL     1      33.981  78.633  -0.779  1.00  0.00    -0.065 N 
ATOM      7  H22 UNL     1      34.653  78.441  -0.036  1.00  0.00     0.278 HD
ATOM      8  H21 UNL     1      33.128  78.442  -0.254  1.00  0.00     0.278 HD
BRANCH   6   9
HETATM    9  C5  UNL     1      34.145  77.724  -1.932  1.00  0.00     0.218 C 
HETATM   10  C6  UNL     1      35.563  77.903  -2.445  1.00  0.00    -0.057 C 
HETATM   11  C7  UNL     1      36.682  77.883  -1.440  1.00  0.00     0.045 C 
HETATM   12  C8  UNL     1      35.865  78.084  -3.704  1.00  0.00    -0.022 C 
HETATM   13  C9  UNL     1      34.825  78.137  -4.794  1.00  0.00     0.028 C 
HETATM   14  C10 UNL     1      33.637  77.344  -4.269  1.00  0.00     0.010 C 
HETATM   15  C11 UNL     1      33.160  78.063  -3.003  1.00  0.00     0.016 C 
HETATM   16  C12 UNL     1      31.777  77.637  -2.633  1.00  0.00     0.012 C 
ENDBRANCH   6   9
ENDBRANCH   5   6
ENDBRANCH   4   5
ENDBRANCH   1   4
BRANCH   1  17
HETATM   17  C13 UNL     1      33.477  83.275   0.199  1.00  0.00     0.169 C 
HETATM   18  S1  UNL     1      34.232  84.195   1.338  1.00  0.00    -0.041 SA
BRANCH  17  19
HETATM   19  N3  UNL     1      32.101  83.397  -0.013  1.00  0.00    -0.367 N 
ATOM     20  H3  UNL     1      31.497  82.592  -0.181  1.00  0.00     0.161 HD
BRANCH  19  21
HETATM   21  C14 UNL     1      31.586  84.793   0.026  1.00  0.00     0.123 C 
BRANCH  21  22
HETATM   22  C15 UNL     1      30.565  84.880   1.090  1.00  0.00     0.050 C 
BRANCH  22  23
HETATM   23  C16 UNL     1      29.844  86.175   1.258  1.00  0.00     0.274 C 
BRANCH  23  24
HETATM   24  N4  UNL     1      28.652  86.249   0.484  1.00  0.00     0.088 N 
HETATM   25  C17 UNL     1      28.773  87.399  -0.485  1.00  0.00     0.272 C 
HETATM   26  C18 UNL     1      27.455  87.450  -1.191  1.00  0.00     0.030 C 
HETATM   27  C19 UNL     1      26.621  86.199  -0.981  1.00  0.00     0.003 C 
HETATM   28  C20 UNL     1      26.320  85.937   0.479  1.00  0.00     0.030 C 
HETATM   29  C21 UNL     1      27.445  86.587   1.255  1.00  0.00     0.272 C 
ENDBRANCH  23  24
ENDBRANCH  22  23
ENDBRANCH  21  22
ENDBRANCH  19  21
ENDBRANCH  17  19
ENDBRANCH   1  17
TORSDOF 11
ENDMDL
MODEL 3
REMARK VINA RESULT: -7.949268532      1.846      3.288
REMARK  11 active torsions:
REMARK  status: ('A' for Active; 'I' for Inactive)
REMARK    1  A    between atoms: C2_2  and  N1_3 
REMARK    2  A    between atoms: N1_3  and  C3_4 
REMARK    3  A    between atoms: N1_3  and  C13_17 
REMARK    4  A    between atoms: C3_4  and  C4_5 
REMARK    5  A    between atoms: C4_5  and  N2_6 
REMARK    6  A    between atoms: N2_6  and  C5_9 
REMARK    7  A    between atoms: C13_17  and  N3_19 
REMARK    8  A    between atoms: N3_19  and  C14_21 
REMARK    9  A    between atoms: C14_21  and  C15_22 
REMARK   10  A    between atoms: C15_22  and  C16_23 
REMARK   11  A    between atoms: C16_23  and  N4_24 
ROOT
HETATM    1  N1  UNL     1      33.450  83.699   0.009  1.00  0.00    -0.357 N 
ENDROOT
BRANCH   1   2
HETATM    2  C2  UNL     1      34.518  84.225  -0.835  1.00  0.00     0.120 C 
HETATM    3  C1  UNL     1      34.006  84.565  -2.233  1.00  0.00     0.026 C 
ENDBRANCH   1   2
BRANCH   1   4
HETATM    4  C3  UNL     1      33.306  82.315   0.282  1.00  0.00     0.152 C 
BRANCH   4   5
HETATM    5  C4  UNL     1      34.232  81.416  -0.465  1.00  0.00     0.253 C 
BRANCH   5   6
HETATM    6  N2  UNL     1      33.594  80.408  -1.241  1.00  0.00    -0.065 N 
ATOM      7  H22 UNL     1      32.587  80.378  -1.085  1.00  0.00     0.278 HD
ATOM      8  H21 UNL     1      33.580  80.635  -2.235  1.00  0.00     0.278 HD
BRANCH   6   9
HETATM    9  C5  UNL     1      34.241  79.107  -0.972  1.00  0.00     0.218 C 
HETATM   10  C6  UNL     1      34.717  78.559  -2.307  1.00  0.00    -0.057 C 
HETATM   11  C7  UNL     1      35.479  79.486  -3.214  1.00  0.00     0.045 C 
HETATM   12  C8  UNL     1      34.495  77.338  -2.714  1.00  0.00    -0.022 C 
HETATM   13  C9  UNL     1      33.731  76.329  -1.895  1.00  0.00     0.028 C 
HETATM   14  C10 UNL     1      33.891  76.768  -0.447  1.00  0.00     0.010 C 
HETATM   15  C11 UNL     1      33.266  78.164  -0.344  1.00  0.00     0.016 C 
HETATM   16  C12 UNL     1      32.991  78.525   1.079  1.00  0.00     0.012 C 
ENDBRANCH   6   9
ENDBRANCH   5   6
ENDBRANCH   4   5
ENDBRANCH   1   4
BRANCH   1  17
HETATM   17  C13 UNL     1      32.533  84.632   0.631  1.00  0.00     0.169 C 
HETATM   18  S1  UNL     1      32.899  85.243   2.117  1.00  0.00    -0.041 SA
BRANCH  17  19
HETATM   19  N3  UNL     1      31.357  85.013  -0.022  1.00  0.00    -0.367 N 
ATOM     20  H3  UNL     1      31.238  84.933  -1.032  1.00  0.00     0.161 HD
BRANCH  19  21
HETATM   21  C14 UNL     1      30.294  85.546   0.872  1.00  0.00     0.123 C 
BRANCH  21  22
HETATM   22  C15 UNL     1      29.226  86.122   0.029  1.00  0.00     0.050 C 
BRANCH  22  23
HETATM   23  C16 UNL     1      28.044  86.719   0.716  1.00  0.00     0.274 C 
BRANCH  23  24
HETATM   24  N4  UNL     1      26.910  86.837  -0.136  1.00  0.00     0.088 N 
HETATM   25  C17 UNL     1      26.510  85.459  -0.604  1.00  0.00     0.272 C 
HETATM   26  C18 UNL     1      25.374  85.688  -1.551  1.00  0.00     0.030 C 
HETATM   27  C19 UNL     1      24.799  87.090  -1.460  1.00  0.00     0.003 C 
HETATM   28  C20 UNL     1      25.827  88.162  -1.751  1.00  0.00     0.030 C 
HETATM   29  C21 UNL     1      27.168  87.556  -1.395  1.00  0.00     0.272 C 
ENDBRANCH  23  24
ENDBRANCH  22  23
ENDBRANCH  21  22
ENDBRANCH  19  21
ENDBRANCH  17  19
ENDBRANCH   1  17
TORSDOF 11
ENDMDL
MODEL 4
REMARK VINA RESULT: -7.939418686      1.500      2.767
REMARK  11 active torsions:
REMARK  status: ('A' for Active; 'I' for Inactive)
REMARK    1  A    between atoms: C2_2  and  N1_3 
REMARK    2  A    between atoms: N1_3  and  C3_4 
REMARK    3  A    between atoms: N1_3  and  C13_17 
REMARK    4  A    between atoms: C3_4  and  C4_5 
REMARK    5  A    between atoms: C4_5  and  N2_6 
REMARK    6  A    between atoms: N2_6  and  C5_9 
REMARK    7  A    between atoms: C13_17  and  N3_19 
REMARK    8  A    between atoms: N3_19  and  C14_21 
REMARK    9  A    between atoms: C14_21  and  C15_22 
REMARK   10  A    between atoms: C15_22  and  C16_23 
REMARK   11  A    between atoms: C16_23  and  N4_24 
ROOT
HETATM    1  N1  UNL     1      34.189  82.469  -0.482  1.00  0.00    -0.357 N 
ENDROOT
BRANCH   1   2
HETATM    2  C2  UNL     1      35.029  82.965  -1.567  1.00  0.00     0.120 C 
HETATM    3  C1  UNL     1      34.376  84.146  -2.282  1.00  0.00     0.026 C 
ENDBRANCH   1   2
BRANCH   1   4
HETATM    4  C3  UNL     1      34.147  81.099  -0.115  1.00  0.00     0.152 C 
BRANCH   4   5
HETATM    5  C4  UNL     1      35.334  80.293  -0.518  1.00  0.00     0.253 C 
BRANCH   5   6
HETATM    6  N2  UNL     1      35.105  78.892  -0.611  1.00  0.00    -0.065 N 
ATOM      7  H22 UNL     1      35.903  78.394  -1.006  1.00  0.00     0.278 HD
ATOM      8  H21 UNL     1      35.092  78.440   0.304  1.00  0.00     0.278 HD
BRANCH   6   9
HETATM    9  C5  UNL     1      33.863  78.651  -1.372  1.00  0.00     0.218 C 
HETATM   10  C6  UNL     1      33.013  77.694  -0.553  1.00  0.00    -0.057 C 
HETATM   11  C7  UNL     1      32.829  77.995   0.909  1.00  0.00     0.045 C 
HETATM   12  C8  UNL     1      32.445  76.624  -1.042  1.00  0.00    -0.022 C 
HETATM   13  C9  UNL     1      32.574  76.218  -2.488  1.00  0.00     0.028 C 
HETATM   14  C10 UNL     1      32.858  77.502  -3.253  1.00  0.00     0.010 C 
HETATM   15  C11 UNL     1      34.179  78.052  -2.704  1.00  0.00     0.016 C 
HETATM   16  C12 UNL     1      34.768  79.061  -3.635  1.00  0.00     0.012 C 
ENDBRANCH   6   9
ENDBRANCH   5   6
ENDBRANCH   4   5
ENDBRANCH   1   4
BRANCH   1  17
HETATM   17  C13 UNL     1      33.404  83.420   0.278  1.00  0.00     0.169 C 
HETATM   18  S1  UNL     1      34.136  84.284   1.476  1.00  0.00    -0.041 SA
BRANCH  17  19
HETATM   19  N3  UNL     1      32.047  83.606  -0.003  1.00  0.00    -0.367 N 
ATOM     20  H3  UNL     1      31.585  83.166  -0.798  1.00  0.00     0.161 HD
BRANCH  19  21
HETATM   21  C14 UNL     1      31.332  84.498   0.951  1.00  0.00     0.123 C 
BRANCH  21  22
HETATM   22  C15 UNL     1      30.490  85.428   0.171  1.00  0.00     0.050 C 
BRANCH  22  23
HETATM   23  C16 UNL     1      29.376  86.120   0.882  1.00  0.00     0.274 C 
BRANCH  23  24
HETATM   24  N4  UNL     1      28.219  86.284   0.069  1.00  0.00     0.088 N 
HETATM   25  C17 UNL     1      28.349  87.574  -0.704  1.00  0.00     0.272 C 
HETATM   26  C18 UNL     1      27.063  87.702  -1.459  1.00  0.00     0.030 C 
HETATM   27  C19 UNL     1      26.260  86.415  -1.486  1.00  0.00     0.003 C 
HETATM   28  C20 UNL     1      25.900  85.922  -0.100  1.00  0.00     0.030 C 
HETATM   29  C21 UNL     1      26.968  86.470   0.822  1.00  0.00     0.272 C 
ENDBRANCH  23  24
ENDBRANCH  22  23
ENDBRANCH  21  22
ENDBRANCH  19  21
ENDBRANCH  17  19
ENDBRANCH   1  17
TORSDOF 11
ENDMDL
MODEL 5
REMARK VINA RESULT: -7.900114630      2.028      3.270
REMARK  11 active torsions:
REMARK  status: ('A' for Active; 'I' for Inactive)
REMARK    1  A    between atoms: C2_2  and  N1_3 
REMARK    2  A    between atoms: N1_3  and  C3_4 
REMARK    3  A    between atoms: N1_3  and  C13_17 
REMARK    4  A    between atoms: C3_4  and  C4_5 
REMARK    5  A    between atoms: C4_5  and  N2_6 
REMARK    6  A    between atoms: N2_6  and  C5_9 
REMARK    7  A    between atoms: C13_17  and  N3_19 
REMARK    8  A    between atoms: N3_19  and  C14_21 
REMARK    9  A    between atoms: C14_21  and  C15_22 
REMARK   10  A    between atoms: C15_22  and  C16_23 
REMARK   11  A    between atoms: C16_23  and  N4_24 
ROOT
HETATM    1  N1  UNL     1      34.245  82.091  -0.595  1.00  0.00    -0.357 N 
ENDROOT
BRANCH   1   2
HETATM    2  C2  UNL     1      35.068  82.495  -1.730  1.00  0.00     0.120 C 
HETATM    3  C1  UNL     1      34.546  83.781  -2.368  1.00  0.00     0.026 C 
ENDBRANCH   1   2
BRANCH   1   4
HETATM    4  C3  UNL     1      34.162  80.746  -0.155  1.00  0.00     0.152 C 
BRANCH   4   5
HETATM    5  C4  UNL     1      35.268  79.855  -0.606  1.00  0.00     0.253 C 
BRANCH   5   6
HETATM    6  N2  UNL     1      34.855  78.585  -1.097  1.00  0.00    -0.065 N 
ATOM      7  H22 UNL     1      35.452  77.828  -0.762  1.00  0.00     0.278 HD
ATOM      8  H21 UNL     1      33.979  78.274  -0.677  1.00  0.00     0.278 HD
BRANCH   6   9
HETATM    9  C5  UNL     1      34.785  78.632  -2.571  1.00  0.00     0.218 C 
HETATM   10  C6  UNL     1      33.533  77.877  -2.985  1.00  0.00    -0.057 C 
HETATM   11  C7  UNL     1      32.251  78.196  -2.265  1.00  0.00     0.045 C 
HETATM   12  C8  UNL     1      33.508  76.964  -3.919  1.00  0.00    -0.022 C 
HETATM   13  C9  UNL     1      34.735  76.554  -4.695  1.00  0.00     0.028 C 
HETATM   14  C10 UNL     1      35.671  77.753  -4.647  1.00  0.00     0.010 C 
HETATM   15  C11 UNL     1      35.996  77.992  -3.169  1.00  0.00     0.016 C 
HETATM   16  C12 UNL     1      37.205  78.856  -3.018  1.00  0.00     0.012 C 
ENDBRANCH   6   9
ENDBRANCH   5   6
ENDBRANCH   4   5
ENDBRANCH   1   4
BRANCH   1  17
HETATM   17  C13 UNL     1      33.525  83.112   0.138  1.00  0.00     0.169 C 
HETATM   18  S1  UNL     1      34.342  84.038   1.229  1.00  0.00    -0.041 SA
BRANCH  17  19
HETATM   19  N3  UNL     1      32.159  83.312  -0.080  1.00  0.00    -0.367 N 
ATOM     20  H3  UNL     1      31.520  82.549  -0.300  1.00  0.00     0.161 HD
BRANCH  19  21
HETATM   21  C14 UNL     1      31.712  84.728   0.034  1.00  0.00     0.123 C 
BRANCH  21  22
HETATM   22  C15 UNL     1      30.637  84.794   1.045  1.00  0.00     0.050 C 
BRANCH  22  23
HETATM   23  C16 UNL     1      29.945  86.101   1.240  1.00  0.00     0.274 C 
BRANCH  23  24
HETATM   24  N4  UNL     1      28.739  86.205   0.492  1.00  0.00     0.088 N 
HETATM   25  C17 UNL     1      28.859  87.369  -0.461  1.00  0.00     0.272 C 
HETATM   26  C18 UNL     1      27.528  87.451  -1.140  1.00  0.00     0.030 C 
HETATM   27  C19 UNL     1      26.678  86.211  -0.932  1.00  0.00     0.003 C 
HETATM   28  C20 UNL     1      26.403  85.930   0.530  1.00  0.00     0.030 C 
HETATM   29  C21 UNL     1      27.554  86.550   1.293  1.00  0.00     0.272 C 
ENDBRANCH  23  24
ENDBRANCH  22  23
ENDBRANCH  21  22
ENDBRANCH  19  21
ENDBRANCH  17  19
ENDBRANCH   1  17
TORSDOF 11
ENDMDL
