MODEL 1
REMARK VINA RESULT: -8.913931604      0.000      0.000
REMARK  10 active torsions:
REMARK  status: ('A' for Active; 'I' for Inactive)
REMARK    1  A    between atoms: C2_2  and  C3_3 
REMARK    2  A    between atoms: C3_3  and  C4_4 
REMARK    3  A    between atoms: C4_4  and  C5_5 
REMARK    4  A    between atoms: C5_5  and  C6_6 
REMARK    5  A    between atoms: C6_6  and  C7_7 
REMARK    6  A    between atoms: C7_7  and  C8_8 
REMARK    7  A    between atoms: C8_8  and  N1_9 
REMARK    8  A    between atoms: C10_14  and  N3_15 
REMARK       I    between atoms: N3_15  and  C11_17 
REMARK    9  A    between atoms: C11_17  and  C12_19 
REMARK   10  A    between atoms: C12_19  and  C13_20 
ROOT
HETATM    1  N1  UNL     1      32.537  83.160   0.062  1.00  0.00    -0.375 N 
ATOM      2  H1  UNL     1      32.149  82.463   0.697  1.00  0.00     0.161 HD
HETATM    3  C9  UNL     1      33.521  82.728  -0.543  1.00  0.00     0.135 A 
HETATM    4  N2  UNL     1      33.894  81.440  -0.256  1.00  0.00    -0.175 N 
ATOM      5  H2  UNL     1      33.343  80.922   0.428  1.00  0.00     0.186 HD
HETATM    6  C10 UNL     1      34.929  80.826  -0.817  1.00  0.00     0.686 A 
HETATM    7  N4  UNL     1      35.666  81.492  -1.722  1.00  0.00    -0.200 N 
ATOM      8  H4  UNL     1      36.463  81.027  -2.158  1.00  0.00     0.183 HD
HETATM    9  C16 UNL     1      35.378  82.753  -2.064  1.00  0.00     0.129 A 
HETATM   10  C17 UNL     1      34.287  83.387  -1.467  1.00  0.00     0.071 A 
HETATM   11 BR1  UNL     1      33.917  85.193  -1.991  1.00  0.00    -0.046 Br
ENDROOT
BRANCH   1  12
HETATM   12  C8  UNL     1      31.804  84.373   0.104  1.00  0.00     0.121 C 
BRANCH  12  13
HETATM   13  C7  UNL     1      31.741  84.975   1.468  1.00  0.00     0.020 C 
BRANCH  13  14
HETATM   14  C6  UNL     1      30.633  85.817   1.872  1.00  0.00     0.002 C 
BRANCH  14  15
HETATM   15  C5  UNL     1      29.232  85.576   1.573  1.00  0.00     0.000 C 
BRANCH  15  16
HETATM   16  C4  UNL     1      28.342  86.680   1.114  1.00  0.00     0.000 C 
BRANCH  16  17
HETATM   17  C3  UNL     1      28.710  86.957  -0.362  1.00  0.00    -0.000 C 
BRANCH  17  18
HETATM   18  C2  UNL     1      27.424  87.313  -1.080  1.00  0.00    -0.005 C 
HETATM   19  C1  UNL     1      26.444  86.185  -1.039  1.00  0.00     0.005 C 
ENDBRANCH  17  18
ENDBRANCH  16  17
ENDBRANCH  15  16
ENDBRANCH  14  15
ENDBRANCH  13  14
ENDBRANCH  12  13
ENDBRANCH   1  12
BRANCH   6  20
HETATM   20  N3  UNL     1      35.222  79.595  -0.493  1.00  0.00    -0.159 N 
HETATM   21  C11 UNL     1      36.103  78.833  -1.318  1.00  0.00     0.236 C 
HETATM   22  O1  UNL     1      37.342  78.998  -1.177  1.00  0.00    -0.273 OA
ATOM     23  H3  UNL     1      34.823  79.180   0.349  1.00  0.00     0.187 HD
BRANCH  21  24
HETATM   24  C12 UNL     1      35.557  77.878  -2.306  1.00  0.00     0.107 C 
BRANCH  24  25
HETATM   25  C13 UNL     1      35.975  78.295  -3.699  1.00  0.00    -0.014 C 
HETATM   26  C14 UNL     1      37.053  77.388  -4.204  1.00  0.00     0.010 C 
HETATM   27  C15 UNL     1      34.779  78.290  -4.628  1.00  0.00     0.010 C 
ENDBRANCH  24  25
ENDBRANCH  21  24
ENDBRANCH   6  20
TORSDOF 10
ENDMDL
MODEL 2
REMARK VINA RESULT: -8.752679301      0.930      1.177
REMARK  10 active torsions:
REMARK  status: ('A' for Active; 'I' for Inactive)
REMARK    1  A    between atoms: C2_2  and  C3_3 
REMARK    2  A    between atoms: C3_3  and  C4_4 
REMARK    3  A    between atoms: C4_4  and  C5_5 
REMARK    4  A    between atoms: C5_5  and  C6_6 
REMARK    5  A    between atoms: C6_6  and  C7_7 
REMARK    6  A    between atoms: C7_7  and  C8_8 
REMARK    7  A    between atoms: C8_8  and  N1_9 
REMARK    8  A    between atoms: C10_14  and  N3_15 
REMARK       I    between atoms: N3_15  and  C11_17 
REMARK    9  A    between atoms: C11_17  and  C12_19 
REMARK   10  A    between atoms: C12_19  and  C13_20 
ROOT
HETATM    1  N1  UNL     1      32.448  83.276  -0.030  1.00  0.00    -0.375 N 
ATOM      2  H1  UNL     1      32.030  82.626   0.635  1.00  0.00     0.161 HD
HETATM    3  C9  UNL     1      33.457  82.803  -0.557  1.00  0.00     0.135 A 
HETATM    4  N2  UNL     1      33.813  81.538  -0.163  1.00  0.00    -0.175 N 
ATOM      5  H2  UNL     1      33.231  81.071   0.532  1.00  0.00     0.186 HD
HETATM    6  C10 UNL     1      34.870  80.885  -0.630  1.00  0.00     0.686 A 
HETATM    7  N4  UNL     1      35.650  81.485  -1.547  1.00  0.00    -0.200 N 
ATOM      8  H4  UNL     1      36.464  80.990  -1.911  1.00  0.00     0.183 HD
HETATM    9  C16 UNL     1      35.381  82.718  -1.990  1.00  0.00     0.129 A 
HETATM   10  C17 UNL     1      34.267  83.393  -1.491  1.00  0.00     0.071 A 
HETATM   11 BR1  UNL     1      33.926  85.156  -2.159  1.00  0.00    -0.046 Br
ENDROOT
BRANCH   1  12
HETATM   12  C8  UNL     1      31.718  84.489  -0.109  1.00  0.00     0.121 C 
BRANCH  12  13
HETATM   13  C7  UNL     1      31.057  84.861   1.176  1.00  0.00     0.020 C 
BRANCH  13  14
HETATM   14  C6  UNL     1      29.985  85.835   1.220  1.00  0.00     0.002 C 
BRANCH  14  15
HETATM   15  C5  UNL     1      29.244  86.333   0.074  1.00  0.00     0.000 C 
BRANCH  15  16
HETATM   16  C4  UNL     1      27.805  86.704   0.190  1.00  0.00     0.000 C 
BRANCH  16  17
HETATM   17  C3  UNL     1      27.420  87.391  -1.140  1.00  0.00    -0.000 C 
BRANCH  17  18
HETATM   18  C2  UNL     1      26.062  86.849  -1.541  1.00  0.00    -0.005 C 
HETATM   19  C1  UNL     1      25.264  87.869  -2.286  1.00  0.00     0.005 C 
ENDBRANCH  17  18
ENDBRANCH  16  17
ENDBRANCH  15  16
ENDBRANCH  14  15
ENDBRANCH  13  14
ENDBRANCH  12  13
ENDBRANCH   1  12
BRANCH   6  20
HETATM   20  N3  UNL     1      35.146  79.681  -0.206  1.00  0.00    -0.159 N 
HETATM   21  C11 UNL     1      35.793  78.751  -1.074  1.00  0.00     0.236 C 
HETATM   22  O1  UNL     1      37.043  78.822  -1.196  1.00  0.00    -0.273 OA
ATOM     23  H3  UNL     1      34.899  79.407   0.745  1.00  0.00     0.187 HD
BRANCH  21  24
HETATM   24  C12 UNL     1      35.001  77.736  -1.801  1.00  0.00     0.107 C 
BRANCH  24  25
HETATM   25  C13 UNL     1      34.227  78.402  -2.917  1.00  0.00    -0.014 C 
HETATM   26  C14 UNL     1      35.062  78.455  -4.159  1.00  0.00     0.010 C 
HETATM   27  C15 UNL     1      32.927  77.665  -3.166  1.00  0.00     0.010 C 
ENDBRANCH  24  25
ENDBRANCH  21  24
ENDBRANCH   6  20
TORSDOF 10
ENDMDL
MODEL 3
REMARK VINA RESULT: -8.718868853      2.067      3.284
REMARK  10 active torsions:
REMARK  status: ('A' for Active; 'I' for Inactive)
REMARK    1  A    between atoms: C2_2  and  C3_3 
REMARK    2  A    between atoms: C3_3  and  C4_4 
REMARK    3  A    between atoms: C4_4  and  C5_5 
REMARK    4  A    between atoms: C5_5  and  C6_6 
REMARK    5  A    between atoms: C6_6  and  C7_7 
REMARK    6  A    between atoms: C7_7  and  C8_8 
REMARK    7  A    between atoms: C8_8  and  N1_9 
REMARK    8  A    between atoms: C10_14  and  N3_15 
REMARK       I    between atoms: N3_15  and  C11_17 
REMARK    9  A    between atoms: C11_17  and  C12_19 
REMARK   10  A    between atoms: C12_19  and  C13_20 
ROOT
HETATM    1  N1  UNL     1      31.027  84.867  -0.029  1.00  0.00    -0.375 N 
ATOM      2  H1  UNL     1      30.664  84.527  -0.919  1.00  0.00     0.161 HD
HETATM    3  C9  UNL     1      32.150  84.416   0.207  1.00  0.00     0.135 A 
HETATM    4  N2  UNL     1      32.678  83.574  -0.737  1.00  0.00    -0.175 N 
ATOM      5  H2  UNL     1      32.120  83.374  -1.567  1.00  0.00     0.186 HD
HETATM    6  C10 UNL     1      33.873  83.003  -0.637  1.00  0.00     0.686 A 
HETATM    7  N4  UNL     1      34.623  83.255   0.449  1.00  0.00    -0.200 N 
ATOM      8  H4  UNL     1      35.542  82.821   0.533  1.00  0.00     0.183 HD
HETATM    9  C16 UNL     1      34.190  84.064   1.423  1.00  0.00     0.129 A 
HETATM   10  C17 UNL     1      32.932  84.658   1.305  1.00  0.00     0.071 A 
HETATM   11 BR1  UNL     1      32.359  85.807   2.727  1.00  0.00    -0.046 Br
ENDROOT
BRANCH   1  12
HETATM   12  C8  UNL     1      30.109  85.735   0.616  1.00  0.00     0.121 C 
BRANCH  12  13
HETATM   13  C7  UNL     1      29.107  86.328  -0.318  1.00  0.00     0.020 C 
BRANCH  13  14
HETATM   14  C6  UNL     1      27.691  86.324  -0.008  1.00  0.00     0.002 C 
BRANCH  14  15
HETATM   15  C5  UNL     1      26.615  86.528  -0.962  1.00  0.00     0.000 C 
BRANCH  15  16
HETATM   16  C4  UNL     1      26.442  87.833  -1.660  1.00  0.00     0.000 C 
BRANCH  16  17
HETATM   17  C3  UNL     1      25.048  87.793  -2.328  1.00  0.00    -0.000 C 
BRANCH  17  18
HETATM   18  C2  UNL     1      24.609  86.342  -2.346  1.00  0.00    -0.005 C 
HETATM   19  C1  UNL     1      23.692  86.063  -3.493  1.00  0.00     0.005 C 
ENDBRANCH  17  18
ENDBRANCH  16  17
ENDBRANCH  15  16
ENDBRANCH  14  15
ENDBRANCH  13  14
ENDBRANCH  12  13
ENDBRANCH   1  12
BRANCH   6  20
HETATM   20  N3  UNL     1      34.309  82.211  -1.579  1.00  0.00    -0.159 N 
HETATM   21  C11 UNL     1      34.357  80.802  -1.359  1.00  0.00     0.236 C 
HETATM   22  O1  UNL     1      33.299  80.139  -1.511  1.00  0.00    -0.273 OA
ATOM     23  H3  UNL     1      34.614  82.599  -2.472  1.00  0.00     0.187 HD
BRANCH  21  24
HETATM   24  C12 UNL     1      35.625  80.153  -0.964  1.00  0.00     0.107 C 
BRANCH  24  25
HETATM   25  C13 UNL     1      35.806  78.873  -1.749  1.00  0.00    -0.014 C 
HETATM   26  C14 UNL     1      36.107  79.188  -3.181  1.00  0.00     0.010 C 
HETATM   27  C15 UNL     1      36.905  78.031  -1.134  1.00  0.00     0.010 C 
ENDBRANCH  24  25
ENDBRANCH  21  24
ENDBRANCH   6  20
TORSDOF 10
ENDMDL
MODEL 4
REMARK VINA RESULT: -8.606733870      2.140      2.517
REMARK  10 active torsions:
REMARK  status: ('A' for Active; 'I' for Inactive)
REMARK    1  A    between atoms: C2_2  and  C3_3 
REMARK    2  A    between atoms: C3_3  and  C4_4 
REMARK    3  A    between atoms: C4_4  and  C5_5 
REMARK    4  A    between atoms: C5_5  and  C6_6 
REMARK    5  A    between atoms: C6_6  and  C7_7 
REMARK    6  A    between atoms: C7_7  and  C8_8 
REMARK    7  A    between atoms: C8_8  and  N1_9 
REMARK    8  A    between atoms: C10_14  and  N3_15 
REMARK       I    between atoms: N3_15  and  C11_17 
REMARK    9  A    between atoms: C11_17  and  C12_19 
REMARK   10  A    between atoms: C12_19  and  C13_20 
ROOT
HETATM    1  N1  UNL     1      33.302  82.369   0.058  1.00  0.00    -0.375 N 
ATOM      2  H1  UNL     1      32.656  82.011   0.761  1.00  0.00     0.161 HD
HETATM    3  C9  UNL     1      33.912  81.458  -0.505  1.00  0.00     0.135 A 
HETATM    4  N2  UNL     1      33.616  80.182  -0.096  1.00  0.00    -0.175 N 
ATOM      5  H2  UNL     1      32.919  80.065   0.640  1.00  0.00     0.186 HD
HETATM    6  C10 UNL     1      34.182  79.092  -0.598  1.00  0.00     0.686 A 
HETATM    7  N4  UNL     1      35.103  79.227  -1.568  1.00  0.00    -0.200 N 
ATOM      8  H4  UNL     1      35.542  78.394  -1.960  1.00  0.00     0.183 HD
HETATM    9  C16 UNL     1      35.456  80.432  -2.031  1.00  0.00     0.129 A 
HETATM   10  C17 UNL     1      34.853  81.570  -1.494  1.00  0.00     0.071 A 
HETATM   11 BR1  UNL     1      35.394  83.271  -2.191  1.00  0.00    -0.046 Br
ENDROOT
BRANCH   1  12
HETATM   12  C8  UNL     1      33.266  83.784  -0.016  1.00  0.00     0.121 C 
BRANCH  12  13
HETATM   13  C7  UNL     1      32.542  84.414   1.127  1.00  0.00     0.020 C 
BRANCH  13  14
HETATM   14  C6  UNL     1      31.146  84.788   1.024  1.00  0.00     0.002 C 
BRANCH  14  15
HETATM   15  C5  UNL     1      30.504  85.875   1.742  1.00  0.00     0.000 C 
BRANCH  15  16
HETATM   16  C4  UNL     1      29.093  86.260   1.455  1.00  0.00     0.000 C 
BRANCH  16  17
HETATM   17  C3  UNL     1      29.022  86.572  -0.057  1.00  0.00    -0.000 C 
BRANCH  17  18
HETATM   18  C2  UNL     1      27.580  86.374  -0.482  1.00  0.00    -0.005 C 
HETATM   19  C1  UNL     1      27.092  87.519  -1.309  1.00  0.00     0.005 C 
ENDBRANCH  17  18
ENDBRANCH  16  17
ENDBRANCH  15  16
ENDBRANCH  14  15
ENDBRANCH  13  14
ENDBRANCH  12  13
ENDBRANCH   1  12
BRANCH   6  20
HETATM   20  N3  UNL     1      33.848  77.909  -0.156  1.00  0.00    -0.159 N 
HETATM   21  C11 UNL     1      33.749  76.812  -1.063  1.00  0.00     0.236 C 
HETATM   22  O1  UNL     1      34.805  76.215  -1.393  1.00  0.00    -0.273 OA
ATOM     23  H3  UNL     1      33.660  77.770   0.837  1.00  0.00     0.187 HD
BRANCH  21  24
HETATM   24  C12 UNL     1      32.430  76.400  -1.591  1.00  0.00     0.107 C 
BRANCH  24  25
HETATM   25  C13 UNL     1      31.985  77.373  -2.660  1.00  0.00    -0.014 C 
HETATM   26  C14 UNL     1      32.321  76.835  -4.016  1.00  0.00     0.010 C 
HETATM   27  C15 UNL     1      30.500  77.645  -2.535  1.00  0.00     0.010 C 
ENDBRANCH  24  25
ENDBRANCH  21  24
ENDBRANCH   6  20
TORSDOF 10
ENDMDL
MODEL 5
REMARK VINA RESULT: -8.445265033      2.953      3.691
REMARK  10 active torsions:
REMARK  status: ('A' for Active; 'I' for Inactive)
REMARK    1  A    between atoms: C2_2  and  C3_3 
REMARK    2  A    between atoms: C3_3  and  C4_4 
REMARK    3  A    between atoms: C4_4  and  C5_5 
REMARK    4  A    between atoms: C5_5  and  C6_6 
REMARK    5  A    between atoms: C6_6  and  C7_7 
REMARK    6  A    between atoms: C7_7  and  C8_8 
REMARK    7  A    between atoms: C8_8  and  N1_9 
REMARK    8  A    between atoms: C10_14  and  N3_15 
REMARK       I    between atoms: N3_15  and  C11_17 
REMARK    9  A    between atoms: C11_17  and  C12_19 
REMARK   10  A    between atoms: C12_19  and  C13_20 
ROOT
HETATM    1  N1  UNL     1      33.436  81.940  -0.056  1.00  0.00    -0.375 N 
ATOM      2  H1  UNL     1      32.781  81.422   0.528  1.00  0.00     0.161 HD
HETATM    3  C9  UNL     1      33.934  81.225  -0.928  1.00  0.00     0.135 A 
HETATM    4  N2  UNL     1      33.527  79.915  -0.946  1.00  0.00    -0.175 N 
ATOM      5  H2  UNL     1      32.846  79.615  -0.249  1.00  0.00     0.186 HD
HETATM    6  C10 UNL     1      33.965  79.014  -1.818  1.00  0.00     0.686 A 
HETATM    7  N4  UNL     1      34.862  79.392  -2.745  1.00  0.00    -0.200 N 
ATOM      8  H4  UNL     1      35.203  78.705  -3.418  1.00  0.00     0.183 HD
HETATM    9  C16 UNL     1      35.317  80.648  -2.804  1.00  0.00     0.129 A 
HETATM   10  C17 UNL     1      34.848  81.585  -1.882  1.00  0.00     0.071 A 
HETATM   11 BR1  UNL     1      35.531  83.371  -2.009  1.00  0.00    -0.046 Br
ENDROOT
BRANCH   1  12
HETATM   12  C8  UNL     1      33.538  83.296   0.346  1.00  0.00     0.121 C 
BRANCH  12  13
HETATM   13  C7  UNL     1      32.264  84.056   0.180  1.00  0.00     0.020 C 
BRANCH  13  14
HETATM   14  C6  UNL     1      31.701  84.832   1.267  1.00  0.00     0.002 C 
BRANCH  14  15
HETATM   15  C5  UNL     1      30.444  85.558   1.226  1.00  0.00     0.000 C 
BRANCH  15  16
HETATM   16  C4  UNL     1      29.793  85.900  -0.071  1.00  0.00     0.000 C 
BRANCH  16  17
HETATM   17  C3  UNL     1      28.619  86.849   0.262  1.00  0.00    -0.000 C 
BRANCH  17  18
HETATM   18  C2  UNL     1      27.450  86.428  -0.606  1.00  0.00    -0.005 C 
HETATM   19  C1  UNL     1      26.930  87.571  -1.416  1.00  0.00     0.005 C 
ENDBRANCH  17  18
ENDBRANCH  16  17
ENDBRANCH  15  16
ENDBRANCH  14  15
ENDBRANCH  13  14
ENDBRANCH  12  13
ENDBRANCH   1  12
BRANCH   6  20
HETATM   20  N3  UNL     1      33.530  77.784  -1.772  1.00  0.00    -0.159 N 
HETATM   21  C11 UNL     1      32.378  77.465  -0.993  1.00  0.00     0.236 C 
HETATM   22  O1  UNL     1      31.243  77.679  -1.492  1.00  0.00    -0.273 OA
ATOM     23  H3  UNL     1      34.013  77.052  -2.294  1.00  0.00     0.187 HD
BRANCH  21  24
HETATM   24  C12 UNL     1      32.531  76.896   0.364  1.00  0.00     0.107 C 
BRANCH  24  25
HETATM   25  C13 UNL     1      31.714  77.704   1.347  1.00  0.00    -0.014 C 
HETATM   26  C14 UNL     1      30.356  77.094   1.509  1.00  0.00     0.010 C 
HETATM   27  C15 UNL     1      32.433  77.794   2.677  1.00  0.00     0.010 C 
ENDBRANCH  24  25
ENDBRANCH  21  24
ENDBRANCH   6  20
TORSDOF 10
ENDMDL
