MODEL 1
REMARK VINA RESULT: -6.913747759      0.000      0.000
REMARK  11 active torsions:
REMARK  status: ('A' for Active; 'I' for Inactive)
REMARK    1  A    between atoms: C2_2  and  N1_3 
REMARK    2  A    between atoms: N1_3  and  C3_4 
REMARK    3  A    between atoms: N1_3  and  C5_6 
REMARK    4  A    between atoms: C5_6  and  C6_7 
REMARK    5  A    between atoms: C6_7  and  C7_8 
REMARK    6  A    between atoms: C7_8  and  N2_9 
REMARK    7  A    between atoms: N2_9  and  C8_11 
REMARK    8  A    between atoms: C8_11  and  N3_13 
REMARK    9  A    between atoms: N3_13  and  C10_15 
REMARK   10  A    between atoms: C10_15  and  C11_16 
REMARK   11  A    between atoms: C12_17  and  C13_18 
ROOT
HETATM    1  N3  UNL     1      33.842  77.144  -2.617  1.00  0.00    -0.358 N 
HETATM    2  C9  UNL     1      33.431  77.101  -4.015  1.00  0.00     0.152 C 
ENDROOT
BRANCH   1   3
HETATM    3  C8  UNL     1      34.765  78.208  -2.267  1.00  0.00     0.169 C 
HETATM    4  S1  UNL     1      36.368  77.948  -2.390  1.00  0.00    -0.041 SA
BRANCH   3   5
HETATM    5  N2  UNL     1      34.251  79.450  -1.854  1.00  0.00    -0.367 N 
ATOM      6  H2  UNL     1      33.490  79.852  -2.401  1.00  0.00     0.161 HD
BRANCH   5   7
HETATM    7  C7  UNL     1      34.716  80.190  -0.724  1.00  0.00     0.123 C 
BRANCH   7   8
HETATM    8  C6  UNL     1      34.534  81.680  -1.027  1.00  0.00     0.050 C 
BRANCH   8   9
HETATM    9  C5  UNL     1      33.912  82.317   0.184  1.00  0.00     0.274 C 
BRANCH   9  10
HETATM   10  N1  UNL     1      33.714  83.734  -0.078  1.00  0.00     0.087 N 
BRANCH  10  11
HETATM   11  C2  UNL     1      32.341  84.098   0.107  1.00  0.00     0.268 C 
HETATM   12  C1  UNL     1      31.996  84.839   1.350  1.00  0.00     0.037 C 
ENDBRANCH  10  11
BRANCH  10  13
HETATM   13  C3  UNL     1      34.335  84.182  -1.266  1.00  0.00     0.268 C 
HETATM   14  C4  UNL     1      33.562  84.901  -2.284  1.00  0.00     0.037 C 
ENDBRANCH  10  13
ENDBRANCH   9  10
ENDBRANCH   8   9
ENDBRANCH   7   8
ENDBRANCH   5   7
ENDBRANCH   3   5
ENDBRANCH   1   3
BRANCH   1  15
HETATM   15  C10 UNL     1      33.394  76.219  -1.640  1.00  0.00     0.169 C 
BRANCH  15  16
HETATM   16  C11 UNL     1      32.759  76.724  -0.431  1.00  0.00     0.035 A 
HETATM   17  C12 UNL     1      31.362  76.860  -0.382  1.00  0.00    -0.025 A 
HETATM   18  C15 UNL     1      30.738  77.300   0.765  1.00  0.00     0.034 A 
HETATM   19  C16 UNL     1      31.445  77.624   1.904  1.00  0.00     0.009 A 
HETATM   20  C17 UNL     1      30.793  78.109   3.159  1.00  0.00     0.068 C 
HETATM   21  N4  UNL     1      32.777  77.485   1.834  1.00  0.00    -0.327 N 
HETATM   22  C18 UNL     1      33.430  77.051   0.715  1.00  0.00     0.254 A 
ATOM     23  H4  UNL     1      33.330  77.714   2.659  1.00  0.00     0.169 HD
HETATM   24  O1  UNL     1      34.675  76.988   0.864  1.00  0.00    -0.268 OA
BRANCH  17  25
HETATM   25  C13 UNL     1      30.515  76.541  -1.558  1.00  0.00     0.111 C 
HETATM   26  C14 UNL     1      29.100  76.206  -1.160  1.00  0.00     0.032 C 
HETATM   27 CL1  UNL     1      30.383  78.019  -2.580  1.00  0.00    -0.120 Cl
ENDBRANCH  17  25
ENDBRANCH  15  16
ENDBRANCH   1  15
TORSDOF 11
ENDMDL
MODEL 2
REMARK VINA RESULT: -6.625945960      1.481      2.334
REMARK  11 active torsions:
REMARK  status: ('A' for Active; 'I' for Inactive)
REMARK    1  A    between atoms: C2_2  and  N1_3 
REMARK    2  A    between atoms: N1_3  and  C3_4 
REMARK    3  A    between atoms: N1_3  and  C5_6 
REMARK    4  A    between atoms: C5_6  and  C6_7 
REMARK    5  A    between atoms: C6_7  and  C7_8 
REMARK    6  A    between atoms: C7_8  and  N2_9 
REMARK    7  A    between atoms: N2_9  and  C8_11 
REMARK    8  A    between atoms: C8_11  and  N3_13 
REMARK    9  A    between atoms: N3_13  and  C10_15 
REMARK   10  A    between atoms: C10_15  and  C11_16 
REMARK   11  A    between atoms: C12_17  and  C13_18 
ROOT
HETATM    1  N3  UNL     1      34.546  79.276  -0.822  1.00  0.00    -0.358 N 
HETATM    2  C9  UNL     1      34.851  80.070   0.362  1.00  0.00     0.152 C 
ENDROOT
BRANCH   1   3
HETATM    3  C8  UNL     1      34.670  79.970  -2.091  1.00  0.00     0.169 C 
HETATM    4  S1  UNL     1      35.199  79.159  -3.399  1.00  0.00    -0.041 SA
BRANCH   3   5
HETATM    5  N2  UNL     1      34.303  81.327  -2.165  1.00  0.00    -0.367 N 
ATOM      6  H2  UNL     1      33.307  81.547  -2.187  1.00  0.00     0.161 HD
BRANCH   5   7
HETATM    7  C7  UNL     1      35.222  82.419  -2.212  1.00  0.00     0.123 C 
BRANCH   7   8
HETATM    8  C6  UNL     1      34.566  83.620  -1.527  1.00  0.00     0.050 C 
BRANCH   8   9
HETATM    9  C5  UNL     1      33.731  83.095  -0.392  1.00  0.00     0.274 C 
BRANCH   9  10
HETATM   10  N1  UNL     1      33.093  84.216   0.280  1.00  0.00     0.087 N 
BRANCH  10  11
HETATM   11  C2  UNL     1      33.778  84.536   1.497  1.00  0.00     0.268 C 
HETATM   12  C1  UNL     1      33.079  85.433   2.455  1.00  0.00     0.037 C 
ENDBRANCH  10  11
BRANCH  10  13
HETATM   13  C3  UNL     1      31.686  84.104   0.355  1.00  0.00     0.268 C 
HETATM   14  C4  UNL     1      30.826  85.148  -0.212  1.00  0.00     0.037 C 
ENDBRANCH  10  13
ENDBRANCH   9  10
ENDBRANCH   8   9
ENDBRANCH   7   8
ENDBRANCH   5   7
ENDBRANCH   3   5
ENDBRANCH   1   3
BRANCH   1  15
HETATM   15  C10 UNL     1      34.144  77.917  -0.772  1.00  0.00     0.169 C 
BRANCH  15  16
HETATM   16  C11 UNL     1      32.849  77.587  -0.195  1.00  0.00     0.035 A 
HETATM   17  C12 UNL     1      31.754  77.339  -1.038  1.00  0.00    -0.025 A 
HETATM   18  C15 UNL     1      30.529  76.987  -0.514  1.00  0.00     0.034 A 
HETATM   19  C16 UNL     1      30.323  76.864   0.845  1.00  0.00     0.009 A 
HETATM   20  C17 UNL     1      29.002  76.491   1.439  1.00  0.00     0.068 C 
HETATM   21  N4  UNL     1      31.383  77.105   1.628  1.00  0.00    -0.327 N 
HETATM   22  C18 UNL     1      32.612  77.455   1.145  1.00  0.00     0.254 A 
ATOM     23  H4  UNL     1      31.265  77.022   2.638  1.00  0.00     0.169 HD
HETATM   24  O1  UNL     1      33.466  77.629   2.049  1.00  0.00    -0.268 OA
BRANCH  17  25
HETATM   25  C13 UNL     1      31.875  77.450  -2.513  1.00  0.00     0.111 C 
HETATM   26  C14 UNL     1      32.545  76.242  -3.116  1.00  0.00     0.032 C 
HETATM   27 CL1  UNL     1      30.217  77.475  -3.218  1.00  0.00    -0.120 Cl
ENDBRANCH  17  25
ENDBRANCH  15  16
ENDBRANCH   1  15
TORSDOF 11
ENDMDL
MODEL 3
REMARK VINA RESULT: -6.501814924      3.071      4.905
REMARK  11 active torsions:
REMARK  status: ('A' for Active; 'I' for Inactive)
REMARK    1  A    between atoms: C2_2  and  N1_3 
REMARK    2  A    between atoms: N1_3  and  C3_4 
REMARK    3  A    between atoms: N1_3  and  C5_6 
REMARK    4  A    between atoms: C5_6  and  C6_7 
REMARK    5  A    between atoms: C6_7  and  C7_8 
REMARK    6  A    between atoms: C7_8  and  N2_9 
REMARK    7  A    between atoms: N2_9  and  C8_11 
REMARK    8  A    between atoms: C8_11  and  N3_13 
REMARK    9  A    between atoms: N3_13  and  C10_15 
REMARK   10  A    between atoms: C10_15  and  C11_16 
REMARK   11  A    between atoms: C12_17  and  C13_18 
ROOT
HETATM    1  N3  UNL     1      34.927  79.935  -1.937  1.00  0.00    -0.358 N 
HETATM    2  C9  UNL     1      35.391  80.963  -2.862  1.00  0.00     0.152 C 
ENDROOT
BRANCH   1   3
HETATM    3  C8  UNL     1      34.143  80.412  -0.813  1.00  0.00     0.169 C 
HETATM    4  S1  UNL     1      33.997  79.480   0.514  1.00  0.00    -0.041 SA
BRANCH   3   5
HETATM    5  N2  UNL     1      33.547  81.685  -0.887  1.00  0.00    -0.367 N 
ATOM      6  H2  UNL     1      32.828  81.829  -1.595  1.00  0.00     0.161 HD
BRANCH   5   7
HETATM    7  C7  UNL     1      33.876  82.789  -0.043  1.00  0.00     0.123 C 
BRANCH   7   8
HETATM    8  C6  UNL     1      32.599  83.233   0.676  1.00  0.00     0.050 C 
BRANCH   8   9
HETATM    9  C5  UNL     1      32.240  84.599   0.162  1.00  0.00     0.274 C 
BRANCH   9  10
HETATM   10  N1  UNL     1      30.988  85.018   0.774  1.00  0.00     0.087 N 
BRANCH  10  11
HETATM   11  C2  UNL     1      30.155  85.687  -0.180  1.00  0.00     0.268 C 
HETATM   12  C1  UNL     1      28.868  86.244   0.314  1.00  0.00     0.037 C 
ENDBRANCH  10  11
BRANCH  10  13
HETATM   13  C3  UNL     1      31.155  85.652   2.026  1.00  0.00     0.268 C 
HETATM   14  C4  UNL     1      32.493  85.827   2.598  1.00  0.00     0.037 C 
ENDBRANCH  10  13
ENDBRANCH   9  10
ENDBRANCH   8   9
ENDBRANCH   7   8
ENDBRANCH   5   7
ENDBRANCH   3   5
ENDBRANCH   1   3
BRANCH   1  15
HETATM   15  C10 UNL     1      35.214  78.555  -2.091  1.00  0.00     0.169 C 
BRANCH  15  16
HETATM   16  C11 UNL     1      35.020  77.939  -3.396  1.00  0.00     0.035 A 
HETATM   17  C12 UNL     1      33.736  77.525  -3.787  1.00  0.00    -0.025 A 
HETATM   18  C15 UNL     1      33.524  76.976  -5.033  1.00  0.00     0.034 A 
HETATM   19  C16 UNL     1      34.547  76.808  -5.943  1.00  0.00     0.009 A 
HETATM   20  C17 UNL     1      34.345  76.209  -7.298  1.00  0.00     0.068 C 
HETATM   21  N4  UNL     1      35.763  77.212  -5.547  1.00  0.00    -0.327 N 
HETATM   22  C18 UNL     1      36.012  77.761  -4.321  1.00  0.00     0.254 A 
ATOM     23  H4  UNL     1      36.542  77.103  -6.196  1.00  0.00     0.169 HD
HETATM   24  O1  UNL     1      37.216  78.075  -4.157  1.00  0.00    -0.268 OA
BRANCH  17  25
HETATM   25  C13 UNL     1      32.572  77.660  -2.877  1.00  0.00     0.111 C 
HETATM   26  C14 UNL     1      31.280  77.282  -3.555  1.00  0.00     0.032 C 
HETATM   27 CL1  UNL     1      32.765  76.479  -1.530  1.00  0.00    -0.120 Cl
ENDBRANCH  17  25
ENDBRANCH  15  16
ENDBRANCH   1  15
TORSDOF 11
ENDMDL
MODEL 4
REMARK VINA RESULT: -6.484096467      3.016      6.477
REMARK  11 active torsions:
REMARK  status: ('A' for Active; 'I' for Inactive)
REMARK    1  A    between atoms: C2_2  and  N1_3 
REMARK    2  A    between atoms: N1_3  and  C3_4 
REMARK    3  A    between atoms: N1_3  and  C5_6 
REMARK    4  A    between atoms: C5_6  and  C6_7 
REMARK    5  A    between atoms: C6_7  and  C7_8 
REMARK    6  A    between atoms: C7_8  and  N2_9 
REMARK    7  A    between atoms: N2_9  and  C8_11 
REMARK    8  A    between atoms: C8_11  and  N3_13 
REMARK    9  A    between atoms: N3_13  and  C10_15 
REMARK   10  A    between atoms: C10_15  and  C11_16 
REMARK   11  A    between atoms: C12_17  and  C13_18 
ROOT
HETATM    1  N3  UNL     1      32.657  77.024  -1.579  1.00  0.00    -0.358 N 
HETATM    2  C9  UNL     1      32.630  76.206  -2.786  1.00  0.00     0.152 C 
ENDROOT
BRANCH   1   3
HETATM    3  C8  UNL     1      31.363  77.311  -0.988  1.00  0.00     0.169 C 
HETATM    4  S1  UNL     1      30.012  77.071  -1.864  1.00  0.00    -0.041 SA
BRANCH   3   5
HETATM    5  N2  UNL     1      31.307  77.766   0.343  1.00  0.00    -0.367 N 
ATOM      6  H2  UNL     1      31.452  78.762   0.508  1.00  0.00     0.161 HD
BRANCH   5   7
HETATM    7  C7  UNL     1      31.061  76.937   1.479  1.00  0.00     0.123 C 
BRANCH   7   8
HETATM    8  C6  UNL     1      30.004  77.624   2.347  1.00  0.00     0.050 C 
BRANCH   8   9
HETATM    9  C5  UNL     1      28.726  76.843   2.210  1.00  0.00     0.274 C 
BRANCH   9  10
HETATM   10  N1  UNL     1      27.726  77.418   3.096  1.00  0.00     0.087 N 
BRANCH  10  11
HETATM   11  C2  UNL     1      26.452  77.491   2.445  1.00  0.00     0.268 C 
HETATM   12  C1  UNL     1      26.382  77.026   1.034  1.00  0.00     0.037 C 
ENDBRANCH  10  11
BRANCH  10  13
HETATM   13  C3  UNL     1      28.165  78.582   3.766  1.00  0.00     0.268 C 
HETATM   14  C4  UNL     1      27.214  79.640   4.119  1.00  0.00     0.037 C 
ENDBRANCH  10  13
ENDBRANCH   9  10
ENDBRANCH   8   9
ENDBRANCH   7   8
ENDBRANCH   5   7
ENDBRANCH   3   5
ENDBRANCH   1   3
BRANCH   1  15
HETATM   15  C10 UNL     1      33.850  77.529  -1.001  1.00  0.00     0.169 C 
BRANCH  15  16
HETATM   16  C11 UNL     1      34.232  78.908  -1.269  1.00  0.00     0.035 A 
HETATM   17  C12 UNL     1      35.034  79.205  -2.384  1.00  0.00    -0.025 A 
HETATM   18  C15 UNL     1      35.374  80.507  -2.677  1.00  0.00     0.034 A 
HETATM   19  C16 UNL     1      34.950  81.567  -1.903  1.00  0.00     0.009 A 
HETATM   20  C17 UNL     1      35.310  82.988  -2.197  1.00  0.00     0.068 C 
HETATM   21  N4  UNL     1      34.184  81.259  -0.847  1.00  0.00    -0.327 N 
HETATM   22  C18 UNL     1      33.826  79.980  -0.524  1.00  0.00     0.254 A 
ATOM     23  H4  UNL     1      33.852  82.019  -0.253  1.00  0.00     0.169 HD
HETATM   24  O1  UNL     1      33.102  79.915   0.500  1.00  0.00    -0.268 OA
BRANCH  17  25
HETATM   25  C13 UNL     1      35.544  78.133  -3.274  1.00  0.00     0.111 C 
HETATM   26  C14 UNL     1      34.978  78.240  -4.667  1.00  0.00     0.032 C 
HETATM   27 CL1  UNL     1      37.322  78.352  -3.466  1.00  0.00    -0.120 Cl
ENDBRANCH  17  25
ENDBRANCH  15  16
ENDBRANCH   1  15
TORSDOF 11
ENDMDL
MODEL 5
REMARK VINA RESULT: -6.412906836      2.821      4.808
REMARK  11 active torsions:
REMARK  status: ('A' for Active; 'I' for Inactive)
REMARK    1  A    between atoms: C2_2  and  N1_3 
REMARK    2  A    between atoms: N1_3  and  C3_4 
REMARK    3  A    between atoms: N1_3  and  C5_6 
REMARK    4  A    between atoms: C5_6  and  C6_7 
REMARK    5  A    between atoms: C6_7  and  C7_8 
REMARK    6  A    between atoms: C7_8  and  N2_9 
REMARK    7  A    between atoms: N2_9  and  C8_11 
REMARK    8  A    between atoms: C8_11  and  N3_13 
REMARK    9  A    between atoms: N3_13  and  C10_15 
REMARK   10  A    between atoms: C10_15  and  C11_16 
REMARK   11  A    between atoms: C12_17  and  C13_18 
ROOT
HETATM    1  N3  UNL     1      34.571  80.480  -0.994  1.00  0.00    -0.358 N 
HETATM    2  C9  UNL     1      35.873  80.128  -0.441  1.00  0.00     0.152 C 
ENDROOT
BRANCH   1   3
HETATM    3  C8  UNL     1      34.307  81.902  -1.119  1.00  0.00     0.169 C 
HETATM    4  S1  UNL     1      35.215  82.798  -2.129  1.00  0.00    -0.041 SA
BRANCH   3   5
HETATM    5  N2  UNL     1      33.251  82.467  -0.379  1.00  0.00    -0.367 N 
ATOM      6  H2  UNL     1      32.427  81.890  -0.214  1.00  0.00     0.161 HD
BRANCH   5   7
HETATM    7  C7  UNL     1      33.249  83.791   0.157  1.00  0.00     0.123 C 
BRANCH   7   8
HETATM    8  C6  UNL     1      31.850  84.075   0.711  1.00  0.00     0.050 C 
BRANCH   8   9
HETATM    9  C5  UNL     1      31.125  84.917  -0.301  1.00  0.00     0.274 C 
BRANCH   9  10
HETATM   10  N1  UNL     1      30.310  85.897   0.399  1.00  0.00     0.087 N 
BRANCH  10  11
HETATM   11  C2  UNL     1      30.391  85.706   1.817  1.00  0.00     0.268 C 
HETATM   12  C1  UNL     1      29.148  85.919   2.604  1.00  0.00     0.037 C 
ENDBRANCH  10  11
BRANCH  10  13
HETATM   13  C3  UNL     1      29.015  86.052  -0.147  1.00  0.00     0.268 C 
HETATM   14  C4  UNL     1      28.588  87.345  -0.691  1.00  0.00     0.037 C 
ENDBRANCH  10  13
ENDBRANCH   9  10
ENDBRANCH   8   9
ENDBRANCH   7   8
ENDBRANCH   5   7
ENDBRANCH   3   5
ENDBRANCH   1   3
BRANCH   1  15
HETATM   15  C10 UNL     1      33.601  79.522  -1.386  1.00  0.00     0.169 C 
BRANCH  15  16
HETATM   16  C11 UNL     1      33.805  78.780  -2.621  1.00  0.00     0.035 A 
HETATM   17  C12 UNL     1      32.816  77.890  -3.071  1.00  0.00    -0.025 A 
HETATM   18  C15 UNL     1      32.972  77.207  -4.257  1.00  0.00     0.034 A 
HETATM   19  C16 UNL     1      34.090  77.362  -5.050  1.00  0.00     0.009 A 
HETATM   20  C17 UNL     1      34.287  76.629  -6.338  1.00  0.00     0.068 C 
HETATM   21  N4  UNL     1      35.019  78.218  -4.601  1.00  0.00    -0.327 N 
HETATM   22  C18 UNL     1      34.900  78.913  -3.430  1.00  0.00     0.254 A 
ATOM     23  H4  UNL     1      35.859  78.358  -5.163  1.00  0.00     0.169 HD
HETATM   24  O1  UNL     1      35.879  79.664  -3.200  1.00  0.00    -0.268 OA
BRANCH  17  25
HETATM   25  C13 UNL     1      31.579  77.651  -2.287  1.00  0.00     0.111 C 
HETATM   26  C14 UNL     1      30.411  77.294  -3.170  1.00  0.00     0.032 C 
HETATM   27 CL1  UNL     1      31.840  76.208  -1.240  1.00  0.00    -0.120 Cl
ENDBRANCH  17  25
ENDBRANCH  15  16
ENDBRANCH   1  15
TORSDOF 11
ENDMDL
