MODEL 1
REMARK VINA RESULT: -5.052263533      0.000      0.000
REMARK  1 active torsions:
REMARK  status: ('A' for Active; 'I' for Inactive)
REMARK    1  A    between atoms: C4_4  and  N1_5 
ROOT
HETATM    1  N1  UNL     1      17.930  -6.808  11.098  1.00  0.00    -0.384 N 
ATOM      2  H1  UNL     1      18.227  -6.641  10.137  1.00  0.00     0.160 HD
HETATM    3  C5  UNL     1      18.646  -6.466  12.092  1.00  0.00     0.166 C 
HETATM    4  S1  UNL     1      19.462  -5.970  13.415  1.00  0.00    -0.075 SA
ENDROOT
BRANCH   1   5
HETATM    5  C4  UNL     1      16.653  -7.456  11.410  1.00  0.00     0.109 C 
HETATM    6  C3  UNL     1      16.859  -8.934  11.144  1.00  0.00     0.059 C 
HETATM    7  C2  UNL     1      16.083  -9.121   9.841  1.00  0.00     0.184 C 
HETATM    8  C1  UNL     1      15.654 -10.571   9.807  1.00  0.00     0.040 C 
HETATM    9  N2  UNL     1      14.960  -8.235  10.047  1.00  0.00    -0.069 N 
HETATM   10  C6  UNL     1      15.538  -6.993  10.543  1.00  0.00     0.257 C 
ATOM     11  H22 UNL     1      14.374  -8.115   9.221  1.00  0.00     0.277 HD
ATOM     12  H21 UNL     1      14.236  -8.622  10.651  1.00  0.00     0.277 HD
ENDBRANCH   1   5
TORSDOF 1
ENDMDL
MODEL 2
REMARK VINA RESULT: -4.900199536      1.053      1.053
REMARK  1 active torsions:
REMARK  status: ('A' for Active; 'I' for Inactive)
REMARK    1  A    between atoms: C4_4  and  N1_5 
ROOT
HETATM    1  N1  UNL     1      18.018  -7.001  11.368  1.00  0.00    -0.384 N 
ATOM      2  H1  UNL     1      18.139  -6.103  10.902  1.00  0.00     0.160 HD
HETATM    3  C5  UNL     1      19.009  -7.668  11.806  1.00  0.00     0.166 C 
HETATM    4  S1  UNL     1      20.218  -8.534  12.479  1.00  0.00    -0.075 SA
ENDROOT
BRANCH   1   5
HETATM    5  C4  UNL     1      16.694  -7.595  11.571  1.00  0.00     0.109 C 
HETATM    6  C3  UNL     1      16.822  -9.050  11.165  1.00  0.00     0.059 C 
HETATM    7  C2  UNL     1      16.088  -9.059   9.825  1.00  0.00     0.184 C 
HETATM    8  C1  UNL     1      15.575 -10.469   9.632  1.00  0.00     0.040 C 
HETATM    9  N2  UNL     1      15.013  -8.128  10.081  1.00  0.00    -0.069 N 
HETATM   10  C6  UNL     1      15.643  -6.979  10.718  1.00  0.00     0.257 C 
ATOM     11  H22 UNL     1      14.467  -7.891   9.253  1.00  0.00     0.277 HD
ATOM     12  H21 UNL     1      14.244  -8.527  10.620  1.00  0.00     0.277 HD
ENDBRANCH   1   5
TORSDOF 1
ENDMDL
MODEL 3
REMARK VINA RESULT: -4.620348837      2.745      3.667
REMARK  1 active torsions:
REMARK  status: ('A' for Active; 'I' for Inactive)
REMARK    1  A    between atoms: C4_4  and  N1_5 
ROOT
HETATM    1  N1  UNL     1      17.657 -11.569  11.126  1.00  0.00    -0.384 N 
ATOM      2  H1  UNL     1      17.056 -12.332  11.438  1.00  0.00     0.160 HD
HETATM    3  C5  UNL     1      18.851 -11.443  11.547  1.00  0.00     0.166 C 
HETATM    4  S1  UNL     1      20.419 -11.269  11.965  1.00  0.00    -0.075 SA
ENDROOT
BRANCH   1   5
HETATM    5  C4  UNL     1      17.194 -10.560  10.171  1.00  0.00     0.109 C 
HETATM    6  C3  UNL     1      17.198  -9.243  10.920  1.00  0.00     0.059 C 
HETATM    7  C2  UNL     1      15.704  -9.015  11.146  1.00  0.00     0.184 C 
HETATM    8  C1  UNL     1      15.517  -7.519  11.271  1.00  0.00     0.040 C 
HETATM    9  N2  UNL     1      15.148  -9.524   9.913  1.00  0.00    -0.069 N 
HETATM   10  C6  UNL     1      15.807 -10.804   9.693  1.00  0.00     0.257 C 
ATOM     11  H22 UNL     1      14.129  -9.580   9.914  1.00  0.00     0.277 HD
ATOM     12  H21 UNL     1      15.230  -8.878   9.128  1.00  0.00     0.277 HD
ENDBRANCH   1   5
TORSDOF 1
ENDMDL
MODEL 4
REMARK VINA RESULT: -4.459067610      2.744      4.479
REMARK  1 active torsions:
REMARK  status: ('A' for Active; 'I' for Inactive)
REMARK    1  A    between atoms: C4_4  and  N1_5 
ROOT
HETATM    1  N1  UNL     1      16.205  -8.150  10.128  1.00  0.00    -0.384 N 
ATOM      2  H1  UNL     1      16.043  -7.345   9.524  1.00  0.00     0.160 HD
HETATM    3  C5  UNL     1      15.888  -9.330   9.774  1.00  0.00     0.166 C 
HETATM    4  S1  UNL     1      15.598 -10.880   9.352  1.00  0.00    -0.075 SA
ENDROOT
BRANCH   1   5
HETATM    5  C4  UNL     1      16.817  -8.012  11.451  1.00  0.00     0.109 C 
HETATM    6  C3  UNL     1      17.291  -6.575  11.545  1.00  0.00     0.059 C 
HETATM    7  C2  UNL     1      18.803  -6.742  11.396  1.00  0.00     0.184 C 
HETATM    8  C1  UNL     1      19.431  -5.558  12.097  1.00  0.00     0.040 C 
HETATM    9  N2  UNL     1      19.027  -7.973  12.118  1.00  0.00    -0.069 N 
HETATM   10  C6  UNL     1      18.002  -8.891  11.640  1.00  0.00     0.257 C 
ATOM     11  H22 UNL     1      19.977  -8.335  12.030  1.00  0.00     0.277 HD
ATOM     12  H21 UNL     1      19.038  -7.859  13.131  1.00  0.00     0.277 HD
ENDBRANCH   1   5
TORSDOF 1
ENDMDL
MODEL 5
REMARK VINA RESULT: -4.386937772      2.776      4.096
REMARK  1 active torsions:
REMARK  status: ('A' for Active; 'I' for Inactive)
REMARK    1  A    between atoms: C4_4  and  N1_5 
ROOT
HETATM    1  N1  UNL     1      14.952  -8.741  10.814  1.00  0.00    -0.384 N 
ATOM      2  H1  UNL     1      14.173  -8.598  11.457  1.00  0.00     0.160 HD
HETATM    3  C5  UNL     1      15.156  -9.859  10.244  1.00  0.00     0.166 C 
HETATM    4  S1  UNL     1      15.426 -11.232   9.403  1.00  0.00    -0.075 SA
ENDROOT
BRANCH   1   5
HETATM    5  C4  UNL     1      15.897  -7.667  10.496  1.00  0.00     0.109 C 
HETATM    6  C3  UNL     1      17.280  -8.262  10.672  1.00  0.00     0.059 C 
HETATM    7  C2  UNL     1      17.727  -7.611  11.980  1.00  0.00     0.184 C 
HETATM    8  C1  UNL     1      19.240  -7.578  11.941  1.00  0.00     0.040 C 
HETATM    9  N2  UNL     1      17.159  -6.289  11.851  1.00  0.00    -0.069 N 
HETATM   10  C6  UNL     1      15.786  -6.503  11.414  1.00  0.00     0.257 C 
ATOM     11  H22 UNL     1      17.239  -5.723  12.696  1.00  0.00     0.277 HD
ATOM     12  H21 UNL     1      17.694  -5.670  11.243  1.00  0.00     0.277 HD
ENDBRANCH   1   5
TORSDOF 1
ENDMDL
