MODEL 1
REMARK VINA RESULT: -3.951548617      0.000      0.000
REMARK  1 active torsions:
REMARK  status: ('A' for Active; 'I' for Inactive)
REMARK    1  A    between atoms: N1_2  and  C2_5 
ROOT
HETATM    1  C2  UNL     1      17.060 -10.270  11.168  1.00  0.00     0.204 C 
HETATM    2  C3  UNL     1      16.781 -11.053   9.893  1.00  0.00     0.036 C 
HETATM    3  C4  UNL     1      16.256  -9.770   9.259  1.00  0.00     0.025 C 
HETATM    4  C5  UNL     1      16.101  -9.245  10.679  1.00  0.00     0.043 C 
HETATM    5  C6  UNL     1      14.694  -9.551  11.185  1.00  0.00     0.030 C 
HETATM    6  S1  UNL     1      16.529  -7.522  10.853  1.00  0.00    -0.085 SA
ENDROOT
BRANCH   1   7
HETATM    7  N1  UNL     1      18.419  -9.890  11.386  1.00  0.00    -0.073 N 
HETATM    8  C1  UNL     1      19.210 -11.111  11.537  1.00  0.00     0.267 C 
ATOM      9  H12 UNL     1      18.529  -9.249  12.172  1.00  0.00     0.277 HD
ATOM     10  H11 UNL     1      18.778  -9.274  10.657  1.00  0.00     0.277 HD
ENDBRANCH   1   7
TORSDOF 1
ENDMDL
MODEL 2
REMARK VINA RESULT: -3.905851331      2.036      3.048
REMARK  1 active torsions:
REMARK  status: ('A' for Active; 'I' for Inactive)
REMARK    1  A    between atoms: N1_2  and  C2_5 
ROOT
HETATM    1  C2  UNL     1      16.452  -8.657  10.232  1.00  0.00     0.204 C 
HETATM    2  C3  UNL     1      14.962  -8.860  10.467  1.00  0.00     0.036 C 
HETATM    3  C4  UNL     1      15.264 -10.272  10.955  1.00  0.00     0.025 C 
HETATM    4  C5  UNL     1      16.593 -10.137  10.225  1.00  0.00     0.043 C 
HETATM    5  C6  UNL     1      16.452 -10.675   8.804  1.00  0.00     0.030 C 
HETATM    6  S1  UNL     1      17.964 -10.869  11.100  1.00  0.00    -0.085 SA
ENDROOT
BRANCH   1   7
HETATM    7  N1  UNL     1      17.147  -7.906  11.229  1.00  0.00    -0.073 N 
HETATM    8  C1  UNL     1      16.554  -6.570  11.281  1.00  0.00     0.267 C 
ATOM      9  H12 UNL     1      18.155  -7.885  11.077  1.00  0.00     0.277 HD
ATOM     10  H11 UNL     1      17.156  -8.370  12.137  1.00  0.00     0.277 HD
ENDBRANCH   1   7
TORSDOF 1
ENDMDL
MODEL 3
REMARK VINA RESULT: -3.843303723      4.005      4.965
REMARK  1 active torsions:
REMARK  status: ('A' for Active; 'I' for Inactive)
REMARK    1  A    between atoms: N1_2  and  C2_5 
ROOT
HETATM    1  C2  UNL     1      18.443  -6.778  11.407  1.00  0.00     0.204 C 
HETATM    2  C3  UNL     1      18.890  -8.156  11.875  1.00  0.00     0.036 C 
HETATM    3  C4  UNL     1      19.934  -7.481  12.756  1.00  0.00     0.025 C 
HETATM    4  C5  UNL     1      19.758  -6.259  11.867  1.00  0.00     0.043 C 
HETATM    5  C6  UNL     1      20.772  -6.306  10.728  1.00  0.00     0.030 C 
HETATM    6  S1  UNL     1      19.802  -4.715  12.759  1.00  0.00    -0.085 SA
ENDROOT
BRANCH   1   7
HETATM    7  N1  UNL     1      17.254  -6.267  12.011  1.00  0.00    -0.073 N 
HETATM    8  C1  UNL     1      16.112  -6.966  11.421  1.00  0.00     0.267 C 
ATOM      9  H12 UNL     1      17.177  -5.253  11.936  1.00  0.00     0.277 HD
ATOM     10  H11 UNL     1      17.271  -6.327  13.029  1.00  0.00     0.277 HD
ENDBRANCH   1   7
TORSDOF 1
ENDMDL
MODEL 4
REMARK VINA RESULT: -3.839056802      9.856     10.190
REMARK  1 active torsions:
REMARK  status: ('A' for Active; 'I' for Inactive)
REMARK    1  A    between atoms: N1_2  and  C2_5 
ROOT
HETATM    1  C2  UNL     1      22.524  -2.239   9.765  1.00  0.00     0.204 C 
HETATM    2  C3  UNL     1      21.664  -1.582   8.694  1.00  0.00     0.036 C 
HETATM    3  C4  UNL     1      22.086  -0.222   9.235  1.00  0.00     0.025 C 
HETATM    4  C5  UNL     1      22.469  -0.955  10.512  1.00  0.00     0.043 C 
HETATM    5  C6  UNL     1      21.287  -0.953  11.476  1.00  0.00     0.030 C 
HETATM    6  S1  UNL     1      23.965  -0.340  11.265  1.00  0.00    -0.085 SA
ENDROOT
BRANCH   1   7
HETATM    7  N1  UNL     1      23.795  -2.729   9.335  1.00  0.00    -0.073 N 
HETATM    8  C1  UNL     1      24.026  -4.016   9.991  1.00  0.00     0.267 C 
ATOM      9  H12 UNL     1      24.550  -2.063   9.496  1.00  0.00     0.277 HD
ATOM     10  H11 UNL     1      23.874  -2.782   8.320  1.00  0.00     0.277 HD
ENDBRANCH   1   7
TORSDOF 1
ENDMDL
MODEL 5
REMARK VINA RESULT: -3.668297521     10.781     11.574
REMARK  1 active torsions:
REMARK  status: ('A' for Active; 'I' for Inactive)
REMARK    1  A    between atoms: N1_2  and  C2_5 
ROOT
HETATM    1  C2  UNL     1      22.866  -1.294  12.559  1.00  0.00     0.204 C 
HETATM    2  C3  UNL     1      23.030  -1.249  14.071  1.00  0.00     0.036 C 
HETATM    3  C4  UNL     1      24.443  -0.713  13.870  1.00  0.00     0.025 C 
HETATM    4  C5  UNL     1      24.349  -1.269  12.456  1.00  0.00     0.043 C 
HETATM    5  C6  UNL     1      24.902  -2.691  12.430  1.00  0.00     0.030 C 
HETATM    6  S1  UNL     1      25.103  -0.220  11.226  1.00  0.00    -0.085 SA
ENDROOT
BRANCH   1   7
HETATM    7  N1  UNL     1      22.120  -0.225  11.977  1.00  0.00    -0.073 N 
HETATM    8  C1  UNL     1      21.176  -0.803  11.020  1.00  0.00     0.267 C 
ATOM      9  H12 UNL     1      22.715   0.491  11.560  1.00  0.00     0.277 HD
ATOM     10  H11 UNL     1      21.666   0.365  12.674  1.00  0.00     0.277 HD
ENDBRANCH   1   7
TORSDOF 1
ENDMDL
