MODEL 1
REMARK VINA RESULT: -5.140241027      0.000      0.000
REMARK  2 active torsions:
REMARK  status: ('A' for Active; 'I' for Inactive)
REMARK    1  A    between atoms: C2_2  and  N1_4 
REMARK    2  A    between atoms: N1_4  and  C4_6 
ROOT
HETATM    1  C4  UNL     1      17.106  -8.148  11.428  1.00  0.00     0.280 C 
HETATM    2  C5  UNL     1      17.895  -9.402  11.430  1.00  0.00     0.054 C 
HETATM    3  C6  UNL     1      17.167 -10.420  10.574  1.00  0.00     0.005 C 
HETATM    4  C7  UNL     1      15.673 -10.263  10.651  1.00  0.00     0.028 C 
HETATM    5  C8  UNL     1      15.212  -8.875  10.303  1.00  0.00     0.235 C 
HETATM    6  N2  UNL     1      16.388  -8.009  10.172  1.00  0.00    -0.055 N 
ATOM      7  H21 UNL     1      16.957  -8.208   9.349  1.00  0.00     0.279 HD
ATOM      8  H22 UNL     1      16.164  -7.044   9.931  1.00  0.00     0.279 HD
ENDROOT
BRANCH   1   9
HETATM    9  N1  UNL     1      17.768  -6.953  11.725  1.00  0.00    -0.392 N 
ATOM     10  H1  UNL     1      17.250  -6.075  11.685  1.00  0.00     0.155 HD
BRANCH   9  11
HETATM   11  C2  UNL     1      19.125  -6.931  12.078  1.00  0.00     0.070 C 
HETATM   12  C1  UNL     1      20.093  -6.350  11.103  1.00  0.00     0.031 C 
HETATM   13  C3  UNL     1      19.196  -6.001  13.310  1.00  0.00     0.031 C 
ENDBRANCH   9  11
ENDBRANCH   1   9
TORSDOF 2
ENDMDL
MODEL 2
REMARK VINA RESULT: -5.118233676      2.829      3.879
REMARK  2 active torsions:
REMARK  status: ('A' for Active; 'I' for Inactive)
REMARK    1  A    between atoms: C2_2  and  N1_4 
REMARK    2  A    between atoms: N1_4  and  C4_6 
ROOT
HETATM    1  C4  UNL     1      17.828 -10.848  10.929  1.00  0.00     0.280 C 
HETATM    2  C5  UNL     1      17.780  -9.446  11.407  1.00  0.00     0.054 C 
HETATM    3  C6  UNL     1      16.472  -8.835  10.947  1.00  0.00     0.005 C 
HETATM    4  C7  UNL     1      16.027  -9.377   9.616  1.00  0.00     0.028 C 
HETATM    5  C8  UNL     1      15.927 -10.877   9.600  1.00  0.00     0.235 C 
HETATM    6  N2  UNL     1      16.485 -11.398  10.852  1.00  0.00    -0.055 N 
ATOM      7  H21 UNL     1      15.912 -11.200  11.672  1.00  0.00     0.279 HD
ATOM      8  H22 UNL     1      16.452 -12.414  10.927  1.00  0.00     0.279 HD
ENDROOT
BRANCH   1   9
HETATM    9  N1  UNL     1      18.665 -11.744  11.600  1.00  0.00    -0.392 N 
ATOM     10  H1  UNL     1      18.249 -12.510  12.130  1.00  0.00     0.155 HD
BRANCH   9  11
HETATM   11  C2  UNL     1      20.061 -11.616  11.563  1.00  0.00     0.070 C 
HETATM   12  C1  UNL     1      20.701 -10.647  12.501  1.00  0.00     0.031 C 
HETATM   13  C3  UNL     1      20.593 -13.001  11.999  1.00  0.00     0.031 C 
ENDBRANCH   9  11
ENDBRANCH   1   9
TORSDOF 2
ENDMDL
MODEL 3
REMARK VINA RESULT: -5.047803789      1.009      1.068
REMARK  2 active torsions:
REMARK  status: ('A' for Active; 'I' for Inactive)
REMARK    1  A    between atoms: C2_2  and  N1_4 
REMARK    2  A    between atoms: N1_4  and  C4_6 
ROOT
HETATM    1  C4  UNL     1      17.336  -7.158  11.715  1.00  0.00     0.280 C 
HETATM    2  C5  UNL     1      17.887  -8.533  11.750  1.00  0.00     0.054 C 
HETATM    3  C6  UNL     1      17.016  -9.414  10.877  1.00  0.00     0.005 C 
HETATM    4  C7  UNL     1      15.572  -8.992  10.904  1.00  0.00     0.028 C 
HETATM    5  C8  UNL     1      15.378  -7.548  10.533  1.00  0.00     0.235 C 
HETATM    6  N2  UNL     1      16.694  -6.908  10.435  1.00  0.00    -0.055 N 
ATOM      7  H21 UNL     1      17.242  -7.215   9.632  1.00  0.00     0.279 HD
ATOM      8  H22 UNL     1      16.654  -5.921  10.181  1.00  0.00     0.279 HD
ENDROOT
BRANCH   1   9
HETATM    9  N1  UNL     1      18.191  -6.097  12.026  1.00  0.00    -0.392 N 
ATOM     10  H1  UNL     1      17.832  -5.143  11.990  1.00  0.00     0.155 HD
BRANCH   9  11
HETATM   11  C2  UNL     1      19.529  -6.312  12.386  1.00  0.00     0.070 C 
HETATM   12  C1  UNL     1      20.580  -5.521  11.682  1.00  0.00     0.031 C 
HETATM   13  C3  UNL     1      19.616  -5.861  13.862  1.00  0.00     0.031 C 
ENDBRANCH   9  11
ENDBRANCH   1   9
TORSDOF 2
ENDMDL
MODEL 4
REMARK VINA RESULT: -5.044767845      0.951      1.507
REMARK  2 active torsions:
REMARK  status: ('A' for Active; 'I' for Inactive)
REMARK    1  A    between atoms: C2_2  and  N1_4 
REMARK    2  A    between atoms: N1_4  and  C4_6 
ROOT
HETATM    1  C4  UNL     1      17.581  -8.939  11.548  1.00  0.00     0.280 C 
HETATM    2  C5  UNL     1      17.412 -10.260  10.898  1.00  0.00     0.054 C 
HETATM    3  C6  UNL     1      16.091 -10.257  10.156  1.00  0.00     0.005 C 
HETATM    4  C7  UNL     1      15.048  -9.427  10.854  1.00  0.00     0.028 C 
HETATM    5  C8  UNL     1      15.499  -8.015  11.108  1.00  0.00     0.235 C 
HETATM    6  N2  UNL     1      16.920  -7.908  10.766  1.00  0.00    -0.055 N 
ATOM      7  H21 UNL     1      17.109  -7.966   9.765  1.00  0.00     0.279 HD
ATOM      8  H22 UNL     1      17.308  -6.974  10.905  1.00  0.00     0.279 HD
ENDROOT
BRANCH   1   9
HETATM    9  N1  UNL     1      18.875  -8.525  11.874  1.00  0.00    -0.392 N 
ATOM     10  H1  UNL     1      19.558  -9.220  12.176  1.00  0.00     0.155 HD
BRANCH   9  11
HETATM   11  C2  UNL     1      19.258  -7.178  11.797  1.00  0.00     0.070 C 
HETATM   12  C1  UNL     1      19.221  -6.366  13.048  1.00  0.00     0.031 C 
HETATM   13  C3  UNL     1      20.750  -7.217  11.393  1.00  0.00     0.031 C 
ENDBRANCH   9  11
ENDBRANCH   1   9
TORSDOF 2
ENDMDL
MODEL 5
REMARK VINA RESULT: -5.040751997      2.459      3.023
REMARK  2 active torsions:
REMARK  status: ('A' for Active; 'I' for Inactive)
REMARK    1  A    between atoms: C2_2  and  N1_4 
REMARK    2  A    between atoms: N1_4  and  C4_6 
ROOT
HETATM    1  C4  UNL     1      18.224  -9.988  11.124  1.00  0.00     0.280 C 
HETATM    2  C5  UNL     1      17.527  -8.737  11.502  1.00  0.00     0.054 C 
HETATM    3  C6  UNL     1      16.095  -8.828  11.014  1.00  0.00     0.005 C 
HETATM    4  C7  UNL     1      15.980  -9.602   9.730  1.00  0.00     0.028 C 
HETATM    5  C8  UNL     1      16.580 -10.977   9.821  1.00  0.00     0.235 C 
HETATM    6  N2  UNL     1      17.286 -11.097  11.100  1.00  0.00    -0.055 N 
ATOM      7  H21 UNL     1      16.668 -11.131  11.911  1.00  0.00     0.279 HD
ATOM      8  H22 UNL     1      17.722 -12.008  11.247  1.00  0.00     0.279 HD
ENDROOT
BRANCH   1   9
HETATM    9  N1  UNL     1      19.364 -10.352  11.847  1.00  0.00    -0.392 N 
ATOM     10  H1  UNL     1      19.341 -11.196  12.419  1.00  0.00     0.155 HD
BRANCH   9  11
HETATM   11  C2  UNL     1      20.537  -9.585  11.807  1.00  0.00     0.070 C 
HETATM   12  C1  UNL     1      20.861  -8.736  12.991  1.00  0.00     0.031 C 
HETATM   13  C3  UNL     1      21.682 -10.621  11.738  1.00  0.00     0.031 C 
ENDBRANCH   9  11
ENDBRANCH   1   9
TORSDOF 2
ENDMDL
