MODEL 1
REMARK VINA RESULT: -6.180845010      0.000      0.000
REMARK  4 active torsions:
REMARK  status: ('A' for Active; 'I' for Inactive)
REMARK    1  A    between atoms: N1_1  and  C1_4 
REMARK    2  A    between atoms: C5_14  and  C6_15 
REMARK    3  A    between atoms: C6_15  and  C7_16 
REMARK    4  A    between atoms: C7_16  and  N5_17 
ROOT
HETATM    1  C1  UNL     1     -31.953   7.484 -27.090  1.00  0.00     0.223 A 
HETATM    2  N2  UNL     1     -31.484   6.235 -26.928  1.00  0.00    -0.306 N 
ATOM      3  H2  UNL     1     -32.030   5.449 -27.281  1.00  0.00     0.171 HD
HETATM    4  C2  UNL     1     -30.324   5.998 -26.316  1.00  0.00     0.137 A 
HETATM    5  N3  UNL     1     -29.650   4.871 -26.033  1.00  0.00    -0.285 N 
ATOM      6  H3  UNL     1     -29.937   3.919 -26.260  1.00  0.00     0.188 HD
HETATM    7  N4  UNL     1     -28.544   5.233 -25.406  1.00  0.00    -0.309 N 
ATOM      8  H4  UNL     1     -27.833   4.586 -25.067  1.00  0.00     0.186 HD
HETATM    9  C3  UNL     1     -28.483   6.570 -25.274  1.00  0.00     0.125 A 
HETATM   10  C4  UNL     1     -29.616   7.106 -25.850  1.00  0.00     0.056 A 
HETATM   11  C5  UNL     1     -30.110   8.388 -26.023  1.00  0.00     0.073 A 
HETATM   12  O1  UNL     1     -31.250   8.495 -26.634  1.00  0.00    -0.283 OA
ENDROOT
BRANCH  11  13
HETATM   13  C6  UNL     1     -29.298   9.515 -25.499  1.00  0.00     0.093 C 
BRANCH  13  14
HETATM   14  C7  UNL     1     -29.773   9.967 -24.143  1.00  0.00     0.236 C 
BRANCH  14  15
HETATM   15  N5  UNL     1     -28.939   9.413 -23.098  1.00  0.00    -0.079 N 
ATOM     16  H53 UNL     1     -27.951   9.615 -23.256  1.00  0.00     0.274 HD
ATOM     17  H52 UNL     1     -29.058   9.911 -22.216  1.00  0.00     0.274 HD
ATOM     18  H51 UNL     1     -29.109   8.413 -22.994  1.00  0.00     0.274 HD
ENDBRANCH  14  15
ENDBRANCH  13  14
ENDBRANCH  11  13
BRANCH   1  19
HETATM   19  N1  UNL     1     -33.097   7.700 -27.695  1.00  0.00    -0.365 N 
ATOM     20  H12 UNL     1     -33.970   7.428 -27.244  1.00  0.00     0.159 HD
ATOM     21  H11 UNL     1     -33.127   8.141 -28.614  1.00  0.00     0.159 HD
ENDBRANCH   1  19
TORSDOF 4
ENDMDL
MODEL 2
REMARK VINA RESULT: -6.163817561      1.682      4.036
REMARK  4 active torsions:
REMARK  status: ('A' for Active; 'I' for Inactive)
REMARK    1  A    between atoms: N1_1  and  C1_4 
REMARK    2  A    between atoms: C5_14  and  C6_15 
REMARK    3  A    between atoms: C6_15  and  C7_16 
REMARK    4  A    between atoms: C7_16  and  N5_17 
ROOT
HETATM    1  C1  UNL     1     -29.431   9.169 -25.375  1.00  0.00     0.223 A 
HETATM    2  N2  UNL     1     -30.644   9.242 -25.950  1.00  0.00    -0.306 N 
ATOM      3  H2  UNL     1     -31.144  10.131 -25.943  1.00  0.00     0.171 HD
HETATM    4  C2  UNL     1     -31.208   8.182 -26.526  1.00  0.00     0.137 A 
HETATM    5  N3  UNL     1     -32.381   7.996 -27.155  1.00  0.00    -0.285 N 
ATOM      6  H3  UNL     1     -33.104   8.698 -27.311  1.00  0.00     0.188 HD
HETATM    7  N4  UNL     1     -32.418   6.729 -27.530  1.00  0.00    -0.309 N 
ATOM      8  H4  UNL     1     -33.193   6.296 -28.032  1.00  0.00     0.186 HD
HETATM    9  C3  UNL     1     -31.295   6.086 -27.162  1.00  0.00     0.125 A 
HETATM   10  C4  UNL     1     -30.484   6.989 -26.508  1.00  0.00     0.056 A 
HETATM   11  C5  UNL     1     -29.235   6.927 -25.912  1.00  0.00     0.073 A 
HETATM   12  O1  UNL     1     -28.787   8.024 -25.383  1.00  0.00    -0.283 OA
ENDROOT
BRANCH  11  13
HETATM   13  C6  UNL     1     -28.527   5.623 -25.933  1.00  0.00     0.093 C 
BRANCH  13  14
HETATM   14  C7  UNL     1     -29.063   4.675 -24.893  1.00  0.00     0.236 C 
BRANCH  14  15
HETATM   15  N5  UNL     1     -29.423   3.409 -25.492  1.00  0.00    -0.079 N 
ATOM     16  H53 UNL     1     -28.838   3.192 -26.300  1.00  0.00     0.274 HD
ATOM     17  H52 UNL     1     -29.162   2.622 -24.898  1.00  0.00     0.274 HD
ATOM     18  H51 UNL     1     -30.415   3.391 -25.728  1.00  0.00     0.274 HD
ENDBRANCH  14  15
ENDBRANCH  13  14
ENDBRANCH  11  13
BRANCH   1  19
HETATM   19  N1  UNL     1     -28.888  10.222 -24.811  1.00  0.00    -0.365 N 
ATOM     20  H12 UNL     1     -28.199  10.104 -24.069  1.00  0.00     0.159 HD
ATOM     21  H11 UNL     1     -29.147  11.164 -25.105  1.00  0.00     0.159 HD
ENDBRANCH   1  19
TORSDOF 4
ENDMDL
MODEL 3
REMARK VINA RESULT: -5.769531416      1.129      3.052
REMARK  4 active torsions:
REMARK  status: ('A' for Active; 'I' for Inactive)
REMARK    1  A    between atoms: N1_1  and  C1_4 
REMARK    2  A    between atoms: C5_14  and  C6_15 
REMARK    3  A    between atoms: C6_15  and  C7_16 
REMARK    4  A    between atoms: C7_16  and  N5_17 
ROOT
HETATM    1  C1  UNL     1     -29.249   5.730 -25.576  1.00  0.00     0.223 A 
HETATM    2  N2  UNL     1     -30.347   5.421 -26.286  1.00  0.00    -0.306 N 
ATOM      3  H2  UNL     1     -30.580   4.439 -26.440  1.00  0.00     0.171 HD
HETATM    4  C2  UNL     1     -31.140   6.364 -26.793  1.00  0.00     0.137 A 
HETATM    5  N3  UNL     1     -32.268   6.320 -27.521  1.00  0.00    -0.285 N 
ATOM      6  H3  UNL     1     -32.754   5.481 -27.838  1.00  0.00     0.188 HD
HETATM    7  N4  UNL     1     -32.627   7.572 -27.749  1.00  0.00    -0.309 N 
ATOM      8  H4  UNL     1     -33.451   7.850 -28.280  1.00  0.00     0.186 HD
HETATM    9  C3  UNL     1     -31.758   8.430 -27.185  1.00  0.00     0.125 A 
HETATM   10  C4  UNL     1     -30.778   7.691 -26.556  1.00  0.00     0.056 A 
HETATM   11  C5  UNL     1     -29.644   7.996 -25.823  1.00  0.00     0.073 A 
HETATM   12  O1  UNL     1     -28.950   6.994 -25.379  1.00  0.00    -0.283 OA
ENDROOT
BRANCH  11  13
HETATM   13  C6  UNL     1     -29.326   9.431 -25.613  1.00  0.00     0.093 C 
BRANCH  13  14
HETATM   14  C7  UNL     1     -29.718   9.898 -24.236  1.00  0.00     0.236 C 
BRANCH  14  15
HETATM   15  N5  UNL     1     -28.924   9.234 -23.225  1.00  0.00    -0.079 N 
ATOM     16  H53 UNL     1     -28.565   8.338 -23.555  1.00  0.00     0.274 HD
ATOM     17  H52 UNL     1     -28.034   9.708 -23.071  1.00  0.00     0.274 HD
ATOM     18  H51 UNL     1     -29.454   9.133 -22.359  1.00  0.00     0.274 HD
ENDBRANCH  14  15
ENDBRANCH  13  14
ENDBRANCH  11  13
BRANCH   1  19
HETATM   19  N1  UNL     1     -28.479   4.789 -25.083  1.00  0.00    -0.365 N 
ATOM     20  H12 UNL     1     -27.564   4.611 -25.497  1.00  0.00     0.159 HD
ATOM     21  H11 UNL     1     -28.783   4.229 -24.286  1.00  0.00     0.159 HD
ENDBRANCH   1  19
TORSDOF 4
ENDMDL
MODEL 4
REMARK VINA RESULT: -5.688592629      1.678      3.605
REMARK  4 active torsions:
REMARK  status: ('A' for Active; 'I' for Inactive)
REMARK    1  A    between atoms: N1_1  and  C1_4 
REMARK    2  A    between atoms: C5_14  and  C6_15 
REMARK    3  A    between atoms: C6_15  and  C7_16 
REMARK    4  A    between atoms: C7_16  and  N5_17 
ROOT
HETATM    1  C1  UNL     1     -31.840   6.970 -27.143  1.00  0.00     0.223 A 
HETATM    2  N2  UNL     1     -31.676   8.230 -26.707  1.00  0.00    -0.306 N 
ATOM      3  H2  UNL     1     -32.395   8.924 -26.910  1.00  0.00     0.171 HD
HETATM    4  C2  UNL     1     -30.596   8.595 -26.018  1.00  0.00     0.137 A 
HETATM    5  N3  UNL     1     -30.201   9.763 -25.482  1.00  0.00    -0.285 N 
ATOM      6  H3  UNL     1     -30.707  10.648 -25.515  1.00  0.00     0.188 HD
HETATM    7  N4  UNL     1     -29.032   9.544 -24.904  1.00  0.00    -0.309 N 
ATOM      8  H4  UNL     1     -28.488  10.253 -24.413  1.00  0.00     0.186 HD
HETATM    9  C3  UNL     1     -28.658   8.261 -25.051  1.00  0.00     0.125 A 
HETATM   10  C4  UNL     1     -29.641   7.610 -25.766  1.00  0.00     0.056 A 
HETATM   11  C5  UNL     1     -29.822   6.314 -26.221  1.00  0.00     0.073 A 
HETATM   12  O1  UNL     1     -30.913   6.076 -26.882  1.00  0.00    -0.283 OA
ENDROOT
BRANCH  11  13
HETATM   13  C6  UNL     1     -28.761   5.323 -25.914  1.00  0.00     0.093 C 
BRANCH  13  14
HETATM   14  C7  UNL     1     -29.238   4.269 -24.949  1.00  0.00     0.236 C 
BRANCH  14  15
HETATM   15  N5  UNL     1     -29.224   2.963 -25.571  1.00  0.00    -0.079 N 
ATOM     16  H53 UNL     1     -28.356   2.462 -25.379  1.00  0.00     0.274 HD
ATOM     17  H52 UNL     1     -29.874   2.321 -25.117  1.00  0.00     0.274 HD
ATOM     18  H51 UNL     1     -29.404   3.038 -26.572  1.00  0.00     0.274 HD
ENDBRANCH  14  15
ENDBRANCH  13  14
ENDBRANCH  11  13
BRANCH   1  19
HETATM   19  N1  UNL     1     -32.909   6.625 -27.821  1.00  0.00    -0.365 N 
ATOM     20  H12 UNL     1     -32.817   6.282 -28.777  1.00  0.00     0.159 HD
ATOM     21  H11 UNL     1     -33.838   6.696 -27.405  1.00  0.00     0.159 HD
ENDBRANCH   1  19
TORSDOF 4
ENDMDL
MODEL 5
REMARK VINA RESULT: -5.543402236      1.376      3.677
REMARK  4 active torsions:
REMARK  status: ('A' for Active; 'I' for Inactive)
REMARK    1  A    between atoms: N1_1  and  C1_4 
REMARK    2  A    between atoms: C5_14  and  C6_15 
REMARK    3  A    between atoms: C6_15  and  C7_16 
REMARK    4  A    between atoms: C7_16  and  N5_17 
ROOT
HETATM    1  C1  UNL     1     -29.155   9.469 -25.545  1.00  0.00     0.223 A 
HETATM    2  N2  UNL     1     -28.283   8.457 -25.400  1.00  0.00    -0.306 N 
ATOM      3  H2  UNL     1     -27.331   8.661 -25.097  1.00  0.00     0.171 HD
HETATM    4  C2  UNL     1     -28.633   7.194 -25.642  1.00  0.00     0.137 A 
HETATM    5  N3  UNL     1     -27.966   6.029 -25.574  1.00  0.00    -0.285 N 
ATOM      6  H3  UNL     1     -26.992   5.902 -25.301  1.00  0.00     0.188 HD
HETATM    7  N4  UNL     1     -28.816   5.080 -25.929  1.00  0.00    -0.309 N 
ATOM      8  H4  UNL     1     -28.589   4.087 -25.972  1.00  0.00     0.186 HD
HETATM    9  C3  UNL     1     -30.019   5.601 -26.226  1.00  0.00     0.125 A 
HETATM   10  C4  UNL     1     -29.946   6.967 -26.054  1.00  0.00     0.056 A 
HETATM   11  C5  UNL     1     -30.835   8.019 -26.200  1.00  0.00     0.073 A 
HETATM   12  O1  UNL     1     -30.381   9.206 -25.935  1.00  0.00    -0.283 OA
ENDROOT
BRANCH  11  13
HETATM   13  C6  UNL     1     -32.215   7.697 -26.642  1.00  0.00     0.093 C 
BRANCH  13  14
HETATM   14  C7  UNL     1     -32.441   8.055 -28.087  1.00  0.00     0.236 C 
BRANCH  14  15
HETATM   15  N5  UNL     1     -33.823   7.843 -28.457  1.00  0.00    -0.079 N 
ATOM     16  H53 UNL     1     -34.392   8.672 -28.284  1.00  0.00     0.274 HD
ATOM     17  H52 UNL     1     -33.939   7.785 -29.468  1.00  0.00     0.274 HD
ATOM     18  H51 UNL     1     -34.200   7.020 -27.985  1.00  0.00     0.274 HD
ENDBRANCH  14  15
ENDBRANCH  13  14
ENDBRANCH  11  13
BRANCH   1  19
HETATM   19  N1  UNL     1     -28.796  10.707 -25.303  1.00  0.00    -0.365 N 
ATOM     20  H12 UNL     1     -29.087  11.161 -24.437  1.00  0.00     0.159 HD
ATOM     21  H11 UNL     1     -28.226  11.227 -25.970  1.00  0.00     0.159 HD
ENDBRANCH   1  19
TORSDOF 4
ENDMDL
