MODEL 1
REMARK VINA RESULT: -5.472025296      0.000      0.000
REMARK  4 active torsions:
REMARK  status: ('A' for Active; 'I' for Inactive)
REMARK    1  A    between atoms: C3_3  and  C4_4 
REMARK    2  A    between atoms: C4_4  and  N1_5 
REMARK    3  A    between atoms: N1_5  and  N2_6 
REMARK    4  A    between atoms: N2_6  and  C5_8 
ROOT
HETATM    1  N1  UNL     1     -28.481   6.192 -26.725  1.00  0.00    -0.133 NA
ENDROOT
BRANCH   1   2
HETATM    2  C4  UNL     1     -29.407   7.039 -26.024  1.00  0.00     0.193 C 
BRANCH   2   3
HETATM    3  C3  UNL     1     -30.717   6.983 -26.679  1.00  0.00     0.043 A 
HETATM    4  C2  UNL     1     -31.423   8.176 -26.907  1.00  0.00     0.046 A 
HETATM    5  C1  UNL     1     -32.613   7.823 -27.481  1.00  0.00     0.109 A 
HETATM    6  N6  UNL     1     -32.616   6.472 -27.592  1.00  0.00    -0.312 N 
HETATM    7  N5  UNL     1     -31.465   6.015 -27.100  1.00  0.00    -0.304 N 
ATOM      8  H6  UNL     1     -33.368   5.904 -27.983  1.00  0.00     0.186 HD
ATOM      9  H5  UNL     1     -31.208   5.029 -27.061  1.00  0.00     0.186 HD
ENDBRANCH   2   3
ENDBRANCH   1   2
BRANCH   1  10
HETATM   10  N2  UNL     1     -28.080   5.107 -26.039  1.00  0.00    -0.275 N 
ATOM     11  H2  UNL     1     -27.074   5.013 -25.905  1.00  0.00     0.185 HD
BRANCH  10  12
HETATM   12  C5  UNL     1     -28.872   4.086 -25.483  1.00  0.00     0.189 A 
HETATM   13  N3  UNL     1     -29.036   2.804 -25.802  1.00  0.00    -0.345 N 
HETATM   14  C6  UNL     1     -29.985   2.522 -24.762  1.00  0.00     0.249 A 
ATOM     15  H3  UNL     1     -28.628   2.223 -26.533  1.00  0.00     0.164 HD
HETATM   16  N4  UNL     1     -29.786   3.910 -24.419  1.00  0.00    -0.345 N 
ATOM     17  H4  UNL     1     -30.158   4.523 -23.694  1.00  0.00     0.164 HD
ENDBRANCH  10  12
ENDBRANCH   1  10
TORSDOF 4
ENDMDL
MODEL 2
REMARK VINA RESULT: -5.405074154      3.987      5.913
REMARK  4 active torsions:
REMARK  status: ('A' for Active; 'I' for Inactive)
REMARK    1  A    between atoms: C3_3  and  C4_4 
REMARK    2  A    between atoms: C4_4  and  N1_5 
REMARK    3  A    between atoms: N1_5  and  N2_6 
REMARK    4  A    between atoms: N2_6  and  C5_8 
ROOT
HETATM    1  N1  UNL     1     -29.476   9.618 -25.573  1.00  0.00    -0.133 NA
ENDROOT
BRANCH   1   2
HETATM    2  C4  UNL     1     -29.287   8.196 -25.489  1.00  0.00     0.193 C 
BRANCH   2   3
HETATM    3  C3  UNL     1     -30.359   7.513 -26.220  1.00  0.00     0.043 A 
HETATM    4  C2  UNL     1     -31.368   8.276 -26.830  1.00  0.00     0.046 A 
HETATM    5  C1  UNL     1     -32.244   7.389 -27.393  1.00  0.00     0.109 A 
HETATM    6  N6  UNL     1     -31.774   6.145 -27.128  1.00  0.00    -0.312 N 
HETATM    7  N5  UNL     1     -30.649   6.269 -26.426  1.00  0.00    -0.304 N 
ATOM      8  H6  UNL     1     -32.207   5.267 -27.416  1.00  0.00     0.186 HD
ATOM      9  H5  UNL     1     -30.088   5.485 -26.095  1.00  0.00     0.186 HD
ENDBRANCH   2   3
ENDBRANCH   1   2
BRANCH   1  10
HETATM   10  N2  UNL     1     -28.387  10.309 -25.953  1.00  0.00    -0.275 N 
ATOM     11  H2  UNL     1     -27.601   9.751 -26.286  1.00  0.00     0.185 HD
BRANCH  10  12
HETATM   12  C5  UNL     1     -28.194  11.702 -25.950  1.00  0.00     0.189 A 
HETATM   13  N3  UNL     1     -27.645  12.529 -25.063  1.00  0.00    -0.345 N 
HETATM   14  C6  UNL     1     -27.864  13.723 -25.832  1.00  0.00     0.249 A 
ATOM     15  H3  UNL     1     -27.218  12.370 -24.151  1.00  0.00     0.164 HD
HETATM   16  N4  UNL     1     -28.442  12.811 -26.791  1.00  0.00    -0.345 N 
ATOM     17  H4  UNL     1     -28.864  12.923 -27.712  1.00  0.00     0.164 HD
ENDBRANCH  10  12
ENDBRANCH   1  10
TORSDOF 4
ENDMDL
MODEL 3
REMARK VINA RESULT: -5.310961411      2.084      5.475
REMARK  4 active torsions:
REMARK  status: ('A' for Active; 'I' for Inactive)
REMARK    1  A    between atoms: C3_3  and  C4_4 
REMARK    2  A    between atoms: C4_4  and  N1_5 
REMARK    3  A    between atoms: N1_5  and  N2_6 
REMARK    4  A    between atoms: N2_6  and  C5_8 
ROOT
HETATM    1  N1  UNL     1     -32.503   7.746 -26.715  1.00  0.00    -0.133 NA
ENDROOT
BRANCH   1   2
HETATM    2  C4  UNL     1     -31.093   8.019 -26.746  1.00  0.00     0.193 C 
BRANCH   2   3
HETATM    3  C3  UNL     1     -30.353   6.828 -26.318  1.00  0.00     0.043 A 
HETATM    4  C2  UNL     1     -28.995   6.949 -25.977  1.00  0.00     0.046 A 
HETATM    5  C1  UNL     1     -28.557   5.692 -25.664  1.00  0.00     0.109 A 
HETATM    6  N6  UNL     1     -29.613   4.854 -25.812  1.00  0.00    -0.312 N 
HETATM    7  N5  UNL     1     -30.661   5.577 -26.203  1.00  0.00    -0.304 N 
ATOM      8  H6  UNL     1     -29.606   3.847 -25.651  1.00  0.00     0.186 HD
ATOM      9  H5  UNL     1     -31.587   5.193 -26.389  1.00  0.00     0.186 HD
ENDBRANCH   2   3
ENDBRANCH   1   2
BRANCH   1  10
HETATM   10  N2  UNL     1     -33.104   7.749 -27.918  1.00  0.00    -0.275 N 
ATOM     11  H2  UNL     1     -32.504   7.967 -28.714  1.00  0.00     0.185 HD
BRANCH  10  12
HETATM   12  C5  UNL     1     -34.452   7.488 -28.220  1.00  0.00     0.189 A 
HETATM   13  N3  UNL     1     -35.100   6.372 -28.543  1.00  0.00    -0.345 N 
HETATM   14  C6  UNL     1     -36.389   6.990 -28.679  1.00  0.00     0.249 A 
ATOM     15  H3  UNL     1     -34.788   5.407 -28.657  1.00  0.00     0.164 HD
HETATM   16  N4  UNL     1     -35.676   8.192 -28.313  1.00  0.00    -0.345 N 
ATOM     17  H4  UNL     1     -35.948   9.165 -28.174  1.00  0.00     0.164 HD
ENDBRANCH  10  12
ENDBRANCH   1  10
TORSDOF 4
ENDMDL
MODEL 4
REMARK VINA RESULT: -5.295850164      4.026      6.203
REMARK  4 active torsions:
REMARK  status: ('A' for Active; 'I' for Inactive)
REMARK    1  A    between atoms: C3_3  and  C4_4 
REMARK    2  A    between atoms: C4_4  and  N1_5 
REMARK    3  A    between atoms: N1_5  and  N2_6 
REMARK    4  A    between atoms: N2_6  and  C5_8 
ROOT
HETATM    1  N1  UNL     1     -29.334   9.534 -25.262  1.00  0.00    -0.133 NA
ENDROOT
BRANCH   1   2
HETATM    2  C4  UNL     1     -30.313   8.784 -26.001  1.00  0.00     0.193 C 
BRANCH   2   3
HETATM    3  C3  UNL     1     -29.975   7.359 -25.957  1.00  0.00     0.043 A 
HETATM    4  C2  UNL     1     -28.653   6.975 -25.675  1.00  0.00     0.046 A 
HETATM    5  C1  UNL     1     -28.620   5.609 -25.744  1.00  0.00     0.109 A 
HETATM    6  N6  UNL     1     -29.872   5.196 -26.055  1.00  0.00    -0.312 N 
HETATM    7  N5  UNL     1     -30.645   6.274 -26.173  1.00  0.00    -0.304 N 
ATOM      8  H6  UNL     1     -30.171   4.228 -26.178  1.00  0.00     0.186 HD
ATOM      9  H5  UNL     1     -31.638   6.248 -26.404  1.00  0.00     0.186 HD
ENDBRANCH   2   3
ENDBRANCH   1   2
BRANCH   1  10
HETATM   10  N2  UNL     1     -28.496  10.264 -26.018  1.00  0.00    -0.275 N 
ATOM     11  H2  UNL     1     -27.974   9.749 -26.727  1.00  0.00     0.185 HD
BRANCH  10  12
HETATM   12  C5  UNL     1     -28.248  11.647 -25.957  1.00  0.00     0.189 A 
HETATM   13  N3  UNL     1     -27.663  12.414 -25.040  1.00  0.00    -0.345 N 
HETATM   14  C6  UNL     1     -27.836  13.647 -25.755  1.00  0.00     0.249 A 
ATOM     15  H3  UNL     1     -27.238  12.199 -24.137  1.00  0.00     0.164 HD
HETATM   16  N4  UNL     1     -28.455  12.800 -26.749  1.00  0.00    -0.345 N 
ATOM     17  H4  UNL     1     -28.875  12.968 -27.663  1.00  0.00     0.164 HD
ENDBRANCH  10  12
ENDBRANCH   1  10
TORSDOF 4
ENDMDL
MODEL 5
REMARK VINA RESULT: -5.062943290      4.022      6.330
REMARK  4 active torsions:
REMARK  status: ('A' for Active; 'I' for Inactive)
REMARK    1  A    between atoms: C3_3  and  C4_4 
REMARK    2  A    between atoms: C4_4  and  N1_5 
REMARK    3  A    between atoms: N1_5  and  N2_6 
REMARK    4  A    between atoms: N2_6  and  C5_8 
ROOT
HETATM    1  N1  UNL     1     -29.293   9.580 -25.216  1.00  0.00    -0.133 NA
ENDROOT
BRANCH   1   2
HETATM    2  C4  UNL     1     -30.131   8.648 -25.918  1.00  0.00     0.193 C 
BRANCH   2   3
HETATM    3  C3  UNL     1     -29.473   7.339 -25.973  1.00  0.00     0.043 A 
HETATM    4  C2  UNL     1     -30.253   6.174 -25.888  1.00  0.00     0.046 A 
HETATM    5  C1  UNL     1     -29.384   5.118 -25.920  1.00  0.00     0.109 A 
HETATM    6  N6  UNL     1     -28.134   5.635 -26.020  1.00  0.00    -0.312 N 
HETATM    7  N5  UNL     1     -28.238   6.963 -26.048  1.00  0.00    -0.304 N 
ATOM      8  H6  UNL     1     -27.267   5.100 -26.066  1.00  0.00     0.186 HD
ATOM      9  H5  UNL     1     -27.445   7.600 -26.119  1.00  0.00     0.186 HD
ENDBRANCH   2   3
ENDBRANCH   1   2
BRANCH   1  10
HETATM   10  N2  UNL     1     -28.480  10.308 -26.002  1.00  0.00    -0.275 N 
ATOM     11  H2  UNL     1     -27.987   9.792 -26.731  1.00  0.00     0.185 HD
BRANCH  10  12
HETATM   12  C5  UNL     1     -28.223  11.690 -25.948  1.00  0.00     0.189 A 
HETATM   13  N3  UNL     1     -27.626  12.456 -25.038  1.00  0.00    -0.345 N 
HETATM   14  C6  UNL     1     -27.799  13.687 -25.756  1.00  0.00     0.249 A 
ATOM     15  H3  UNL     1     -27.195  12.242 -24.139  1.00  0.00     0.164 HD
HETATM   16  N4  UNL     1     -28.431  12.841 -26.741  1.00  0.00    -0.345 N 
ATOM     17  H4  UNL     1     -28.858  13.009 -27.652  1.00  0.00     0.164 HD
ENDBRANCH  10  12
ENDBRANCH   1  10
TORSDOF 4
ENDMDL
