MODEL 1
REMARK VINA RESULT: -5.216384141      0.000      0.000
REMARK  4 active torsions:
REMARK  status: ('A' for Active; 'I' for Inactive)
REMARK    1  A    between atoms: N1_1  and  C1_5 
REMARK    2  A    between atoms: C1_5  and  C2_6 
REMARK    3  A    between atoms: C2_6  and  S1_7 
REMARK    4  A    between atoms: S1_7  and  C3_8 
ROOT
HETATM    1  C3  UNL     1     -29.837   9.583 -25.356  1.00  0.00     0.125 A 
HETATM    2  C4  UNL     1     -29.789   9.740 -23.968  1.00  0.00     0.145 A 
HETATM    3  N2  UNL     1     -28.974  10.735 -23.637  1.00  0.00    -0.196 N 
ATOM      4  H2  UNL     1     -28.754  11.062 -22.696  1.00  0.00     0.183 HD
HETATM    5  C5  UNL     1     -28.496  11.225 -24.799  1.00  0.00     0.716 A 
HETATM    6  N3  UNL     1     -27.795  11.999 -25.622  1.00  0.00    -0.113 N 
ATOM      7  H3  UNL     1     -27.147  12.779 -25.518  1.00  0.00     0.203 HD
HETATM    8  N4  UNL     1     -28.303  11.320 -26.634  1.00  0.00     0.016 NA
HETATM    9  N5  UNL     1     -29.015  10.530 -25.840  1.00  0.00    -0.061 N 
ENDROOT
BRANCH   1  10
HETATM   10  S1  UNL     1     -30.740   8.381 -26.293  1.00  0.00    -0.107 SA
BRANCH  10  11
HETATM   11  C2  UNL     1     -30.062   6.744 -26.293  1.00  0.00     0.108 C 
BRANCH  11  12
HETATM   12  C1  UNL     1     -28.590   6.775 -25.986  1.00  0.00     0.240 C 
BRANCH  12  13
HETATM   13  N1  UNL     1     -27.948   5.517 -26.269  1.00  0.00    -0.079 N 
ATOM     14  H13 UNL     1     -27.642   5.058 -25.411  1.00  0.00     0.274 HD
ATOM     15  H12 UNL     1     -28.622   4.824 -26.593  1.00  0.00     0.274 HD
ATOM     16  H11 UNL     1     -27.176   5.619 -26.928  1.00  0.00     0.274 HD
ENDBRANCH  12  13
ENDBRANCH  11  12
ENDBRANCH  10  11
ENDBRANCH   1  10
TORSDOF 4
ENDMDL
MODEL 2
REMARK VINA RESULT: -5.002320836      1.880      4.969
REMARK  4 active torsions:
REMARK  status: ('A' for Active; 'I' for Inactive)
REMARK    1  A    between atoms: N1_1  and  C1_5 
REMARK    2  A    between atoms: C1_5  and  C2_6 
REMARK    3  A    between atoms: C2_6  and  S1_7 
REMARK    4  A    between atoms: S1_7  and  C3_8 
ROOT
HETATM    1  C3  UNL     1     -29.860   7.878 -25.775  1.00  0.00     0.125 A 
HETATM    2  C4  UNL     1     -31.012   7.323 -26.339  1.00  0.00     0.145 A 
HETATM    3  N2  UNL     1     -30.844   6.025 -26.568  1.00  0.00    -0.196 N 
ATOM      4  H2  UNL     1     -31.522   5.379 -26.973  1.00  0.00     0.183 HD
HETATM    5  C5  UNL     1     -29.593   5.735 -26.154  1.00  0.00     0.716 A 
HETATM    6  N3  UNL     1     -28.508   5.009 -25.906  1.00  0.00    -0.113 N 
ATOM      7  H3  UNL     1     -28.239   4.032 -26.024  1.00  0.00     0.203 HD
HETATM    8  N4  UNL     1     -27.929   6.100 -25.440  1.00  0.00     0.016 NA
HETATM    9  N5  UNL     1     -28.995   6.853 -25.676  1.00  0.00    -0.061 N 
ENDROOT
BRANCH   1  10
HETATM   10  S1  UNL     1     -29.563   9.564 -25.324  1.00  0.00    -0.107 SA
BRANCH  10  11
HETATM   11  C2  UNL     1     -28.229  10.361 -26.176  1.00  0.00     0.108 C 
BRANCH  11  12
HETATM   12  C1  UNL     1     -28.424  11.852 -26.198  1.00  0.00     0.240 C 
BRANCH  12  13
HETATM   13  N1  UNL     1     -27.526  12.531 -25.299  1.00  0.00    -0.079 N 
ATOM     14  H13 UNL     1     -26.600  12.104 -25.310  1.00  0.00     0.274 HD
ATOM     15  H12 UNL     1     -27.282  13.457 -25.650  1.00  0.00     0.274 HD
ATOM     16  H11 UNL     1     -27.897  12.582 -24.350  1.00  0.00     0.274 HD
ENDBRANCH  12  13
ENDBRANCH  11  12
ENDBRANCH  10  11
ENDBRANCH   1  10
TORSDOF 4
ENDMDL
MODEL 3
REMARK VINA RESULT: -4.835346776      2.584      5.093
REMARK  4 active torsions:
REMARK  status: ('A' for Active; 'I' for Inactive)
REMARK    1  A    between atoms: N1_1  and  C1_5 
REMARK    2  A    between atoms: C1_5  and  C2_6 
REMARK    3  A    between atoms: C2_6  and  S1_7 
REMARK    4  A    between atoms: S1_7  and  C3_8 
ROOT
HETATM    1  C3  UNL     1     -29.439   7.542 -25.918  1.00  0.00     0.125 A 
HETATM    2  C4  UNL     1     -30.720   7.230 -26.381  1.00  0.00     0.145 A 
HETATM    3  N2  UNL     1     -30.902   5.914 -26.406  1.00  0.00    -0.196 N 
ATOM      4  H2  UNL     1     -31.741   5.415 -26.702  1.00  0.00     0.183 HD
HETATM    5  C5  UNL     1     -29.749   5.373 -25.962  1.00  0.00     0.716 A 
HETATM    6  N3  UNL     1     -28.877   4.433 -25.611  1.00  0.00    -0.113 N 
ATOM      7  H3  UNL     1     -28.874   3.414 -25.577  1.00  0.00     0.203 HD
HETATM    8  N4  UNL     1     -28.016   5.392 -25.324  1.00  0.00     0.016 NA
HETATM    9  N5  UNL     1     -28.863   6.353 -25.666  1.00  0.00    -0.061 N 
ENDROOT
BRANCH   1  10
HETATM   10  S1  UNL     1     -28.698   9.140 -25.735  1.00  0.00    -0.107 SA
BRANCH  10  11
HETATM   11  C2  UNL     1     -29.582  10.280 -24.704  1.00  0.00     0.108 C 
BRANCH  11  12
HETATM   12  C1  UNL     1     -29.553   9.835 -23.268  1.00  0.00     0.240 C 
BRANCH  12  13
HETATM   13  N1  UNL     1     -30.648  10.379 -22.508  1.00  0.00    -0.079 N 
ATOM     14  H13 UNL     1     -31.502  10.416 -23.066  1.00  0.00     0.274 HD
ATOM     15  H12 UNL     1     -30.955   9.728 -21.785  1.00  0.00     0.274 HD
ATOM     16  H11 UNL     1     -30.427  11.293 -22.112  1.00  0.00     0.274 HD
ENDBRANCH  12  13
ENDBRANCH  11  12
ENDBRANCH  10  11
ENDBRANCH   1  10
TORSDOF 4
ENDMDL
MODEL 4
REMARK VINA RESULT: -4.813561429      2.309      5.019
REMARK  4 active torsions:
REMARK  status: ('A' for Active; 'I' for Inactive)
REMARK    1  A    between atoms: N1_1  and  C1_5 
REMARK    2  A    between atoms: C1_5  and  C2_6 
REMARK    3  A    between atoms: C2_6  and  S1_7 
REMARK    4  A    between atoms: S1_7  and  C3_8 
ROOT
HETATM    1  C3  UNL     1     -29.555   8.278 -25.662  1.00  0.00     0.125 A 
HETATM    2  C4  UNL     1     -28.575   7.280 -25.669  1.00  0.00     0.145 A 
HETATM    3  N2  UNL     1     -29.063   6.149 -26.167  1.00  0.00    -0.196 N 
ATOM      4  H2  UNL     1     -28.567   5.265 -26.286  1.00  0.00     0.183 HD
HETATM    5  C5  UNL     1     -30.349   6.407 -26.484  1.00  0.00     0.716 A 
HETATM    6  N3  UNL     1     -31.582   6.189 -26.928  1.00  0.00    -0.113 N 
ATOM      7  H3  UNL     1     -32.087   5.397 -27.326  1.00  0.00     0.203 HD
HETATM    8  N4  UNL     1     -31.871   7.442 -26.630  1.00  0.00     0.016 NA
HETATM    9  N5  UNL     1     -30.649   7.693 -26.180  1.00  0.00    -0.061 N 
ENDROOT
BRANCH   1  10
HETATM   10  S1  UNL     1     -29.421   9.941 -25.069  1.00  0.00    -0.107 SA
BRANCH  10  11
HETATM   11  C2  UNL     1     -28.536  11.061 -26.121  1.00  0.00     0.108 C 
BRANCH  11  12
HETATM   12  C1  UNL     1     -28.060  12.258 -25.347  1.00  0.00     0.240 C 
BRANCH  12  13
HETATM   13  N1  UNL     1     -27.810  13.392 -26.199  1.00  0.00    -0.079 N 
ATOM     14  H13 UNL     1     -26.858  13.740 -26.079  1.00  0.00     0.274 HD
ATOM     15  H12 UNL     1     -27.758  13.114 -27.179  1.00  0.00     0.274 HD
ATOM     16  H11 UNL     1     -28.494  14.136 -26.061  1.00  0.00     0.274 HD
ENDBRANCH  12  13
ENDBRANCH  11  12
ENDBRANCH  10  11
ENDBRANCH   1  10
TORSDOF 4
ENDMDL
MODEL 5
REMARK VINA RESULT: -4.682178359      2.811      4.465
REMARK  4 active torsions:
REMARK  status: ('A' for Active; 'I' for Inactive)
REMARK    1  A    between atoms: N1_1  and  C1_5 
REMARK    2  A    between atoms: C1_5  and  C2_6 
REMARK    3  A    between atoms: C2_6  and  S1_7 
REMARK    4  A    between atoms: S1_7  and  C3_8 
ROOT
HETATM    1  C3  UNL     1     -30.326   7.837 -26.285  1.00  0.00     0.125 A 
HETATM    2  C4  UNL     1     -29.656   8.763 -25.480  1.00  0.00     0.145 A 
HETATM    3  N2  UNL     1     -28.529   8.243 -25.007  1.00  0.00    -0.196 N 
ATOM      4  H2  UNL     1     -27.851   8.698 -24.396  1.00  0.00     0.183 HD
HETATM    5  C5  UNL     1     -28.464   6.988 -25.500  1.00  0.00     0.716 A 
HETATM    6  N3  UNL     1     -27.986   5.768 -25.722  1.00  0.00    -0.113 N 
ATOM      7  H3  UNL     1     -27.159   5.243 -25.435  1.00  0.00     0.203 HD
HETATM    8  N4  UNL     1     -29.044   5.530 -26.473  1.00  0.00     0.016 NA
HETATM    9  N5  UNL     1     -29.548   6.740 -26.273  1.00  0.00    -0.061 N 
ENDROOT
BRANCH   1  10
HETATM   10  S1  UNL     1     -31.880   8.027 -27.114  1.00  0.00    -0.107 SA
BRANCH  10  11
HETATM   11  C2  UNL     1     -32.604   6.533 -27.735  1.00  0.00     0.108 C 
BRANCH  11  12
HETATM   12  C1  UNL     1     -34.059   6.737 -28.055  1.00  0.00     0.240 C 
BRANCH  12  13
HETATM   13  N1  UNL     1     -34.290   7.961 -28.779  1.00  0.00    -0.079 N 
ATOM     14  H13 UNL     1     -35.288   8.146 -28.881  1.00  0.00     0.274 HD
ATOM     15  H12 UNL     1     -34.029   8.775 -28.222  1.00  0.00     0.274 HD
ATOM     16  H11 UNL     1     -33.819   7.967 -29.684  1.00  0.00     0.274 HD
ENDBRANCH  12  13
ENDBRANCH  11  12
ENDBRANCH  10  11
ENDBRANCH   1  10
TORSDOF 4
ENDMDL
