MODEL 1
REMARK VINA RESULT: -5.724327483      0.000      0.000
REMARK  6 active torsions:
REMARK  status: ('A' for Active; 'I' for Inactive)
REMARK    1  A    between atoms: N1_2  and  C3_4 
REMARK    2  A    between atoms: C3_4  and  C4_5 
REMARK    3  A    between atoms: C4_5  and  N2_6 
REMARK    4  A    between atoms: N2_6  and  C5_8 
REMARK    5  A    between atoms: C6_13  and  N5_14 
REMARK    6  A    between atoms: C7_19  and  N7_20 
ROOT
HETATM    1  C5  UNL     1      -5.684   8.553  15.297  1.00  0.00     0.161 A 
HETATM    2  N3  UNL     1      -6.355   8.057  14.235  1.00  0.00    -0.268 N 
ATOM      3  H3  UNL     1      -6.785   8.723  13.594  1.00  0.00     0.189 HD
HETATM    4  N4  UNL     1      -6.491   6.790  13.971  1.00  0.00    -0.131 N 
ATOM      5  H4  UNL     1      -7.015   6.497  13.146  1.00  0.00     0.205 HD
HETATM    6  C6  UNL     1      -5.951   5.876  14.772  1.00  0.00     0.692 A 
HETATM    7  N6  UNL     1      -5.265   6.292  15.855  1.00  0.00    -0.172 N 
ATOM      8  H6  UNL     1      -4.847   5.600  16.477  1.00  0.00     0.186 HD
HETATM    9  C7  UNL     1      -5.120   7.619  16.134  1.00  0.00     0.160 A 
ENDROOT
BRANCH   1  10
HETATM   10  N2  UNL     1      -5.574   9.944  15.513  1.00  0.00    -0.370 N 
ATOM     11  H2  UNL     1      -4.942  10.258  16.250  1.00  0.00     0.161 HD
BRANCH  10  12
HETATM   12  C4  UNL     1      -6.288  10.955  14.770  1.00  0.00     0.151 C 
BRANCH  12  13
HETATM   13  C3  UNL     1      -5.432  11.920  14.030  1.00  0.00     0.290 C 
BRANCH  13  14
HETATM   14  N1  UNL     1      -5.463  13.259  14.513  1.00  0.00     0.081 N 
HETATM   15  C1  UNL     1      -5.607  14.173  13.403  1.00  0.00     0.309 C 
HETATM   16  C2  UNL     1      -4.415  13.620  15.401  1.00  0.00     0.309 C 
ENDBRANCH  13  14
ENDBRANCH  12  13
ENDBRANCH  10  12
ENDBRANCH   1  10
BRANCH   9  17
HETATM   17  N7  UNL     1      -4.463   7.928  17.171  1.00  0.00    -0.382 N 
ATOM     18  H72 UNL     1      -4.946   7.875  18.067  1.00  0.00     0.157 HD
ATOM     19  H71 UNL     1      -3.487   8.224  17.143  1.00  0.00     0.157 HD
ENDBRANCH   9  17
BRANCH   6  20
HETATM   20  N5  UNL     1      -6.056   4.617  14.558  1.00  0.00    -0.233 N 
ATOM     21  H52 UNL     1      -5.213   4.090  14.329  1.00  0.00     0.174 HD
ATOM     22  H51 UNL     1      -6.945   4.120  14.609  1.00  0.00     0.174 HD
ENDBRANCH   6  20
TORSDOF 6
ENDMDL
MODEL 2
REMARK VINA RESULT: -5.604750722      1.200      2.115
REMARK  6 active torsions:
REMARK  status: ('A' for Active; 'I' for Inactive)
REMARK    1  A    between atoms: N1_2  and  C3_4 
REMARK    2  A    between atoms: C3_4  and  C4_5 
REMARK    3  A    between atoms: C4_5  and  N2_6 
REMARK    4  A    between atoms: N2_6  and  C5_8 
REMARK    5  A    between atoms: C6_13  and  N5_14 
REMARK    6  A    between atoms: C7_19  and  N7_20 
ROOT
HETATM    1  C5  UNL     1      -6.135   9.429  14.962  1.00  0.00     0.161 A 
HETATM    2  N3  UNL     1      -5.163   8.691  15.538  1.00  0.00    -0.268 N 
ATOM      3  H3  UNL     1      -4.489   9.175  16.131  1.00  0.00     0.189 HD
HETATM    4  N4  UNL     1      -5.025   7.406  15.394  1.00  0.00    -0.131 N 
ATOM      5  H4  UNL     1      -4.261   6.921  15.865  1.00  0.00     0.205 HD
HETATM    6  C6  UNL     1      -5.874   6.721  14.634  1.00  0.00     0.692 A 
HETATM    7  N6  UNL     1      -6.874   7.387  14.022  1.00  0.00    -0.172 N 
ATOM      8  H6  UNL     1      -7.532   6.873  13.436  1.00  0.00     0.186 HD
HETATM    9  C7  UNL     1      -7.022   8.735  14.172  1.00  0.00     0.160 A 
ENDROOT
BRANCH   1  10
HETATM   10  N2  UNL     1      -6.223  10.823  15.173  1.00  0.00    -0.370 N 
ATOM     11  H2  UNL     1      -6.765  11.144  15.976  1.00  0.00     0.161 HD
BRANCH  10  12
HETATM   12  C4  UNL     1      -5.605  11.827  14.340  1.00  0.00     0.151 C 
BRANCH  12  13
HETATM   13  C3  UNL     1      -4.846  12.876  15.070  1.00  0.00     0.290 C 
BRANCH  13  14
HETATM   14  N1  UNL     1      -5.097  14.214  14.652  1.00  0.00     0.081 N 
HETATM   15  C1  UNL     1      -5.544  14.218  13.279  1.00  0.00     0.309 C 
HETATM   16  C2  UNL     1      -4.055  15.146  14.904  1.00  0.00     0.309 C 
ENDBRANCH  13  14
ENDBRANCH  12  13
ENDBRANCH  10  12
ENDBRANCH   1  10
BRANCH   9  17
HETATM   17  N7  UNL     1      -7.985   9.287  13.565  1.00  0.00    -0.382 N 
ATOM     18  H72 UNL     1      -8.395  10.118  13.991  1.00  0.00     0.157 HD
ATOM     19  H71 UNL     1      -8.361   8.938  12.683  1.00  0.00     0.157 HD
ENDBRANCH   9  17
BRANCH   6  20
HETATM   20  N5  UNL     1      -5.783   5.455  14.457  1.00  0.00    -0.233 N 
ATOM     21  H52 UNL     1      -5.565   4.865  15.260  1.00  0.00     0.174 HD
ATOM     22  H51 UNL     1      -5.921   5.012  13.548  1.00  0.00     0.174 HD
ENDBRANCH   6  20
TORSDOF 6
ENDMDL
MODEL 3
REMARK VINA RESULT: -5.507051126      3.800      5.665
REMARK  6 active torsions:
REMARK  status: ('A' for Active; 'I' for Inactive)
REMARK    1  A    between atoms: N1_2  and  C3_4 
REMARK    2  A    between atoms: C3_4  and  C4_5 
REMARK    3  A    between atoms: C4_5  and  N2_6 
REMARK    4  A    between atoms: N2_6  and  C5_8 
REMARK    5  A    between atoms: C6_13  and  N5_14 
REMARK    6  A    between atoms: C7_19  and  N7_20 
ROOT
HETATM    1  C5  UNL     1      -7.353   8.374  13.936  1.00  0.00     0.161 A 
HETATM    2  N3  UNL     1      -8.049   9.373  14.520  1.00  0.00    -0.268 N 
ATOM      3  H3  UNL     1      -9.006   9.530  14.204  1.00  0.00     0.189 HD
HETATM    4  N4  UNL     1      -7.588  10.148  15.456  1.00  0.00    -0.131 N 
ATOM      5  H4  UNL     1      -8.181  10.881  15.846  1.00  0.00     0.205 HD
HETATM    6  C6  UNL     1      -6.348   9.990  15.908  1.00  0.00     0.692 A 
HETATM    7  N6  UNL     1      -5.587   9.014  15.375  1.00  0.00    -0.172 N 
ATOM      8  H6  UNL     1      -4.633   8.883  15.713  1.00  0.00     0.186 HD
HETATM    9  C7  UNL     1      -6.067   8.199  14.393  1.00  0.00     0.160 A 
ENDROOT
BRANCH   1  10
HETATM   10  N2  UNL     1      -7.926   7.569  12.927  1.00  0.00    -0.370 N 
ATOM     11  H2  UNL     1      -7.296   7.151  12.243  1.00  0.00     0.161 HD
BRANCH  10  12
HETATM   12  C4  UNL     1      -9.337   7.293  12.792  1.00  0.00     0.151 C 
BRANCH  12  13
HETATM   13  C3  UNL     1     -10.129   8.358  12.120  1.00  0.00     0.290 C 
BRANCH  13  14
HETATM   14  N1  UNL     1     -11.270   7.906  11.398  1.00  0.00     0.081 N 
HETATM   15  C1  UNL     1     -11.810   8.993  10.614  1.00  0.00     0.309 C 
HETATM   16  C2  UNL     1     -12.255   7.223  12.160  1.00  0.00     0.309 C 
ENDBRANCH  13  14
ENDBRANCH  12  13
ENDBRANCH  10  12
ENDBRANCH   1  10
BRANCH   9  17
HETATM   17  N7  UNL     1      -5.290   7.306  13.943  1.00  0.00    -0.382 N 
ATOM     18  H72 UNL     1      -5.715   6.503  13.481  1.00  0.00     0.157 HD
ATOM     19  H71 UNL     1      -4.275   7.359  14.026  1.00  0.00     0.157 HD
ENDBRANCH   9  17
BRANCH   6  20
HETATM   20  N5  UNL     1      -5.844  10.726  16.828  1.00  0.00    -0.233 N 
ATOM     21  H52 UNL     1      -4.846  10.649  17.023  1.00  0.00     0.174 HD
ATOM     22  H51 UNL     1      -6.398  11.388  17.373  1.00  0.00     0.174 HD
ENDBRANCH   6  20
TORSDOF 6
ENDMDL
MODEL 4
REMARK VINA RESULT: -5.364991758      3.135      5.064
REMARK  6 active torsions:
REMARK  status: ('A' for Active; 'I' for Inactive)
REMARK    1  A    between atoms: N1_2  and  C3_4 
REMARK    2  A    between atoms: C3_4  and  C4_5 
REMARK    3  A    between atoms: C4_5  and  N2_6 
REMARK    4  A    between atoms: N2_6  and  C5_8 
REMARK    5  A    between atoms: C6_13  and  N5_14 
REMARK    6  A    between atoms: C7_19  and  N7_20 
ROOT
HETATM    1  C5  UNL     1      -6.324   7.637  14.356  1.00  0.00     0.161 A 
HETATM    2  N3  UNL     1      -6.186   8.819  14.994  1.00  0.00    -0.268 N 
ATOM      3  H3  UNL     1      -6.632   9.637  14.577  1.00  0.00     0.189 HD
HETATM    4  N4  UNL     1      -5.526   8.991  16.101  1.00  0.00    -0.131 N 
ATOM      5  H4  UNL     1      -5.469   9.920  16.520  1.00  0.00     0.205 HD
HETATM    6  C6  UNL     1      -4.925   7.962  16.690  1.00  0.00     0.692 A 
HETATM    7  N6  UNL     1      -5.016   6.747  16.115  1.00  0.00    -0.172 N 
ATOM      8  H6  UNL     1      -4.558   5.949  16.556  1.00  0.00     0.186 HD
HETATM    9  C7  UNL     1      -5.707   6.563  14.953  1.00  0.00     0.160 A 
ENDROOT
BRANCH   1  10
HETATM   10  N2  UNL     1      -7.064   7.530  13.158  1.00  0.00    -0.370 N 
ATOM     11  H2  UNL     1      -6.656   6.983  12.400  1.00  0.00     0.161 HD
BRANCH  10  12
HETATM   12  C4  UNL     1      -8.354   8.135  12.925  1.00  0.00     0.151 C 
BRANCH  12  13
HETATM   13  C3  UNL     1      -9.476   7.180  12.730  1.00  0.00     0.290 C 
BRANCH  13  14
HETATM   14  N1  UNL     1     -10.490   7.605  11.826  1.00  0.00     0.081 N 
HETATM   15  C1  UNL     1     -10.323   9.010  11.533  1.00  0.00     0.309 C 
HETATM   16  C2  UNL     1     -11.822   7.264  12.184  1.00  0.00     0.309 C 
ENDBRANCH  13  14
ENDBRANCH  12  13
ENDBRANCH  10  12
ENDBRANCH   1  10
BRANCH   9  17
HETATM   17  N7  UNL     1      -5.746   5.391  14.476  1.00  0.00    -0.382 N 
ATOM     18  H72 UNL     1      -5.232   5.219  13.612  1.00  0.00     0.157 HD
ATOM     19  H71 UNL     1      -6.262   4.628  14.914  1.00  0.00     0.157 HD
ENDBRANCH   9  17
BRANCH   6  20
HETATM   20  N5  UNL     1      -4.261   8.076  17.780  1.00  0.00    -0.233 N 
ATOM     21  H52 UNL     1      -4.753   8.382  18.620  1.00  0.00     0.174 HD
ATOM     22  H51 UNL     1      -3.264   7.872  17.845  1.00  0.00     0.174 HD
ENDBRANCH   6  20
TORSDOF 6
ENDMDL
MODEL 5
REMARK VINA RESULT: -5.360473375      4.571      6.081
REMARK  6 active torsions:
REMARK  status: ('A' for Active; 'I' for Inactive)
REMARK    1  A    between atoms: N1_2  and  C3_4 
REMARK    2  A    between atoms: C3_4  and  C4_5 
REMARK    3  A    between atoms: C4_5  and  N2_6 
REMARK    4  A    between atoms: N2_6  and  C5_8 
REMARK    5  A    between atoms: C6_13  and  N5_14 
REMARK    6  A    between atoms: C7_19  and  N7_20 
ROOT
HETATM    1  C5  UNL     1      -8.473   7.815  13.678  1.00  0.00     0.161 A 
HETATM    2  N3  UNL     1      -8.330   6.473  13.649  1.00  0.00    -0.268 N 
ATOM      3  H3  UNL     1      -9.155   5.913  13.433  1.00  0.00     0.189 HD
HETATM    4  N4  UNL     1      -7.216   5.841  13.877  1.00  0.00    -0.131 N 
ATOM      5  H4  UNL     1      -7.192   4.822  13.835  1.00  0.00     0.205 HD
HETATM    6  C6  UNL     1      -6.108   6.518  14.164  1.00  0.00     0.692 A 
HETATM    7  N6  UNL     1      -6.168   7.863  14.213  1.00  0.00    -0.172 N 
ATOM      8  H6  UNL     1      -5.325   8.394  14.432  1.00  0.00     0.186 HD
HETATM    9  C7  UNL     1      -7.335   8.529  13.974  1.00  0.00     0.160 A 
ENDROOT
BRANCH   1  10
HETATM   10  N2  UNL     1      -9.718   8.427  13.413  1.00  0.00    -0.370 N 
ATOM     11  H2  UNL     1     -10.167   8.932  14.177  1.00  0.00     0.161 HD
BRANCH  10  12
HETATM   12  C4  UNL     1     -10.401   8.394  12.142  1.00  0.00     0.151 C 
BRANCH  12  13
HETATM   13  C3  UNL     1     -11.872   8.189  12.219  1.00  0.00     0.290 C 
BRANCH  13  14
HETATM   14  N1  UNL     1     -12.390   7.159  11.383  1.00  0.00     0.081 N 
HETATM   15  C1  UNL     1     -12.685   7.697  10.075  1.00  0.00     0.309 C 
HETATM   16  C2  UNL     1     -13.459   6.399  11.929  1.00  0.00     0.309 C 
ENDBRANCH  13  14
ENDBRANCH  12  13
ENDBRANCH  10  12
ENDBRANCH   1  10
BRANCH   9  17
HETATM   17  N7  UNL     1      -7.310   9.792  14.040  1.00  0.00    -0.382 N 
ATOM     18  H72 UNL     1      -7.861  10.236  14.775  1.00  0.00     0.157 HD
ATOM     19  H71 UNL     1      -6.772  10.373  13.396  1.00  0.00     0.157 HD
ENDBRANCH   9  17
BRANCH   6  20
HETATM   20  N5  UNL     1      -4.985   5.946  14.397  1.00  0.00    -0.233 N 
ATOM     21  H52 UNL     1      -4.966   4.931  14.496  1.00  0.00     0.174 HD
ATOM     22  H51 UNL     1      -4.110   6.463  14.487  1.00  0.00     0.174 HD
ENDBRANCH   6  20
TORSDOF 6
ENDMDL
