MODEL 1
REMARK VINA RESULT: -5.925523246      0.000      0.000
REMARK  6 active torsions:
REMARK  status: ('A' for Active; 'I' for Inactive)
REMARK    1  A    between atoms: C2_2  and  C3_3 
REMARK    2  A    between atoms: C3_3  and  C4_4 
REMARK    3  A    between atoms: C4_4  and  N1_5 
REMARK    4  A    between atoms: N4_12  and  N5_13 
REMARK    5  A    between atoms: C6_16  and  N6_17 
REMARK    6  A    between atoms: N6_17  and  N7_19 
ROOT
HETATM    1  N1  UNL     1      -7.103   8.448  13.977  1.00  0.00    -0.106 N 
HETATM    2  N2  UNL     1      -7.167   9.690  14.435  1.00  0.00    -0.114 N 
ATOM      3  H2  UNL     1      -7.759  10.435  14.067  1.00  0.00     0.206 HD
HETATM    4  C5  UNL     1      -6.315   9.796  15.470  1.00  0.00     0.727 A 
HETATM    5  N3  UNL     1      -6.086  10.846  16.187  1.00  0.00    -0.231 N 
ATOM      6  H31 UNL     1      -5.440  10.926  16.972  1.00  0.00     0.174 HD
ATOM      7  H32 UNL     1      -6.528  11.757  16.064  1.00  0.00     0.174 HD
HETATM    8  N4  UNL     1      -5.739   8.608  15.631  1.00  0.00     0.087 N 
HETATM    9  C6  UNL     1      -6.210   7.761  14.721  1.00  0.00     0.749 A 
ENDROOT
BRANCH   9  10
HETATM   10  N6  UNL     1      -5.935   6.531  14.514  1.00  0.00    -0.135 N 
ATOM     11  H6  UNL     1      -6.616   5.834  14.816  1.00  0.00     0.205 HD
BRANCH  10  12
HETATM   12  N7  UNL     1      -4.770   6.078  13.906  1.00  0.00    -0.331 N 
ATOM     13  H72 UNL     1      -4.658   6.291  12.914  1.00  0.00     0.177 HD
ATOM     14  H71 UNL     1      -4.036   5.555  14.383  1.00  0.00     0.177 HD
ENDBRANCH  10  12
ENDBRANCH   9  10
BRANCH   1  15
HETATM   15  C4  UNL     1      -7.892   7.995  12.867  1.00  0.00     0.168 C 
BRANCH  15  16
HETATM   16  C3  UNL     1      -9.263   8.593  12.808  1.00  0.00     0.022 C 
BRANCH  16  17
HETATM   17  C2  UNL     1     -10.213   7.512  12.311  1.00  0.00    -0.003 C 
HETATM   18  C1  UNL     1     -11.646   8.037  12.264  1.00  0.00     0.005 C 
ENDBRANCH  16  17
ENDBRANCH  15  16
ENDBRANCH   1  15
BRANCH   8  19
HETATM   19  N5  UNL     1      -4.786   8.282  16.599  1.00  0.00    -0.309 N 
ATOM     20  H52 UNL     1      -3.793   8.501  16.530  1.00  0.00     0.178 HD
ATOM     21  H51 UNL     1      -4.966   7.794  17.478  1.00  0.00     0.178 HD
ENDBRANCH   8  19
TORSDOF 6
ENDMDL
MODEL 2
REMARK VINA RESULT: -5.691448262      0.926      2.756
REMARK  6 active torsions:
REMARK  status: ('A' for Active; 'I' for Inactive)
REMARK    1  A    between atoms: C2_2  and  C3_3 
REMARK    2  A    between atoms: C3_3  and  C4_4 
REMARK    3  A    between atoms: C4_4  and  N1_5 
REMARK    4  A    between atoms: N4_12  and  N5_13 
REMARK    5  A    between atoms: C6_16  and  N6_17 
REMARK    6  A    between atoms: N6_17  and  N7_19 
ROOT
HETATM    1  N1  UNL     1      -7.514   8.451  13.697  1.00  0.00    -0.106 N 
HETATM    2  N2  UNL     1      -6.981   7.272  13.406  1.00  0.00    -0.114 N 
ATOM      3  H2  UNL     1      -7.332   6.610  12.716  1.00  0.00     0.206 HD
HETATM    4  C5  UNL     1      -5.895   7.104  14.182  1.00  0.00     0.727 A 
HETATM    5  N3  UNL     1      -5.100   6.086  14.201  1.00  0.00    -0.231 N 
ATOM      6  H31 UNL     1      -4.277   5.958  14.789  1.00  0.00     0.174 HD
ATOM      7  H32 UNL     1      -5.189   5.253  13.619  1.00  0.00     0.174 HD
HETATM    8  N4  UNL     1      -5.779   8.191  14.941  1.00  0.00     0.087 N 
HETATM    9  C6  UNL     1      -6.767   9.035  14.659  1.00  0.00     0.749 A 
ENDROOT
BRANCH   9  10
HETATM   10  N6  UNL     1      -7.037  10.185  15.145  1.00  0.00    -0.135 N 
ATOM     11  H6  UNL     1      -6.868  11.001  14.556  1.00  0.00     0.205 HD
BRANCH  10  12
HETATM   12  N7  UNL     1      -7.546  10.399  16.420  1.00  0.00    -0.331 N 
ATOM     13  H72 UNL     1      -8.488  10.786  16.479  1.00  0.00     0.177 HD
ATOM     14  H71 UNL     1      -7.042  10.197  17.283  1.00  0.00     0.177 HD
ENDBRANCH  10  12
ENDBRANCH   9  10
BRANCH   1  15
HETATM   15  C4  UNL     1      -8.693   8.945  13.045  1.00  0.00     0.168 C 
BRANCH  15  16
HETATM   16  C3  UNL     1      -9.634   7.872  12.592  1.00  0.00     0.022 C 
BRANCH  16  17
HETATM   17  C2  UNL     1     -10.807   8.554  11.902  1.00  0.00    -0.003 C 
HETATM   18  C1  UNL     1     -12.118   7.859  12.259  1.00  0.00     0.005 C 
ENDBRANCH  16  17
ENDBRANCH  15  16
ENDBRANCH   1  15
BRANCH   8  19
HETATM   19  N5  UNL     1      -4.783   8.426  15.892  1.00  0.00    -0.309 N 
ATOM     20  H52 UNL     1      -4.848   8.164  16.875  1.00  0.00     0.178 HD
ATOM     21  H51 UNL     1      -3.885   8.879  15.719  1.00  0.00     0.178 HD
ENDBRANCH   8  19
TORSDOF 6
ENDMDL
MODEL 3
REMARK VINA RESULT: -5.437126075      1.664      4.066
REMARK  6 active torsions:
REMARK  status: ('A' for Active; 'I' for Inactive)
REMARK    1  A    between atoms: C2_2  and  C3_3 
REMARK    2  A    between atoms: C3_3  and  C4_4 
REMARK    3  A    between atoms: C4_4  and  N1_5 
REMARK    4  A    between atoms: N4_12  and  N5_13 
REMARK    5  A    between atoms: C6_16  and  N6_17 
REMARK    6  A    between atoms: N6_17  and  N7_19 
ROOT
HETATM    1  N1  UNL     1      -6.780   9.124  14.249  1.00  0.00    -0.106 N 
HETATM    2  N2  UNL     1      -7.931   9.513  13.721  1.00  0.00    -0.114 N 
ATOM      3  H2  UNL     1      -8.232  10.478  13.585  1.00  0.00     0.206 HD
HETATM    4  C5  UNL     1      -8.633   8.413  13.394  1.00  0.00     0.727 A 
HETATM    5  N3  UNL     1      -9.806   8.368  12.854  1.00  0.00    -0.231 N 
ATOM      6  H31 UNL     1     -10.338   7.534  12.607  1.00  0.00     0.174 HD
ATOM      7  H32 UNL     1     -10.372   9.176  12.596  1.00  0.00     0.174 HD
HETATM    8  N4  UNL     1      -7.894   7.359  13.730  1.00  0.00     0.087 N 
HETATM    9  C6  UNL     1      -6.747   7.773  14.259  1.00  0.00     0.749 A 
ENDROOT
BRANCH   9  10
HETATM   10  N6  UNL     1      -5.756   7.107  14.713  1.00  0.00    -0.135 N 
ATOM     11  H6  UNL     1      -5.580   7.140  15.717  1.00  0.00     0.205 HD
BRANCH  10  12
HETATM   12  N7  UNL     1      -4.901   6.340  13.930  1.00  0.00    -0.331 N 
ATOM     13  H72 UNL     1      -4.512   6.790  13.101  1.00  0.00     0.177 HD
ATOM     14  H71 UNL     1      -4.645   5.374  14.132  1.00  0.00     0.177 HD
ENDBRANCH  10  12
ENDBRANCH   9  10
BRANCH   1  15
HETATM   15  C4  UNL     1      -5.789  10.054  14.708  1.00  0.00     0.168 C 
BRANCH  15  16
HETATM   16  C3  UNL     1      -6.278  10.993  15.766  1.00  0.00     0.022 C 
BRANCH  16  17
HETATM   17  C2  UNL     1      -6.527  10.174  17.025  1.00  0.00    -0.003 C 
HETATM   18  C1  UNL     1      -7.645  10.796  17.858  1.00  0.00     0.005 C 
ENDBRANCH  16  17
ENDBRANCH  15  16
ENDBRANCH   1  15
BRANCH   8  19
HETATM   19  N5  UNL     1      -8.251   6.019  13.561  1.00  0.00    -0.309 N 
ATOM     20  H52 UNL     1      -9.156   5.625  13.819  1.00  0.00     0.178 HD
ATOM     21  H51 UNL     1      -7.661   5.286  13.166  1.00  0.00     0.178 HD
ENDBRANCH   8  19
TORSDOF 6
ENDMDL
MODEL 4
REMARK VINA RESULT: -5.424461844      1.983      4.108
REMARK  6 active torsions:
REMARK  status: ('A' for Active; 'I' for Inactive)
REMARK    1  A    between atoms: C2_2  and  C3_3 
REMARK    2  A    between atoms: C3_3  and  C4_4 
REMARK    3  A    between atoms: C4_4  and  N1_5 
REMARK    4  A    between atoms: N4_12  and  N5_13 
REMARK    5  A    between atoms: C6_16  and  N6_17 
REMARK    6  A    between atoms: N6_17  and  N7_19 
ROOT
HETATM    1  N1  UNL     1      -6.415   8.413  14.385  1.00  0.00    -0.106 N 
HETATM    2  N2  UNL     1      -7.567   8.355  13.732  1.00  0.00    -0.114 N 
ATOM      3  H2  UNL     1      -8.092   9.151  13.372  1.00  0.00     0.206 HD
HETATM    4  C5  UNL     1      -7.922   7.062  13.628  1.00  0.00     0.727 A 
HETATM    5  N3  UNL     1      -8.980   6.586  13.059  1.00  0.00    -0.231 N 
ATOM      6  H31 UNL     1      -9.249   5.606  12.980  1.00  0.00     0.174 HD
ATOM      7  H32 UNL     1      -9.707   7.138  12.603  1.00  0.00     0.174 HD
HETATM    8  N4  UNL     1      -6.973   6.343  14.223  1.00  0.00     0.087 N 
HETATM    9  C6  UNL     1      -6.034   7.155  14.698  1.00  0.00     0.749 A 
ENDROOT
BRANCH   9  10
HETATM   10  N6  UNL     1      -4.957   6.894  15.332  1.00  0.00    -0.135 N 
ATOM     11  H6  UNL     1      -4.113   6.721  14.786  1.00  0.00     0.205 HD
BRANCH  10  12
HETATM   12  N7  UNL     1      -4.857   6.830  16.717  1.00  0.00    -0.331 N 
ATOM     13  H72 UNL     1      -5.023   7.696  17.230  1.00  0.00     0.177 HD
ATOM     14  H71 UNL     1      -4.631   5.984  17.240  1.00  0.00     0.177 HD
ENDBRANCH  10  12
ENDBRANCH   9  10
BRANCH   1  15
HETATM   15  C4  UNL     1      -5.752   9.654  14.669  1.00  0.00     0.168 C 
BRANCH  15  16
HETATM   16  C3  UNL     1      -6.565  10.604  15.494  1.00  0.00     0.022 C 
BRANCH  16  17
HETATM   17  C2  UNL     1      -6.448  10.163  16.946  1.00  0.00    -0.003 C 
HETATM   18  C1  UNL     1      -7.568  10.775  17.785  1.00  0.00     0.005 C 
ENDBRANCH  16  17
ENDBRANCH  15  16
ENDBRANCH   1  15
BRANCH   8  19
HETATM   19  N5  UNL     1      -6.951   4.951  14.341  1.00  0.00    -0.309 N 
ATOM     20  H52 UNL     1      -7.471   4.422  15.040  1.00  0.00     0.178 HD
ATOM     21  H51 UNL     1      -6.421   4.308  13.752  1.00  0.00     0.178 HD
ENDBRANCH   8  19
TORSDOF 6
ENDMDL
MODEL 5
REMARK VINA RESULT: -5.419411224      2.083      4.410
REMARK  6 active torsions:
REMARK  status: ('A' for Active; 'I' for Inactive)
REMARK    1  A    between atoms: C2_2  and  C3_3 
REMARK    2  A    between atoms: C3_3  and  C4_4 
REMARK    3  A    between atoms: C4_4  and  N1_5 
REMARK    4  A    between atoms: N4_12  and  N5_13 
REMARK    5  A    between atoms: C6_16  and  N6_17 
REMARK    6  A    between atoms: N6_17  and  N7_19 
ROOT
HETATM    1  N1  UNL     1      -6.362   9.148  14.386  1.00  0.00    -0.106 N 
HETATM    2  N2  UNL     1      -5.332   8.339  14.595  1.00  0.00    -0.114 N 
ATOM      3  H2  UNL     1      -4.407   8.619  14.918  1.00  0.00     0.206 HD
HETATM    4  C5  UNL     1      -5.723   7.085  14.306  1.00  0.00     0.727 A 
HETATM    5  N3  UNL     1      -5.011   6.009  14.382  1.00  0.00    -0.231 N 
ATOM      6  H31 UNL     1      -5.308   5.058  14.162  1.00  0.00     0.174 HD
ATOM      7  H32 UNL     1      -4.036   5.963  14.676  1.00  0.00     0.174 HD
HETATM    8  N4  UNL     1      -6.996   7.146  13.923  1.00  0.00     0.087 N 
HETATM    9  C6  UNL     1      -7.411   8.408  13.964  1.00  0.00     0.749 A 
ENDROOT
BRANCH   9  10
HETATM   10  N6  UNL     1      -8.548   8.915  13.682  1.00  0.00    -0.135 N 
ATOM     11  H6  UNL     1      -9.179   9.127  14.455  1.00  0.00     0.205 HD
BRANCH  10  12
HETATM   12  N7  UNL     1      -8.984   9.198  12.393  1.00  0.00    -0.331 N 
ATOM     13  H72 UNL     1      -8.821  10.145  12.050  1.00  0.00     0.177 HD
ATOM     14  H71 UNL     1      -9.449   8.527  11.781  1.00  0.00     0.177 HD
ENDBRANCH  10  12
ENDBRANCH   9  10
BRANCH   1  15
HETATM   15  C4  UNL     1      -6.285  10.564  14.600  1.00  0.00     0.168 C 
BRANCH  15  16
HETATM   16  C3  UNL     1      -6.126  10.956  16.037  1.00  0.00     0.022 C 
BRANCH  16  17
HETATM   17  C2  UNL     1      -7.165  10.183  16.838  1.00  0.00    -0.003 C 
HETATM   18  C1  UNL     1      -7.562  10.959  18.092  1.00  0.00     0.005 C 
ENDBRANCH  16  17
ENDBRANCH  15  16
ENDBRANCH   1  15
BRANCH   8  19
HETATM   19  N5  UNL     1      -7.788   6.063  13.533  1.00  0.00    -0.309 N 
ATOM     20  H52 UNL     1      -8.506   6.102  12.809  1.00  0.00     0.178 HD
ATOM     21  H51 UNL     1      -7.746   5.119  13.919  1.00  0.00     0.178 HD
ENDBRANCH   8  19
TORSDOF 6
ENDMDL
