MODEL 1
REMARK VINA RESULT: -5.859938390      0.000      0.000
REMARK  5 active torsions:
REMARK  status: ('A' for Active; 'I' for Inactive)
REMARK    1  A    between atoms: N1_1  and  N2_4 
REMARK    2  A    between atoms: N2_4  and  C1_5 
REMARK    3  A    between atoms: C1_5  and  C2_6 
REMARK    4  A    between atoms: C2_6  and  N3_7 
REMARK    5  A    between atoms: N3_7  and  C3_9 
ROOT
HETATM    1  C3  UNL     1      -6.153   9.363  14.883  1.00  0.00     0.133 A 
HETATM    2  N4  UNL     1      -5.189   8.564  15.353  1.00  0.00    -0.337 N 
ATOM      3  H4  UNL     1      -4.446   8.931  15.947  1.00  0.00     0.168 HD
HETATM    4  C4  UNL     1      -5.228   7.261  15.019  1.00  0.00     0.183 A 
HETATM    5  N5  UNL     1      -6.195   6.756  14.239  1.00  0.00    -0.337 N 
ATOM      6  H5  UNL     1      -6.179   5.762  14.014  1.00  0.00     0.168 HD
HETATM    7  C5  UNL     1      -7.194   7.530  13.738  1.00  0.00     0.138 A 
HETATM    8  N6  UNL     1      -8.262   7.297  12.953  1.00  0.00    -0.337 N 
ATOM      9  H6  UNL     1      -8.532   6.398  12.555  1.00  0.00     0.168 HD
HETATM   10  C6  UNL     1      -8.911   8.471  12.786  1.00  0.00     0.182 A 
HETATM   11  N7  UNL     1      -8.239   9.415  13.468  1.00  0.00    -0.346 N 
ATOM     12  H7  UNL     1      -8.501  10.399  13.521  1.00  0.00     0.167 HD
HETATM   13  C7  UNL     1      -7.161   8.859  14.074  1.00  0.00     0.122 A 
ENDROOT
BRANCH   1  14
HETATM   14  N3  UNL     1      -6.180  10.600  15.155  1.00  0.00    -0.373 N 
ATOM     15  H3  UNL     1      -6.728  10.873  15.972  1.00  0.00     0.161 HD
BRANCH  14  16
HETATM   16  C2  UNL     1      -5.528  11.655  14.447  1.00  0.00     0.139 C 
BRANCH  16  17
HETATM   17  C1  UNL     1      -5.115  12.796  15.342  1.00  0.00     0.153 C 
BRANCH  17  18
HETATM   18  N2  UNL     1      -3.988  13.527  14.819  1.00  0.00    -0.147 NA
BRANCH  18  19
HETATM   19  N1  UNL     1      -4.342  14.631  14.080  1.00  0.00    -0.348 N 
ATOM     20  H12 UNL     1      -5.314  14.916  13.958  1.00  0.00     0.172 HD
ATOM     21  H11 UNL     1      -3.547  15.125  13.676  1.00  0.00     0.172 HD
ENDBRANCH  18  19
ENDBRANCH  17  18
ENDBRANCH  16  17
ENDBRANCH  14  16
ENDBRANCH   1  14
TORSDOF 5
ENDMDL
MODEL 2
REMARK VINA RESULT: -5.845983204      2.125      4.664
REMARK  5 active torsions:
REMARK  status: ('A' for Active; 'I' for Inactive)
REMARK    1  A    between atoms: N1_1  and  N2_4 
REMARK    2  A    between atoms: N2_4  and  C1_5 
REMARK    3  A    between atoms: C1_5  and  C2_6 
REMARK    4  A    between atoms: C2_6  and  N3_7 
REMARK    5  A    between atoms: N3_7  and  C3_9 
ROOT
HETATM    1  C3  UNL     1      -5.644   7.396  15.163  1.00  0.00     0.133 A 
HETATM    2  N4  UNL     1      -5.012   6.638  16.066  1.00  0.00    -0.337 N 
ATOM      3  H4  UNL     1      -4.841   5.648  15.892  1.00  0.00     0.168 HD
HETATM    4  C4  UNL     1      -4.610   7.221  17.210  1.00  0.00     0.183 A 
HETATM    5  N5  UNL     1      -4.824   8.520  17.460  1.00  0.00    -0.337 N 
ATOM      6  H5  UNL     1      -4.500   8.914  18.342  1.00  0.00     0.168 HD
HETATM    7  C5  UNL     1      -5.462   9.328  16.572  1.00  0.00     0.138 A 
HETATM    8  N6  UNL     1      -5.804  10.630  16.561  1.00  0.00    -0.337 N 
ATOM      9  H6  UNL     1      -5.621  11.307  17.302  1.00  0.00     0.168 HD
HETATM   10  C6  UNL     1      -6.433  10.878  15.391  1.00  0.00     0.182 A 
HETATM   11  N7  UNL     1      -6.474   9.730  14.693  1.00  0.00    -0.346 N 
ATOM     12  H7  UNL     1      -6.892   9.619  13.769  1.00  0.00     0.167 HD
HETATM   13  C7  UNL     1      -5.875   8.743  15.403  1.00  0.00     0.122 A 
ENDROOT
BRANCH   1  14
HETATM   14  N3  UNL     1      -6.052   6.916  14.063  1.00  0.00    -0.373 N 
ATOM     15  H3  UNL     1      -5.469   7.096  13.245  1.00  0.00     0.161 HD
BRANCH  14  16
HETATM   16  C2  UNL     1      -7.237   6.151  13.842  1.00  0.00     0.139 C 
BRANCH  16  17
HETATM   17  C1  UNL     1      -8.390   6.985  13.344  1.00  0.00     0.153 C 
BRANCH  17  18
HETATM   18  N2  UNL     1      -7.974   7.997  12.404  1.00  0.00    -0.147 NA
BRANCH  18  19
HETATM   19  N1  UNL     1      -8.868   9.033  12.279  1.00  0.00    -0.348 N 
ATOM     20  H12 UNL     1      -8.595   9.949  11.923  1.00  0.00     0.172 HD
ATOM     21  H11 UNL     1      -9.815   8.793  12.573  1.00  0.00     0.172 HD
ENDBRANCH  18  19
ENDBRANCH  17  18
ENDBRANCH  16  17
ENDBRANCH  14  16
ENDBRANCH   1  14
TORSDOF 5
ENDMDL
MODEL 3
REMARK VINA RESULT: -5.820611363      1.279      1.703
REMARK  5 active torsions:
REMARK  status: ('A' for Active; 'I' for Inactive)
REMARK    1  A    between atoms: N1_1  and  N2_4 
REMARK    2  A    between atoms: N2_4  and  C1_5 
REMARK    3  A    between atoms: C1_5  and  C2_6 
REMARK    4  A    between atoms: C2_6  and  N3_7 
REMARK    5  A    between atoms: N3_7  and  C3_9 
ROOT
HETATM    1  C3  UNL     1      -6.044   7.966  14.800  1.00  0.00     0.133 A 
HETATM    2  N4  UNL     1      -5.531   6.773  15.118  1.00  0.00    -0.337 N 
ATOM      3  H4  UNL     1      -4.686   6.699  15.683  1.00  0.00     0.168 HD
HETATM    4  C4  UNL     1      -6.163   5.673  14.669  1.00  0.00     0.183 A 
HETATM    5  N5  UNL     1      -7.275   5.747  13.924  1.00  0.00    -0.337 N 
ATOM      6  H5  UNL     1      -7.716   4.883  13.609  1.00  0.00     0.168 HD
HETATM    7  C5  UNL     1      -7.832   6.936  13.577  1.00  0.00     0.138 A 
HETATM    8  N6  UNL     1      -8.912   7.298  12.859  1.00  0.00    -0.337 N 
ATOM      9  H6  UNL     1      -9.570   6.666  12.403  1.00  0.00     0.168 HD
HETATM   10  C6  UNL     1      -8.966   8.648  12.853  1.00  0.00     0.182 A 
HETATM   11  N7  UNL     1      -7.922   9.107  13.564  1.00  0.00    -0.346 N 
ATOM     12  H7  UNL     1      -7.710  10.091  13.727  1.00  0.00     0.167 HD
HETATM   13  C7  UNL     1      -7.194   8.063  14.030  1.00  0.00     0.122 A 
ENDROOT
BRANCH   1  14
HETATM   14  N3  UNL     1      -5.502   9.045  15.187  1.00  0.00    -0.373 N 
ATOM     15  H3  UNL     1      -4.729   9.393  14.619  1.00  0.00     0.161 HD
BRANCH  14  16
HETATM   16  C2  UNL     1      -5.853   9.827  16.329  1.00  0.00     0.139 C 
BRANCH  16  17
HETATM   17  C1  UNL     1      -6.260  11.235  15.974  1.00  0.00     0.153 C 
BRANCH  17  18
HETATM   18  N2  UNL     1      -5.924  11.580  14.614  1.00  0.00    -0.147 NA
BRANCH  18  19
HETATM   19  N1  UNL     1      -4.760  12.303  14.501  1.00  0.00    -0.348 N 
ATOM     20  H12 UNL     1      -4.540  13.083  15.121  1.00  0.00     0.172 HD
ATOM     21  H11 UNL     1      -4.152  11.983  13.747  1.00  0.00     0.172 HD
ENDBRANCH  18  19
ENDBRANCH  17  18
ENDBRANCH  16  17
ENDBRANCH  14  16
ENDBRANCH   1  14
TORSDOF 5
ENDMDL
MODEL 4
REMARK VINA RESULT: -5.787348148      1.012      2.549
REMARK  5 active torsions:
REMARK  status: ('A' for Active; 'I' for Inactive)
REMARK    1  A    between atoms: N1_1  and  N2_4 
REMARK    2  A    between atoms: N2_4  and  C1_5 
REMARK    3  A    between atoms: C1_5  and  C2_6 
REMARK    4  A    between atoms: C2_6  and  N3_7 
REMARK    5  A    between atoms: N3_7  and  C3_9 
ROOT
HETATM    1  C3  UNL     1      -6.693   9.138  14.341  1.00  0.00     0.133 A 
HETATM    2  N4  UNL     1      -7.804   9.597  13.755  1.00  0.00    -0.337 N 
ATOM      3  H4  UNL     1      -7.974  10.599  13.666  1.00  0.00     0.168 HD
HETATM    4  C4  UNL     1      -8.689   8.699  13.286  1.00  0.00     0.183 A 
HETATM    5  N5  UNL     1      -8.486   7.379  13.393  1.00  0.00    -0.337 N 
ATOM      6  H5  UNL     1      -9.188   6.739  13.021  1.00  0.00     0.168 HD
HETATM    7  C5  UNL     1      -7.373   6.866  13.980  1.00  0.00     0.138 A 
HETATM    8  N6  UNL     1      -6.921   5.620  14.218  1.00  0.00    -0.337 N 
ATOM      9  H6  UNL     1      -7.393   4.751  13.969  1.00  0.00     0.168 HD
HETATM   10  C6  UNL     1      -5.731   5.730  14.848  1.00  0.00     0.182 A 
HETATM   11  N7  UNL     1      -5.458   7.038  14.994  1.00  0.00    -0.346 N 
ATOM     12  H7  UNL     1      -4.622   7.419  15.436  1.00  0.00     0.167 HD
HETATM   13  C7  UNL     1      -6.465   7.775  14.461  1.00  0.00     0.122 A 
ENDROOT
BRANCH   1  14
HETATM   14  N3  UNL     1      -5.815   9.925  14.807  1.00  0.00    -0.373 N 
ATOM     15  H3  UNL     1      -4.883   9.534  14.945  1.00  0.00     0.161 HD
BRANCH  14  16
HETATM   16  C2  UNL     1      -5.986  11.298  15.161  1.00  0.00     0.139 C 
BRANCH  16  17
HETATM   17  C1  UNL     1      -5.331  12.241  14.184  1.00  0.00     0.153 C 
BRANCH  17  18
HETATM   18  N2  UNL     1      -4.359  13.100  14.814  1.00  0.00    -0.147 NA
BRANCH  18  19
HETATM   19  N1  UNL     1      -4.430  13.099  16.187  1.00  0.00    -0.348 N 
ATOM     20  H12 UNL     1      -4.370  12.240  16.735  1.00  0.00     0.172 HD
ATOM     21  H11 UNL     1      -4.549  14.028  16.591  1.00  0.00     0.172 HD
ENDBRANCH  18  19
ENDBRANCH  17  18
ENDBRANCH  16  17
ENDBRANCH  14  16
ENDBRANCH   1  14
TORSDOF 5
ENDMDL
MODEL 5
REMARK VINA RESULT: -5.731392486      2.213      5.513
REMARK  5 active torsions:
REMARK  status: ('A' for Active; 'I' for Inactive)
REMARK    1  A    between atoms: N1_1  and  N2_4 
REMARK    2  A    between atoms: N2_4  and  C1_5 
REMARK    3  A    between atoms: C1_5  and  C2_6 
REMARK    4  A    between atoms: C2_6  and  N3_7 
REMARK    5  A    between atoms: N3_7  and  C3_9 
ROOT
HETATM    1  C3  UNL     1      -5.960   7.862  14.292  1.00  0.00     0.133 A 
HETATM    2  N4  UNL     1      -5.388   8.890  14.929  1.00  0.00    -0.337 N 
ATOM      3  H4  UNL     1      -4.478   8.788  15.379  1.00  0.00     0.168 HD
HETATM    4  C4  UNL     1      -6.048  10.062  14.959  1.00  0.00     0.183 A 
HETATM    5  N5  UNL     1      -7.245  10.218  14.376  1.00  0.00    -0.337 N 
ATOM      6  H5  UNL     1      -7.704  11.127  14.427  1.00  0.00     0.168 HD
HETATM    7  C5  UNL     1      -7.864   9.203  13.718  1.00  0.00     0.138 A 
HETATM    8  N6  UNL     1      -9.032   9.080  13.060  1.00  0.00    -0.337 N 
ATOM      9  H6  UNL     1      -9.729   9.813  12.929  1.00  0.00     0.168 HD
HETATM   10  C6  UNL     1      -9.113   7.811  12.605  1.00  0.00     0.182 A 
HETATM   11  N7  UNL     1      -7.999   7.162  12.985  1.00  0.00    -0.346 N 
ATOM     12  H7  UNL     1      -7.788   6.185  12.780  1.00  0.00     0.167 HD
HETATM   13  C7  UNL     1      -7.198   8.005  13.683  1.00  0.00     0.122 A 
ENDROOT
BRANCH   1  14
HETATM   14  N3  UNL     1      -5.397   6.729  14.224  1.00  0.00    -0.373 N 
ATOM     15  H3  UNL     1      -4.768   6.581  13.434  1.00  0.00     0.161 HD
BRANCH  14  16
HETATM   16  C2  UNL     1      -5.545   5.635  15.130  1.00  0.00     0.139 C 
BRANCH  16  17
HETATM   17  C1  UNL     1      -6.681   4.715  14.758  1.00  0.00     0.153 C 
BRANCH  17  18
HETATM   18  N2  UNL     1      -6.260   3.340  14.637  1.00  0.00    -0.147 NA
BRANCH  18  19
HETATM   19  N1  UNL     1      -7.026   2.464  15.370  1.00  0.00    -0.348 N 
ATOM     20  H12 UNL     1      -7.795   2.776  15.962  1.00  0.00     0.172 HD
ATOM     21  H11 UNL     1      -6.748   1.489  15.261  1.00  0.00     0.172 HD
ENDBRANCH  18  19
ENDBRANCH  17  18
ENDBRANCH  16  17
ENDBRANCH  14  16
ENDBRANCH   1  14
TORSDOF 5
ENDMDL
