MODEL 1
REMARK VINA RESULT: -7.236560630      0.000      0.000
REMARK  5 active torsions:
REMARK  status: ('A' for Active; 'I' for Inactive)
REMARK    1  A    between atoms: C2_2  and  C5_5 
REMARK    2  A    between atoms: C9_13  and  N3_14 
REMARK    3  A    between atoms: C11_20  and  N5_21 
REMARK    4  A    between atoms: N5_21  and  N6_22 
REMARK    5  A    between atoms: N5_21  and  O1_25 
ROOT
HETATM    1  C5  UNL     1      23.377   7.327  17.835  1.00  0.00     0.024 A 
HETATM    2  S1  UNL     1      22.482   8.152  19.028  1.00  0.00    -0.086 SA
HETATM    3  C6  UNL     1      22.630   7.040  20.311  1.00  0.00     0.073 A 
HETATM    4  C7  UNL     1      22.167   7.006  21.639  1.00  0.00     0.149 A 
HETATM    5  C8  UNL     1      21.385   8.115  22.057  1.00  0.00     0.119 C 
HETATM    6  N1  UNL     1      20.737   9.014  22.392  1.00  0.00    -0.190 NA
HETATM    7  N2  UNL     1      22.456   5.968  22.441  1.00  0.00    -0.181 N 
ATOM      8  H2  UNL     1      22.132   5.920  23.407  1.00  0.00     0.185 HD
HETATM    9  C9  UNL     1      23.202   4.998  21.882  1.00  0.00     0.677 A 
HETATM   10  N4  UNL     1      23.653   5.000  20.632  1.00  0.00    -0.188 N 
ATOM     11  H4  UNL     1      24.213   4.213  20.305  1.00  0.00     0.184 HD
HETATM   12  C10 UNL     1      23.385   6.042  19.765  1.00  0.00     0.101 A 
HETATM   13  C11 UNL     1      23.777   6.186  18.479  1.00  0.00     0.123 A 
ENDROOT
BRANCH   9  14
HETATM   14  N3  UNL     1      23.499   3.988  22.630  1.00  0.00    -0.234 N 
ATOM     15  H32 UNL     1      23.022   3.902  23.527  1.00  0.00     0.174 HD
ATOM     16  H31 UNL     1      24.195   3.337  22.268  1.00  0.00     0.174 HD
ENDBRANCH   9  14
BRANCH   1  17
HETATM   17  C2  UNL     1      23.614   7.786  16.440  1.00  0.00    -0.015 C 
HETATM   18  C1  UNL     1      23.705   6.694  15.432  1.00  0.00     0.020 C 
HETATM   19  C3  UNL     1      24.979   8.497  16.420  1.00  0.00     0.020 C 
HETATM   20  C4  UNL     1      22.586   8.792  15.992  1.00  0.00     0.020 C 
ENDBRANCH   1  17
BRANCH  13  21
HETATM   21  N5  UNL     1      24.590   5.190  17.804  1.00  0.00    -0.167 N 
BRANCH  21  22
HETATM   22  N6  UNL     1      25.717   5.575  17.118  1.00  0.00    -0.319 N 
ATOM     23  H62 UNL     1      26.624   5.667  17.576  1.00  0.00     0.179 HD
ATOM     24  H61 UNL     1      25.659   5.781  16.121  1.00  0.00     0.179 HD
ENDBRANCH  21  22
BRANCH  21  25
HETATM   25  O1  UNL     1      24.210   3.923  17.875  1.00  0.00    -0.268 OA
ATOM     26  H1  UNL     1      24.162   3.519  18.734  1.00  0.00     0.247 HD
ENDBRANCH  21  25
ENDBRANCH  13  21
TORSDOF 5
ENDMDL
MODEL 2
REMARK VINA RESULT: -6.955411312      2.565      3.604
REMARK  5 active torsions:
REMARK  status: ('A' for Active; 'I' for Inactive)
REMARK    1  A    between atoms: C2_2  and  C5_5 
REMARK    2  A    between atoms: C9_13  and  N3_14 
REMARK    3  A    between atoms: C11_20  and  N5_21 
REMARK    4  A    between atoms: N5_21  and  N6_22 
REMARK    5  A    between atoms: N5_21  and  O1_25 
ROOT
HETATM    1  C5  UNL     1      23.342   7.403  17.327  1.00  0.00     0.024 A 
HETATM    2  S1  UNL     1      23.800   6.337  18.575  1.00  0.00    -0.086 SA
HETATM    3  C6  UNL     1      22.723   6.849  19.792  1.00  0.00     0.073 A 
HETATM    4  C7  UNL     1      22.481   6.451  21.120  1.00  0.00     0.149 A 
HETATM    5  C8  UNL     1      23.296   5.400  21.617  1.00  0.00     0.119 C 
HETATM    6  N1  UNL     1      23.971   4.552  22.024  1.00  0.00    -0.190 NA
HETATM    7  N2  UNL     1      21.533   7.054  21.856  1.00  0.00    -0.181 N 
ATOM      8  H2  UNL     1      21.339   6.784  22.821  1.00  0.00     0.185 HD
HETATM    9  C9  UNL     1      20.858   8.036  21.233  1.00  0.00     0.677 A 
HETATM   10  N4  UNL     1      21.062   8.435  19.982  1.00  0.00    -0.188 N 
ATOM     11  H4  UNL     1      20.494   9.192  19.603  1.00  0.00     0.184 HD
HETATM   12  C10 UNL     1      22.025   7.850  19.182  1.00  0.00     0.101 A 
HETATM   13  C11 UNL     1      22.342   8.143  17.901  1.00  0.00     0.123 A 
ENDROOT
BRANCH   9  14
HETATM   14  N3  UNL     1      19.937   8.633  21.915  1.00  0.00    -0.234 N 
ATOM     15  H32 UNL     1      20.102   9.600  22.194  1.00  0.00     0.174 HD
ATOM     16  H31 UNL     1      19.099   8.093  22.128  1.00  0.00     0.174 HD
ENDBRANCH   9  14
BRANCH   1  17
HETATM   17  C2  UNL     1      23.940   7.471  15.967  1.00  0.00    -0.015 C 
HETATM   18  C1  UNL     1      22.969   7.746  14.872  1.00  0.00     0.020 C 
HETATM   19  C3  UNL     1      24.541   6.087  15.664  1.00  0.00     0.020 C 
HETATM   20  C4  UNL     1      25.068   8.468  15.893  1.00  0.00     0.020 C 
ENDBRANCH   1  17
BRANCH  13  21
HETATM   21  N5  UNL     1      21.656   9.182  17.153  1.00  0.00    -0.167 N 
BRANCH  21  22
HETATM   22  N6  UNL     1      22.358  10.269  16.689  1.00  0.00    -0.319 N 
ATOM     23  H62 UNL     1      23.169  10.169  16.078  1.00  0.00     0.179 HD
ATOM     24  H61 UNL     1      22.072  11.211  16.957  1.00  0.00     0.179 HD
ENDBRANCH  21  22
BRANCH  21  25
HETATM   25  O1  UNL     1      20.357   9.042  16.941  1.00  0.00    -0.268 OA
ATOM     26  H1  UNL     1      19.831   9.829  16.855  1.00  0.00     0.247 HD
ENDBRANCH  21  25
ENDBRANCH  13  21
TORSDOF 5
ENDMDL
MODEL 3
REMARK VINA RESULT: -6.827214385      0.638      1.221
REMARK  5 active torsions:
REMARK  status: ('A' for Active; 'I' for Inactive)
REMARK    1  A    between atoms: C2_2  and  C5_5 
REMARK    2  A    between atoms: C9_13  and  N3_14 
REMARK    3  A    between atoms: C11_20  and  N5_21 
REMARK    4  A    between atoms: N5_21  and  N6_22 
REMARK    5  A    between atoms: N5_21  and  O1_25 
ROOT
HETATM    1  C5  UNL     1      23.444   7.353  17.797  1.00  0.00     0.024 A 
HETATM    2  S1  UNL     1      22.544   8.153  19.003  1.00  0.00    -0.086 SA
HETATM    3  C6  UNL     1      22.690   7.016  20.264  1.00  0.00     0.073 A 
HETATM    4  C7  UNL     1      22.222   6.955  21.590  1.00  0.00     0.149 A 
HETATM    5  C8  UNL     1      21.437   8.054  22.028  1.00  0.00     0.119 C 
HETATM    6  N1  UNL     1      20.785   8.944  22.378  1.00  0.00    -0.190 NA
HETATM    7  N2  UNL     1      22.511   5.903  22.373  1.00  0.00    -0.181 N 
ATOM      8  H2  UNL     1      22.185   5.835  23.337  1.00  0.00     0.185 HD
HETATM    9  C9  UNL     1      23.261   4.946  21.798  1.00  0.00     0.677 A 
HETATM   10  N4  UNL     1      23.717   4.973  20.550  1.00  0.00    -0.188 N 
ATOM     11  H4  UNL     1      24.280   4.194  20.208  1.00  0.00     0.184 HD
HETATM   12  C10 UNL     1      23.449   6.031  19.702  1.00  0.00     0.101 A 
HETATM   13  C11 UNL     1      23.844   6.200  18.420  1.00  0.00     0.123 A 
ENDROOT
BRANCH   9  14
HETATM   14  N3  UNL     1      23.558   3.922  22.526  1.00  0.00    -0.234 N 
ATOM     15  H32 UNL     1      23.152   3.867  23.460  1.00  0.00     0.174 HD
ATOM     16  H31 UNL     1      24.183   3.229  22.114  1.00  0.00     0.174 HD
ENDBRANCH   9  14
BRANCH   1  17
HETATM   17  C2  UNL     1      23.684   7.840  16.412  1.00  0.00    -0.015 C 
HETATM   18  C1  UNL     1      24.969   8.568  16.222  1.00  0.00     0.020 C 
HETATM   19  C3  UNL     1      22.571   8.851  16.086  1.00  0.00     0.020 C 
HETATM   20  C4  UNL     1      23.585   6.731  15.397  1.00  0.00     0.020 C 
ENDBRANCH   1  17
BRANCH  13  21
HETATM   21  N5  UNL     1      24.662   5.220  17.728  1.00  0.00    -0.167 N 
BRANCH  21  22
HETATM   22  N6  UNL     1      24.131   3.997  17.393  1.00  0.00    -0.319 N 
ATOM     23  H62 UNL     1      23.717   3.378  18.090  1.00  0.00     0.179 HD
ATOM     24  H61 UNL     1      24.144   3.686  16.422  1.00  0.00     0.179 HD
ENDBRANCH  21  22
BRANCH  21  25
HETATM   25  O1  UNL     1      25.913   5.545  17.439  1.00  0.00    -0.268 OA
ATOM     26  H1  UNL     1      26.059   6.224  16.790  1.00  0.00     0.247 HD
ENDBRANCH  21  25
ENDBRANCH  13  21
TORSDOF 5
ENDMDL
MODEL 4
REMARK VINA RESULT: -6.797393303      1.826      5.149
REMARK  5 active torsions:
REMARK  status: ('A' for Active; 'I' for Inactive)
REMARK    1  A    between atoms: C2_2  and  C5_5 
REMARK    2  A    between atoms: C9_13  and  N3_14 
REMARK    3  A    between atoms: C11_20  and  N5_21 
REMARK    4  A    between atoms: N5_21  and  N6_22 
REMARK    5  A    between atoms: N5_21  and  O1_25 
ROOT
HETATM    1  C5  UNL     1      22.282   7.478  19.591  1.00  0.00     0.024 A 
HETATM    2  S1  UNL     1      22.109   8.183  18.049  1.00  0.00    -0.086 SA
HETATM    3  C6  UNL     1      23.255   7.261  17.188  1.00  0.00     0.073 A 
HETATM    4  C7  UNL     1      23.696   7.241  15.852  1.00  0.00     0.149 A 
HETATM    5  C8  UNL     1      23.094   8.188  14.981  1.00  0.00     0.119 C 
HETATM    6  N1  UNL     1      22.613   8.970  14.276  1.00  0.00    -0.190 NA
HETATM    7  N2  UNL     1      24.637   6.372  15.451  1.00  0.00    -0.181 N 
ATOM      8  H2  UNL     1      24.973   6.337  14.489  1.00  0.00     0.185 HD
HETATM    9  C9  UNL     1      25.106   5.549  16.407  1.00  0.00     0.677 A 
HETATM   10  N4  UNL     1      24.712   5.543  17.676  1.00  0.00    -0.188 N 
ATOM     11  H4  UNL     1      25.132   4.877  18.324  1.00  0.00     0.184 HD
HETATM   12  C10 UNL     1      23.747   6.417  18.141  1.00  0.00     0.101 A 
HETATM   13  C11 UNL     1      23.245   6.525  19.392  1.00  0.00     0.123 A 
ENDROOT
BRANCH   9  14
HETATM   14  N3  UNL     1      26.011   4.699  16.052  1.00  0.00    -0.234 N 
ATOM     15  H32 UNL     1      26.199   4.591  15.055  1.00  0.00     0.174 HD
ATOM     16  H31 UNL     1      26.482   4.190  16.799  1.00  0.00     0.174 HD
ENDBRANCH   9  14
BRANCH   1  17
HETATM   17  C2  UNL     1      21.544   7.868  20.822  1.00  0.00    -0.015 C 
HETATM   18  C1  UNL     1      21.456   6.802  21.859  1.00  0.00     0.020 C 
HETATM   19  C3  UNL     1      20.095   8.176  20.406  1.00  0.00     0.020 C 
HETATM   20  C4  UNL     1      22.101   9.122  21.445  1.00  0.00     0.020 C 
ENDBRANCH   1  17
BRANCH  13  21
HETATM   21  N5  UNL     1      23.690   5.670  20.479  1.00  0.00    -0.167 N 
BRANCH  21  22
HETATM   22  N6  UNL     1      24.129   6.230  21.655  1.00  0.00    -0.319 N 
ATOM     23  H62 UNL     1      24.675   7.091  21.673  1.00  0.00     0.179 HD
ATOM     24  H61 UNL     1      23.912   5.780  22.544  1.00  0.00     0.179 HD
ENDBRANCH  21  22
BRANCH  21  25
HETATM   25  O1  UNL     1      23.654   4.359  20.294  1.00  0.00    -0.268 OA
ATOM     26  H1  UNL     1      24.476   3.883  20.313  1.00  0.00     0.247 HD
ENDBRANCH  21  25
ENDBRANCH  13  21
TORSDOF 5
ENDMDL
MODEL 5
REMARK VINA RESULT: -5.325113765      2.292      3.443
REMARK  5 active torsions:
REMARK  status: ('A' for Active; 'I' for Inactive)
REMARK    1  A    between atoms: C2_2  and  C5_5 
REMARK    2  A    between atoms: C9_13  and  N3_14 
REMARK    3  A    between atoms: C11_20  and  N5_21 
REMARK    4  A    between atoms: N5_21  and  N6_22 
REMARK    5  A    between atoms: N5_21  and  O1_25 
ROOT
HETATM    1  C5  UNL     1      23.947   6.031  18.002  1.00  0.00     0.024 A 
HETATM    2  S1  UNL     1      23.750   5.131  19.436  1.00  0.00    -0.086 SA
HETATM    3  C6  UNL     1      22.899   6.273  20.371  1.00  0.00     0.073 A 
HETATM    4  C7  UNL     1      22.373   6.277  21.676  1.00  0.00     0.149 A 
HETATM    5  C8  UNL     1      22.575   5.094  22.436  1.00  0.00     0.119 C 
HETATM    6  N1  UNL     1      22.753   4.134  23.058  1.00  0.00    -0.190 NA
HETATM    7  N2  UNL     1      21.726   7.352  22.153  1.00  0.00    -0.181 N 
ATOM      8  H2  UNL     1      21.335   7.380  23.095  1.00  0.00     0.185 HD
HETATM    9  C9  UNL     1      21.629   8.391  21.303  1.00  0.00     0.677 A 
HETATM   10  N4  UNL     1      22.116   8.419  20.067  1.00  0.00    -0.188 N 
ATOM     11  H4  UNL     1      21.989   9.258  19.501  1.00  0.00     0.184 HD
HETATM   12  C10 UNL     1      22.790   7.340  19.527  1.00  0.00     0.101 A 
HETATM   13  C11 UNL     1      23.332   7.220  18.294  1.00  0.00     0.123 A 
ENDROOT
BRANCH   9  14
HETATM   14  N3  UNL     1      21.010   9.439  21.732  1.00  0.00    -0.234 N 
ATOM     15  H32 UNL     1      20.680  10.114  21.043  1.00  0.00     0.174 HD
ATOM     16  H31 UNL     1      20.891   9.522  22.742  1.00  0.00     0.174 HD
ENDBRANCH   9  14
BRANCH   1  17
HETATM   17  C2  UNL     1      24.647   5.579  16.770  1.00  0.00    -0.015 C 
HETATM   18  C1  UNL     1      24.081   6.115  15.501  1.00  0.00     0.020 C 
HETATM   19  C3  UNL     1      24.489   4.050  16.692  1.00  0.00     0.020 C 
HETATM   20  C4  UNL     1      26.124   5.869  16.818  1.00  0.00     0.020 C 
ENDBRANCH   1  17
BRANCH  13  21
HETATM   21  N5  UNL     1      23.264   8.290  17.314  1.00  0.00    -0.167 N 
BRANCH  21  22
HETATM   22  N6  UNL     1      24.421   8.874  16.856  1.00  0.00    -0.319 N 
ATOM     23  H62 UNL     1      24.812   8.654  15.939  1.00  0.00     0.179 HD
ATOM     24  H61 UNL     1      24.915   9.548  17.439  1.00  0.00     0.179 HD
ENDBRANCH  21  22
BRANCH  21  25
HETATM   25  O1  UNL     1      22.069   8.669  16.888  1.00  0.00    -0.268 OA
ATOM     26  H1  UNL     1      21.820   8.446  15.999  1.00  0.00     0.247 HD
ENDBRANCH  21  25
ENDBRANCH  13  21
TORSDOF 5
ENDMDL
