MODEL 1
REMARK VINA RESULT: -3.861923950      0.000      0.000
REMARK  1 active torsions:
REMARK  status: ('A' for Active; 'I' for Inactive)
REMARK    1  A    between atoms: C5_9  and  N2_10 
ROOT
HETATM    1  C1  UNL     1      21.336   4.609  27.333  1.00  0.00     0.041 C 
HETATM    2  C2  UNL     1      21.767   3.137  27.402  1.00  0.00     0.193 C 
HETATM    3  C3  UNL     1      20.710   2.390  26.587  1.00  0.00     0.113 C 
HETATM    4  S1  UNL     1      20.978   0.624  26.578  1.00  0.00    -0.113 SA
HETATM    5  C4  UNL     1      20.759  -0.086  24.926  1.00  0.00     0.071 C 
HETATM    6  N1  UNL     1      19.649   0.120  24.333  1.00  0.00    -0.395 N 
ATOM      7  H11 UNL     1      19.526  -0.280  23.403  1.00  0.00     0.156 HD
ATOM      8  H12 UNL     1      18.915   0.668  24.781  1.00  0.00     0.156 HD
HETATM    9  C5  UNL     1      21.821  -0.879  24.278  1.00  0.00     0.248 C 
HETATM   10  C6  UNL     1      22.561  -1.771  25.272  1.00  0.00     0.113 C 
HETATM   11  S2  UNL     1      24.336  -1.539  25.090  1.00  0.00    -0.164 SA
HETATM   12  C7  UNL     1      25.146  -0.985  26.583  1.00  0.00     0.112 C 
HETATM   13  C8  UNL     1      25.245   0.523  26.689  1.00  0.00     0.129 C 
HETATM   14  C9  UNL     1      25.261   1.190  25.331  1.00  0.00     0.046 C 
HETATM   15  C10 UNL     1      26.548   0.940  27.381  1.00  0.00     0.046 C 
HETATM   16  N3  UNL     1      24.115   0.959  27.496  1.00  0.00    -0.043 N 
ATOM     17  H31 UNL     1      24.122   0.500  28.408  1.00  0.00     0.280 HD
ATOM     18  H32 UNL     1      23.240   0.586  27.126  1.00  0.00     0.280 HD
HETATM   19  C11 UNL     1      24.039   2.377  27.644  1.00  0.00     0.464 C 
HETATM   20  N4  UNL     1      23.081   3.015  26.792  1.00  0.00    -0.047 N 
ATOM     21  H41 UNL     1      23.422   3.925  26.479  1.00  0.00     0.279 HD
ATOM     22  H42 UNL     1      23.022   2.540  25.892  1.00  0.00     0.279 HD
ENDROOT
BRANCH   9  23
HETATM   23  N2  UNL     1      21.203  -1.683  23.222  1.00  0.00    -0.068 N 
ATOM     24  H23 UNL     1      20.236  -1.932  23.429  1.00  0.00     0.275 HD
ATOM     25  H22 UNL     1      21.026  -1.149  22.371  1.00  0.00     0.275 HD
ATOM     26  H21 UNL     1      21.794  -2.498  23.060  1.00  0.00     0.275 HD
ENDBRANCH   9  23
TORSDOF 1
ENDMDL
MODEL 2
REMARK VINA RESULT: -3.390959338      2.256      4.872
REMARK  1 active torsions:
REMARK  status: ('A' for Active; 'I' for Inactive)
REMARK    1  A    between atoms: C5_9  and  N2_10 
ROOT
HETATM    1  C1  UNL     1      27.726   2.084  26.166  1.00  0.00     0.041 C 
HETATM    2  C2  UNL     1      26.368   1.579  26.672  1.00  0.00     0.193 C 
HETATM    3  C3  UNL     1      25.736   2.793  27.355  1.00  0.00     0.113 C 
HETATM    4  S1  UNL     1      24.149   2.419  28.083  1.00  0.00    -0.113 SA
HETATM    5  C4  UNL     1      22.926   3.710  27.743  1.00  0.00     0.071 C 
HETATM    6  N1  UNL     1      23.213   4.905  28.083  1.00  0.00    -0.395 N 
ATOM      7  H11 UNL     1      22.523   5.632  27.891  1.00  0.00     0.156 HD
ATOM      8  H12 UNL     1      24.104   5.118  28.529  1.00  0.00     0.156 HD
HETATM    9  C5  UNL     1      21.636   3.402  27.096  1.00  0.00     0.248 C 
HETATM   10  C6  UNL     1      21.056   2.071  27.570  1.00  0.00     0.113 C 
HETATM   11  S2  UNL     1      20.599   1.066  26.149  1.00  0.00    -0.164 SA
HETATM   12  C7  UNL     1      21.431  -0.513  26.087  1.00  0.00     0.112 C 
HETATM   13  C8  UNL     1      22.722  -0.481  25.293  1.00  0.00     0.129 C 
HETATM   14  C9  UNL     1      22.712   0.597  24.231  1.00  0.00     0.046 C 
HETATM   15  C10 UNL     1      22.941  -1.805  24.550  1.00  0.00     0.046 C 
HETATM   16  N3  UNL     1      23.798  -0.288  26.254  1.00  0.00    -0.043 N 
ATOM     17  H31 UNL     1      23.789  -1.025  26.960  1.00  0.00     0.280 HD
ATOM     18  H32 UNL     1      23.611   0.519  26.850  1.00  0.00     0.280 HD
HETATM   19  C11 UNL     1      25.086  -0.183  25.647  1.00  0.00     0.464 C 
HETATM   20  N4  UNL     1      25.581   1.154  25.525  1.00  0.00    -0.047 N 
ATOM     21  H41 UNL     1      26.109   1.269  24.660  1.00  0.00     0.279 HD
ATOM     22  H42 UNL     1      24.819   1.808  25.344  1.00  0.00     0.279 HD
ENDROOT
BRANCH   9  23
HETATM   23  N2  UNL     1      20.713   4.501  27.384  1.00  0.00    -0.068 N 
ATOM     24  H23 UNL     1      19.965   4.579  26.695  1.00  0.00     0.275 HD
ATOM     25  H22 UNL     1      20.128   4.322  28.199  1.00  0.00     0.275 HD
ATOM     26  H21 UNL     1      21.260   5.357  27.471  1.00  0.00     0.275 HD
ENDBRANCH   9  23
TORSDOF 1
ENDMDL
MODEL 3
REMARK VINA RESULT: -2.752553503      1.922      5.837
REMARK  1 active torsions:
REMARK  status: ('A' for Active; 'I' for Inactive)
REMARK    1  A    between atoms: C5_9  and  N2_10 
ROOT
HETATM    1  C1  UNL     1      24.715  -1.859  22.933  1.00  0.00     0.041 C 
HETATM    2  C2  UNL     1      23.945  -1.303  24.139  1.00  0.00     0.193 C 
HETATM    3  C3  UNL     1      25.026  -0.704  25.040  1.00  0.00     0.113 C 
HETATM    4  S1  UNL     1      24.358  -0.039  26.557  1.00  0.00    -0.113 SA
HETATM    5  C4  UNL     1      25.076   1.573  26.965  1.00  0.00     0.071 C 
HETATM    6  N1  UNL     1      26.345   1.653  27.056  1.00  0.00    -0.395 N 
ATOM      7  H11 UNL     1      26.749   2.561  27.286  1.00  0.00     0.156 HD
ATOM      8  H12 UNL     1      26.929   0.831  26.903  1.00  0.00     0.156 HD
HETATM    9  C5  UNL     1      24.231   2.762  27.186  1.00  0.00     0.248 C 
HETATM   10  C6  UNL     1      22.942   2.421  27.931  1.00  0.00     0.113 C 
HETATM   11  S2  UNL     1      21.532   3.113  27.052  1.00  0.00    -0.164 SA
HETATM   12  C7  UNL     1      20.330   1.893  26.547  1.00  0.00     0.112 C 
HETATM   13  C8  UNL     1      20.574   1.351  25.154  1.00  0.00     0.129 C 
HETATM   14  C9  UNL     1      21.303   2.343  24.274  1.00  0.00     0.046 C 
HETATM   15  C10 UNL     1      19.248   1.050  24.442  1.00  0.00     0.046 C 
HETATM   16  N3  UNL     1      21.321   0.112  25.313  1.00  0.00    -0.043 N 
ATOM     17  H31 UNL     1      20.813  -0.544  25.907  1.00  0.00     0.280 HD
ATOM     18  H32 UNL     1      22.147   0.260  25.894  1.00  0.00     0.280 HD
HETATM   19  C11 UNL     1      21.676  -0.498  24.072  1.00  0.00     0.464 C 
HETATM   20  N4  UNL     1      23.031  -0.276  23.664  1.00  0.00    -0.047 N 
ATOM     21  H41 UNL     1      23.093  -0.174  22.651  1.00  0.00     0.279 HD
ATOM     22  H42 UNL     1      23.348   0.652  23.945  1.00  0.00     0.279 HD
ENDROOT
BRANCH   9  23
HETATM   23  N2  UNL     1      25.019   3.742  27.937  1.00  0.00    -0.068 N 
ATOM     24  H23 UNL     1      25.975   3.828  27.592  1.00  0.00     0.275 HD
ATOM     25  H22 UNL     1      24.725   4.702  27.762  1.00  0.00     0.275 HD
ATOM     26  H21 UNL     1      24.977   3.490  28.924  1.00  0.00     0.275 HD
ENDBRANCH   9  23
TORSDOF 1
ENDMDL
MODEL 4
REMARK VINA RESULT: -2.680238526      9.775     11.376
REMARK  1 active torsions:
REMARK  status: ('A' for Active; 'I' for Inactive)
REMARK    1  A    between atoms: C5_9  and  N2_10 
ROOT
HETATM    1  C1  UNL     1      26.350   4.834  16.045  1.00  0.00     0.041 C 
HETATM    2  C2  UNL     1      24.951   5.284  16.489  1.00  0.00     0.193 C 
HETATM    3  C3  UNL     1      24.816   4.760  17.919  1.00  0.00     0.113 C 
HETATM    4  S1  UNL     1      23.217   5.120  18.629  1.00  0.00    -0.113 SA
HETATM    5  C4  UNL     1      23.351   5.717  20.334  1.00  0.00     0.071 C 
HETATM    6  N1  UNL     1      23.968   4.982  21.174  1.00  0.00    -0.395 N 
ATOM      7  H11 UNL     1      24.044   5.319  22.134  1.00  0.00     0.156 HD
ATOM      8  H12 UNL     1      24.371   4.091  20.886  1.00  0.00     0.156 HD
HETATM    9  C5  UNL     1      22.769   7.007  20.750  1.00  0.00     0.248 C 
HETATM   10  C6  UNL     1      21.426   7.278  20.074  1.00  0.00     0.113 C 
HETATM   11  S2  UNL     1      21.433   8.924  19.348  1.00  0.00    -0.164 SA
HETATM   12  C7  UNL     1      21.138   8.935  17.587  1.00  0.00     0.112 C 
HETATM   13  C8  UNL     1      22.409   8.875  16.765  1.00  0.00     0.129 C 
HETATM   14  C9  UNL     1      23.594   9.458  17.503  1.00  0.00     0.046 C 
HETATM   15  C10 UNL     1      22.268   9.696  15.477  1.00  0.00     0.046 C 
HETATM   16  N3  UNL     1      22.616   7.476  16.419  1.00  0.00    -0.043 N 
ATOM     17  H31 UNL     1      21.808   7.103  15.921  1.00  0.00     0.280 HD
ATOM     18  H32 UNL     1      22.586   6.889  17.253  1.00  0.00     0.280 HD
HETATM   19  C11 UNL     1      23.817   7.248  15.681  1.00  0.00     0.464 C 
HETATM   20  N4  UNL     1      24.906   6.737  16.456  1.00  0.00    -0.047 N 
ATOM     21  H41 UNL     1      25.794   7.121  16.133  1.00  0.00     0.279 HD
ATOM     22  H42 UNL     1      24.892   7.122  17.401  1.00  0.00     0.279 HD
ENDROOT
BRANCH   9  23
HETATM   23  N2  UNL     1      22.620   6.987  22.207  1.00  0.00    -0.068 N 
ATOM     24  H23 UNL     1      22.440   6.052  22.572  1.00  0.00     0.275 HD
ATOM     25  H22 UNL     1      23.499   7.156  22.695  1.00  0.00     0.275 HD
ATOM     26  H21 UNL     1      21.893   7.656  22.458  1.00  0.00     0.275 HD
ENDBRANCH   9  23
TORSDOF 1
ENDMDL
MODEL 5
REMARK VINA RESULT: -2.008331905     10.184     11.151
REMARK  1 active torsions:
REMARK  status: ('A' for Active; 'I' for Inactive)
REMARK    1  A    between atoms: C5_9  and  N2_10 
ROOT
HETATM    1  C1  UNL     1      23.272   5.814  21.922  1.00  0.00     0.041 C 
HETATM    2  C2  UNL     1      22.928   5.885  20.427  1.00  0.00     0.193 C 
HETATM    3  C3  UNL     1      22.018   7.107  20.301  1.00  0.00     0.113 C 
HETATM    4  S1  UNL     1      21.435   7.355  18.631  1.00  0.00    -0.113 SA
HETATM    5  C4  UNL     1      21.523   9.094  18.132  1.00  0.00     0.071 C 
HETATM    6  N1  UNL     1      20.925   9.952  18.861  1.00  0.00    -0.395 N 
ATOM      7  H11 UNL     1      20.975  10.931  18.580  1.00  0.00     0.156 HD
ATOM      8  H12 UNL     1      20.416   9.660  19.695  1.00  0.00     0.156 HD
HETATM    9  C5  UNL     1      22.259   9.515  16.925  1.00  0.00     0.248 C 
HETATM   10  C6  UNL     1      22.101   8.521  15.777  1.00  0.00     0.113 C 
HETATM   11  S2  UNL     1      23.719   8.101  15.110  1.00  0.00    -0.164 SA
HETATM   12  C7  UNL     1      24.097   6.357  15.184  1.00  0.00     0.112 C 
HETATM   13  C8  UNL     1      24.826   5.954  16.449  1.00  0.00     0.129 C 
HETATM   14  C9  UNL     1      25.630   7.095  17.033  1.00  0.00     0.046 C 
HETATM   15  C10 UNL     1      25.831   4.830  16.167  1.00  0.00     0.046 C 
HETATM   16  N3  UNL     1      23.815   5.469  17.377  1.00  0.00    -0.043 N 
ATOM     17  H31 UNL     1      23.286   4.699  16.966  1.00  0.00     0.280 HD
ATOM     18  H32 UNL     1      23.064   6.152  17.484  1.00  0.00     0.280 HD
HETATM   19  C11 UNL     1      24.347   5.097  18.649  1.00  0.00     0.464 C 
HETATM   20  N4  UNL     1      24.162   6.071  19.681  1.00  0.00    -0.047 N 
ATOM     21  H41 UNL     1      24.966   6.093  20.309  1.00  0.00     0.279 HD
ATOM     22  H42 UNL     1      24.220   7.017  19.303  1.00  0.00     0.279 HD
ENDROOT
BRANCH   9  23
HETATM   23  N2  UNL     1      21.767  10.838  16.536  1.00  0.00    -0.068 N 
ATOM     24  H23 UNL     1      21.290  10.833  15.635  1.00  0.00     0.275 HD
ATOM     25  H22 UNL     1      20.981  11.150  17.105  1.00  0.00     0.275 HD
ATOM     26  H21 UNL     1      22.554  11.486  16.561  1.00  0.00     0.275 HD
ENDBRANCH   9  23
TORSDOF 1
ENDMDL
