MODEL 1
REMARK VINA RESULT: -7.517258066      0.000      0.000
REMARK  2 active torsions:
REMARK  status: ('A' for Active; 'I' for Inactive)
REMARK    1  A    between atoms: C2_2  and  C5_6 
REMARK    2  A    between atoms: C9_17  and  N4_18 
ROOT
HETATM    1  C1  UNL     1      24.184   6.293  16.557  1.00  0.00     0.035 C 
HETATM    2  C2  UNL     1      23.892   7.774  16.341  1.00  0.00     0.061 C 
HETATM    3  C3  UNL     1      25.132   8.567  16.568  1.00  0.00     0.035 C 
HETATM    4  C4  UNL     1      23.521   7.908  14.930  1.00  0.00     0.072 C 
HETATM    5  N1  UNL     1      23.209   8.020  13.816  1.00  0.00    -0.196 NA
ENDROOT
BRANCH   2   6
HETATM    6  C5  UNL     1      22.757   8.142  17.190  1.00  0.00     0.020 C 
HETATM    7  C6  UNL     1      22.384   7.531  18.292  1.00  0.00     0.054 C 
HETATM    8  S1  UNL     1      23.371   6.126  18.769  1.00  0.00    -0.051 SA
HETATM    9  C10 UNL     1      21.227   8.031  19.020  1.00  0.00     0.203 C 
HETATM   10  C7  UNL     1      23.484   6.059  20.552  1.00  0.00     0.143 C 
HETATM   11  N2  UNL     1      24.352   5.218  21.030  1.00  0.00    -0.380 N 
HETATM   12  N3  UNL     1      22.773   6.782  21.548  1.00  0.00    -0.329 N 
ATOM     13  H22 UNL     1      24.863   4.700  20.316  1.00  0.00     0.158 HD
ATOM     14  H21 UNL     1      24.417   5.180  22.048  1.00  0.00     0.158 HD
HETATM   15  C8  UNL     1      21.633   7.608  21.389  1.00  0.00     0.118 C 
ATOM     16  H3  UNL     1      23.128   6.695  22.500  1.00  0.00     0.168 HD
HETATM   17  S2  UNL     1      21.419   8.764  22.524  1.00  0.00    -0.062 SA
HETATM   18  C9  UNL     1      20.614   7.539  20.306  1.00  0.00     0.319 C 
HETATM   19  O1  UNL     1      20.678   9.013  18.475  1.00  0.00    -0.289 OA
BRANCH  18  20
HETATM   20  N4  UNL     1      19.458   8.345  20.607  1.00  0.00    -0.062 N 
ATOM     21  H43 UNL     1      19.350   8.479  21.613  1.00  0.00     0.275 HD
ATOM     22  H42 UNL     1      19.600   9.316  20.332  1.00  0.00     0.275 HD
ATOM     23  H41 UNL     1      18.610   7.960  20.191  1.00  0.00     0.275 HD
ENDBRANCH  18  20
ENDBRANCH   2   6
TORSDOF 2
ENDMDL
MODEL 2
REMARK VINA RESULT: -6.316394556      1.025      1.468
REMARK  2 active torsions:
REMARK  status: ('A' for Active; 'I' for Inactive)
REMARK    1  A    between atoms: C2_2  and  C5_6 
REMARK    2  A    between atoms: C9_17  and  N4_18 
ROOT
HETATM    1  C1  UNL     1      23.269   8.240  14.709  1.00  0.00     0.035 C 
HETATM    2  C2  UNL     1      23.627   7.736  16.102  1.00  0.00     0.061 C 
HETATM    3  C3  UNL     1      23.945   6.282  16.043  1.00  0.00     0.035 C 
HETATM    4  C4  UNL     1      24.848   8.451  16.486  1.00  0.00     0.072 C 
HETATM    5  N1  UNL     1      25.806   9.025  16.804  1.00  0.00    -0.196 NA
ENDROOT
BRANCH   2   6
HETATM    6  C5  UNL     1      22.535   8.095  17.010  1.00  0.00     0.020 C 
HETATM    7  C6  UNL     1      22.247   7.502  18.146  1.00  0.00     0.054 C 
HETATM    8  S1  UNL     1      23.299   6.135  18.594  1.00  0.00    -0.051 SA
HETATM    9  C10 UNL     1      21.122   7.988  18.931  1.00  0.00     0.203 C 
HETATM   10  C7  UNL     1      23.521   6.114  20.367  1.00  0.00     0.143 C 
HETATM   11  N2  UNL     1      24.439   5.309  20.811  1.00  0.00    -0.380 N 
HETATM   12  N3  UNL     1      22.851   6.842  21.388  1.00  0.00    -0.329 N 
ATOM     13  H22 UNL     1      24.920   4.787  20.079  1.00  0.00     0.158 HD
ATOM     14  H21 UNL     1      24.566   5.297  21.823  1.00  0.00     0.158 HD
HETATM   15  C8  UNL     1      21.681   7.634  21.280  1.00  0.00     0.118 C 
ATOM     16  H3  UNL     1      23.265   6.788  22.318  1.00  0.00     0.168 HD
HETATM   17  S2  UNL     1      21.504   8.811  22.400  1.00  0.00    -0.062 SA
HETATM   18  C9  UNL     1      20.601   7.512  20.263  1.00  0.00     0.319 C 
HETATM   19  O1  UNL     1      20.514   8.942  18.399  1.00  0.00    -0.289 OA
BRANCH  18  20
HETATM   20  N4  UNL     1      19.444   8.294  20.616  1.00  0.00    -0.062 N 
ATOM     21  H43 UNL     1      19.705   9.240  20.894  1.00  0.00     0.275 HD
ATOM     22  H42 UNL     1      18.883   8.519  19.794  1.00  0.00     0.275 HD
ATOM     23  H41 UNL     1      18.883   7.837  21.335  1.00  0.00     0.275 HD
ENDBRANCH  18  20
ENDBRANCH   2   6
TORSDOF 2
ENDMDL
MODEL 3
REMARK VINA RESULT: -6.056228684      0.997      1.380
REMARK  2 active torsions:
REMARK  status: ('A' for Active; 'I' for Inactive)
REMARK    1  A    between atoms: C2_2  and  C5_6 
REMARK    2  A    between atoms: C9_17  and  N4_18 
ROOT
HETATM    1  C1  UNL     1      25.199   8.398  16.661  1.00  0.00     0.035 C 
HETATM    2  C2  UNL     1      23.952   7.723  16.102  1.00  0.00     0.061 C 
HETATM    3  C3  UNL     1      23.798   8.070  14.661  1.00  0.00     0.035 C 
HETATM    4  C4  UNL     1      24.199   6.281  16.196  1.00  0.00     0.072 C 
HETATM    5  N1  UNL     1      24.380   5.137  16.283  1.00  0.00    -0.196 NA
ENDROOT
BRANCH   2   6
HETATM    6  C5  UNL     1      22.817   8.089  16.952  1.00  0.00     0.020 C 
HETATM    7  C6  UNL     1      22.465   7.496  18.071  1.00  0.00     0.054 C 
HETATM    8  S1  UNL     1      23.483   6.121  18.570  1.00  0.00    -0.051 SA
HETATM    9  C10 UNL     1      21.304   7.990  18.796  1.00  0.00     0.203 C 
HETATM   10  C7  UNL     1      23.611   6.096  20.353  1.00  0.00     0.143 C 
HETATM   11  N2  UNL     1      24.499   5.283  20.843  1.00  0.00    -0.380 N 
HETATM   12  N3  UNL     1      22.894   6.827  21.339  1.00  0.00    -0.329 N 
ATOM     13  H22 UNL     1      25.013   4.758  20.136  1.00  0.00     0.158 HD
ATOM     14  H21 UNL     1      24.572   5.269  21.861  1.00  0.00     0.158 HD
HETATM   15  C8  UNL     1      21.737   7.628  21.171  1.00  0.00     0.118 C 
ATOM     16  H3  UNL     1      23.258   6.768  22.289  1.00  0.00     0.168 HD
HETATM   17  S2  UNL     1      21.511   8.805  22.282  1.00  0.00    -0.062 SA
HETATM   18  C9  UNL     1      20.711   7.516  20.099  1.00  0.00     0.319 C 
HETATM   19  O1  UNL     1      20.732   8.949  18.235  1.00  0.00    -0.289 OA
BRANCH  18  20
HETATM   20  N4  UNL     1      19.542   8.306  20.392  1.00  0.00    -0.062 N 
ATOM     21  H43 UNL     1      18.831   8.200  19.669  1.00  0.00     0.275 HD
ATOM     22  H42 UNL     1      19.024   7.924  21.182  1.00  0.00     0.275 HD
ATOM     23  H41 UNL     1      19.777   9.287  20.541  1.00  0.00     0.275 HD
ENDBRANCH  18  20
ENDBRANCH   2   6
TORSDOF 2
ENDMDL
MODEL 4
REMARK VINA RESULT: -4.966784076      2.505      5.936
REMARK  2 active torsions:
REMARK  status: ('A' for Active; 'I' for Inactive)
REMARK    1  A    between atoms: C2_2  and  C5_6 
REMARK    2  A    between atoms: C9_17  and  N4_18 
ROOT
HETATM    1  C1  UNL     1      20.127   7.890  20.810  1.00  0.00     0.035 C 
HETATM    2  C2  UNL     1      21.572   7.910  21.295  1.00  0.00     0.061 C 
HETATM    3  C3  UNL     1      21.980   9.312  21.595  1.00  0.00     0.035 C 
HETATM    4  C4  UNL     1      21.584   7.157  22.552  1.00  0.00     0.072 C 
HETATM    5  N1  UNL     1      21.606   6.547  23.540  1.00  0.00    -0.196 NA
ENDROOT
BRANCH   2   6
HETATM    6  C5  UNL     1      22.395   7.226  20.297  1.00  0.00     0.020 C 
HETATM    7  C6  UNL     1      22.353   7.413  18.997  1.00  0.00     0.054 C 
HETATM    8  S1  UNL     1      21.169   8.618  18.428  1.00  0.00    -0.051 SA
HETATM    9  C10 UNL     1      23.246   6.645  18.143  1.00  0.00     0.203 C 
HETATM   10  C7  UNL     1      21.842   9.491  17.021  1.00  0.00     0.143 C 
HETATM   11  N2  UNL     1      21.181  10.545  16.643  1.00  0.00    -0.380 N 
HETATM   12  N3  UNL     1      22.995   9.222  16.235  1.00  0.00    -0.329 N 
ATOM     13  H22 UNL     1      20.354  10.738  17.207  1.00  0.00     0.158 HD
ATOM     14  H21 UNL     1      21.565  11.043  15.840  1.00  0.00     0.158 HD
HETATM   15  C8  UNL     1      23.810   8.062  16.238  1.00  0.00     0.118 C 
ATOM     16  H3  UNL     1      23.273   9.958  15.586  1.00  0.00     0.168 HD
HETATM   17  S2  UNL     1      25.351   8.266  15.735  1.00  0.00    -0.062 SA
HETATM   18  C9  UNL     1      23.417   6.686  16.646  1.00  0.00     0.319 C 
HETATM   19  O1  UNL     1      23.969   5.839  18.768  1.00  0.00    -0.289 OA
BRANCH  18  20
HETATM   20  N4  UNL     1      24.408   5.712  16.264  1.00  0.00    -0.062 N 
ATOM     21  H43 UNL     1      24.701   5.840  15.296  1.00  0.00     0.275 HD
ATOM     22  H42 UNL     1      25.300   5.889  16.725  1.00  0.00     0.275 HD
ATOM     23  H41 UNL     1      24.085   4.759  16.432  1.00  0.00     0.275 HD
ENDBRANCH  18  20
ENDBRANCH   2   6
TORSDOF 2
ENDMDL
MODEL 5
REMARK VINA RESULT: -4.731603583      2.578      5.864
REMARK  2 active torsions:
REMARK  status: ('A' for Active; 'I' for Inactive)
REMARK    1  A    between atoms: C2_2  and  C5_6 
REMARK    2  A    between atoms: C9_17  and  N4_18 
ROOT
HETATM    1  C1  UNL     1      20.371   8.059  20.441  1.00  0.00     0.035 C 
HETATM    2  C2  UNL     1      21.726   7.968  21.133  1.00  0.00     0.061 C 
HETATM    3  C3  UNL     1      22.412   9.289  21.066  1.00  0.00     0.035 C 
HETATM    4  C4  UNL     1      21.439   7.679  22.541  1.00  0.00     0.072 C 
HETATM    5  N1  UNL     1      21.222   7.433  23.655  1.00  0.00    -0.196 NA
ENDROOT
BRANCH   2   6
HETATM    6  C5  UNL     1      22.467   6.855  20.538  1.00  0.00     0.020 C 
HETATM    7  C6  UNL     1      22.642   6.639  19.253  1.00  0.00     0.054 C 
HETATM    8  S1  UNL     1      21.893   7.832  18.161  1.00  0.00    -0.051 SA
HETATM    9  C10 UNL     1      23.410   5.478  18.830  1.00  0.00     0.203 C 
HETATM   10  C7  UNL     1      22.945   8.072  16.735  1.00  0.00     0.143 C 
HETATM   11  N2  UNL     1      22.633   9.073  15.967  1.00  0.00    -0.380 N 
HETATM   12  N3  UNL     1      24.081   7.340  16.295  1.00  0.00    -0.329 N 
ATOM     13  H22 UNL     1      21.818   9.598  16.283  1.00  0.00     0.158 HD
ATOM     14  H21 UNL     1      23.234   9.209  15.153  1.00  0.00     0.158 HD
HETATM   15  C8  UNL     1      24.561   6.093  16.768  1.00  0.00     0.118 C 
ATOM     16  H3  UNL     1      24.621   7.766  15.542  1.00  0.00     0.168 HD
HETATM   17  S2  UNL     1      26.155   5.806  16.546  1.00  0.00    -0.062 SA
HETATM   18  C9  UNL     1      23.777   5.022  17.440  1.00  0.00     0.319 C 
HETATM   19  O1  UNL     1      23.812   4.769  19.778  1.00  0.00    -0.289 OA
BRANCH  18  20
HETATM   20  N4  UNL     1      24.523   3.793  17.537  1.00  0.00    -0.062 N 
ATOM     21  H43 UNL     1      24.833   3.474  16.619  1.00  0.00     0.275 HD
ATOM     22  H42 UNL     1      25.435   3.945  17.968  1.00  0.00     0.275 HD
ATOM     23  H41 UNL     1      23.997   3.069  18.025  1.00  0.00     0.275 HD
ENDBRANCH  18  20
ENDBRANCH   2   6
TORSDOF 2
ENDMDL
