MODEL 1
REMARK VINA RESULT: -6.482233511      0.000      0.000
REMARK  1 active torsions:
REMARK  status: ('A' for Active; 'I' for Inactive)
REMARK    1  A    between atoms: N4_12  and  C5_14 
ROOT
HETATM    1  N1  UNL     1      19.891   9.574  24.179  1.00  0.00    -0.063 NA
HETATM    2  C1  UNL     1      20.677   8.758  23.318  1.00  0.00     0.194 A 
HETATM    3  N2  UNL     1      21.225   7.558  23.592  1.00  0.00    -0.323 N 
ATOM      4  H2  UNL     1      21.147   7.060  24.479  1.00  0.00     0.169 HD
HETATM    5  C2  UNL     1      21.894   7.119  22.505  1.00  0.00     0.110 A 
HETATM    6  S1  UNL     1      22.820   5.722  22.095  1.00  0.00    -0.040 SA
HETATM    7  C3  UNL     1      23.413   5.788  20.499  1.00  0.00     0.146 A 
HETATM    8  S2  UNL     1      24.323   4.601  19.839  1.00  0.00    -0.052 SA
HETATM    9  N3  UNL     1      23.073   6.894  19.829  1.00  0.00    -0.326 N 
ATOM     10  H3  UNL     1      23.418   6.954  18.871  1.00  0.00     0.169 HD
HETATM   11  C4  UNL     1      22.345   7.923  20.245  1.00  0.00     0.134 A 
HETATM   12  N4  UNL     1      22.110   8.924  19.456  1.00  0.00    -0.353 N 
ATOM     13  H4  UNL     1      21.545   9.681  19.841  1.00  0.00     0.163 HD
HETATM   14  C10 UNL     1      21.776   8.052  21.511  1.00  0.00     0.113 A 
HETATM   15  N6  UNL     1      21.016   9.046  22.058  1.00  0.00    -0.325 N 
ATOM     16  H6  UNL     1      20.742   9.899  21.568  1.00  0.00     0.169 HD
ENDROOT
BRANCH  12  17
HETATM   17  C5  UNL     1      22.548   9.087  18.117  1.00  0.00     0.178 C 
HETATM   18  C6  UNL     1      22.786   7.760  17.394  1.00  0.00     0.046 C 
HETATM   19  C7  UNL     1      23.527   8.133  16.127  1.00  0.00     0.005 C 
HETATM   20  C8  UNL     1      22.621   8.983  15.282  1.00  0.00     0.019 C 
HETATM   21  C9  UNL     1      21.893  10.045  15.999  1.00  0.00     0.115 C 
HETATM   22  N5  UNL     1      21.578   9.805  17.360  1.00  0.00    -0.401 N 
ATOM     23  H5  UNL     1      20.704  10.129  17.774  1.00  0.00     0.155 HD
ENDBRANCH  12  17
TORSDOF 1
ENDMDL
MODEL 2
REMARK VINA RESULT: -6.392794883      0.746      1.228
REMARK  1 active torsions:
REMARK  status: ('A' for Active; 'I' for Inactive)
REMARK    1  A    between atoms: N4_12  and  C5_14 
ROOT
HETATM    1  N1  UNL     1      19.960   9.495  24.068  1.00  0.00    -0.063 NA
HETATM    2  C1  UNL     1      20.715   8.679  23.181  1.00  0.00     0.194 A 
HETATM    3  N2  UNL     1      21.460   7.598  23.487  1.00  0.00    -0.323 N 
ATOM      4  H2  UNL     1      21.585   7.211  24.422  1.00  0.00     0.169 HD
HETATM    5  C2  UNL     1      22.015   7.110  22.357  1.00  0.00     0.110 A 
HETATM    6  S1  UNL     1      23.055   5.795  21.951  1.00  0.00    -0.040 SA
HETATM    7  C3  UNL     1      23.388   5.730  20.282  1.00  0.00     0.146 A 
HETATM    8  S2  UNL     1      24.347   4.588  19.610  1.00  0.00    -0.052 SA
HETATM    9  N3  UNL     1      22.801   6.692  19.562  1.00  0.00    -0.326 N 
ATOM     10  H3  UNL     1      22.988   6.672  18.560  1.00  0.00     0.169 HD
HETATM   11  C4  UNL     1      22.007   7.670  19.982  1.00  0.00     0.134 A 
HETATM   12  N4  UNL     1      21.519   8.527  19.140  1.00  0.00    -0.353 N 
ATOM     13  H4  UNL     1      20.917   9.252  19.531  1.00  0.00     0.163 HD
HETATM   14  C10 UNL     1      21.620   7.888  21.302  1.00  0.00     0.113 A 
HETATM   15  N6  UNL     1      20.819   8.844  21.859  1.00  0.00    -0.325 N 
ATOM     16  H6  UNL     1      20.359   9.588  21.334  1.00  0.00     0.169 HD
ENDROOT
BRANCH  12  17
HETATM   17  C5  UNL     1      21.726   8.571  17.738  1.00  0.00     0.178 C 
HETATM   18  C6  UNL     1      21.839   9.994  17.189  1.00  0.00     0.046 C 
HETATM   19  C7  UNL     1      21.744   9.842  15.685  1.00  0.00     0.005 C 
HETATM   20  C8  UNL     1      22.931   9.051  15.213  1.00  0.00     0.019 C 
HETATM   21  C9  UNL     1      23.259   7.858  16.013  1.00  0.00     0.115 C 
HETATM   22  N5  UNL     1      22.932   7.895  17.392  1.00  0.00    -0.401 N 
ATOM     23  H5  UNL     1      23.527   7.462  18.097  1.00  0.00     0.155 HD
ENDBRANCH  12  17
TORSDOF 1
ENDMDL
MODEL 3
REMARK VINA RESULT: -6.259130491      2.183      5.805
REMARK  1 active torsions:
REMARK  status: ('A' for Active; 'I' for Inactive)
REMARK    1  A    between atoms: N4_12  and  C5_14 
ROOT
HETATM    1  N1  UNL     1      23.467   8.254  13.305  1.00  0.00    -0.063 NA
HETATM    2  C1  UNL     1      23.556   7.707  14.615  1.00  0.00     0.194 A 
HETATM    3  N2  UNL     1      24.293   6.654  15.022  1.00  0.00    -0.323 N 
ATOM      4  H2  UNL     1      24.902   6.094  14.426  1.00  0.00     0.169 HD
HETATM    5  C2  UNL     1      24.095   6.460  16.343  1.00  0.00     0.110 A 
HETATM    6  S1  UNL     1      24.667   5.352  17.535  1.00  0.00    -0.040 SA
HETATM    7  C3  UNL     1      24.005   5.665  19.074  1.00  0.00     0.146 A 
HETATM    8  S2  UNL     1      24.367   4.774  20.396  1.00  0.00    -0.052 SA
HETATM    9  N3  UNL     1      23.162   6.702  19.113  1.00  0.00    -0.326 N 
ATOM     10  H3  UNL     1      22.753   6.907  20.025  1.00  0.00     0.169 HD
HETATM   11  C4  UNL     1      22.786   7.501  18.120  1.00  0.00     0.134 A 
HETATM   12  N4  UNL     1      21.951   8.468  18.336  1.00  0.00    -0.353 N 
ATOM     13  H4  UNL     1      21.706   9.041  17.528  1.00  0.00     0.163 HD
HETATM   14  C10 UNL     1      23.215   7.405  16.798  1.00  0.00     0.113 A 
HETATM   15  N6  UNL     1      22.910   8.152  15.697  1.00  0.00    -0.325 N 
ATOM     16  H6  UNL     1      22.271   8.948  15.699  1.00  0.00     0.169 HD
ENDROOT
BRANCH  12  17
HETATM   17  C5  UNL     1      21.340   8.821  19.565  1.00  0.00     0.178 C 
HETATM   18  C6  UNL     1      20.326   7.786  20.055  1.00  0.00     0.046 C 
HETATM   19  C7  UNL     1      19.578   8.472  21.179  1.00  0.00     0.005 C 
HETATM   20  C8  UNL     1      20.550   8.753  22.291  1.00  0.00     0.019 C 
HETATM   21  C9  UNL     1      21.847   9.314  21.875  1.00  0.00     0.115 C 
HETATM   22  N5  UNL     1      22.322   8.956  20.589  1.00  0.00    -0.401 N 
ATOM     23  H5  UNL     1      23.314   8.803  20.406  1.00  0.00     0.155 HD
ENDBRANCH  12  17
TORSDOF 1
ENDMDL
MODEL 4
REMARK VINA RESULT: -5.312628463      1.514      5.776
REMARK  1 active torsions:
REMARK  status: ('A' for Active; 'I' for Inactive)
REMARK    1  A    between atoms: N4_12  and  C5_14 
ROOT
HETATM    1  N1  UNL     1      21.717   9.924  16.841  1.00  0.00    -0.063 NA
HETATM    2  C1  UNL     1      21.916   9.020  17.920  1.00  0.00     0.194 A 
HETATM    3  N2  UNL     1      22.606   7.861  17.910  1.00  0.00    -0.323 N 
ATOM      4  H2  UNL     1      23.091   7.469  17.102  1.00  0.00     0.169 HD
HETATM    5  C2  UNL     1      22.553   7.304  19.138  1.00  0.00     0.110 A 
HETATM    6  S1  UNL     1      23.168   5.874  19.881  1.00  0.00    -0.040 SA
HETATM    7  C3  UNL     1      22.724   5.760  21.522  1.00  0.00     0.146 A 
HETATM    8  S2  UNL     1      23.166   4.510  22.479  1.00  0.00    -0.052 SA
HETATM    9  N3  UNL     1      21.981   6.780  21.966  1.00  0.00    -0.326 N 
ATOM     10  H3  UNL     1      21.704   6.732  22.947  1.00  0.00     0.169 HD
HETATM   11  C4  UNL     1      21.558   7.847  21.299  1.00  0.00     0.134 A 
HETATM   12  N4  UNL     1      20.839   8.749  21.890  1.00  0.00    -0.353 N 
ATOM     13  H4  UNL     1      20.547   9.541  21.318  1.00  0.00     0.163 HD
HETATM   14  C10 UNL     1      21.816   8.116  19.957  1.00  0.00     0.113 A 
HETATM   15  N6  UNL     1      21.444   9.163  19.162  1.00  0.00    -0.325 N 
ATOM     16  H6  UNL     1      20.880   9.953  19.476  1.00  0.00     0.169 HD
ENDROOT
BRANCH  12  17
HETATM   17  C5  UNL     1      20.411   8.760  23.242  1.00  0.00     0.178 C 
HETATM   18  C6  UNL     1      21.237   7.841  24.145  1.00  0.00     0.046 C 
HETATM   19  C7  UNL     1      20.453   7.754  25.437  1.00  0.00     0.005 C 
HETATM   20  C8  UNL     1      20.410   9.122  26.057  1.00  0.00     0.019 C 
HETATM   21  C9  UNL     1      20.107  10.230  25.134  1.00  0.00     0.115 C 
HETATM   22  N5  UNL     1      20.510  10.074  23.785  1.00  0.00    -0.401 N 
ATOM     23  H5  UNL     1      20.853  10.859  23.232  1.00  0.00     0.155 HD
ENDBRANCH  12  17
TORSDOF 1
ENDMDL
MODEL 5
REMARK VINA RESULT: -5.016753231      3.158      6.454
REMARK  1 active torsions:
REMARK  status: ('A' for Active; 'I' for Inactive)
REMARK    1  A    between atoms: N4_12  and  C5_14 
ROOT
HETATM    1  N1  UNL     1      26.270   4.486  16.054  1.00  0.00    -0.063 NA
HETATM    2  C1  UNL     1      25.334   5.538  16.255  1.00  0.00     0.194 A 
HETATM    3  N2  UNL     1      24.965   6.493  15.378  1.00  0.00    -0.323 N 
ATOM      4  H2  UNL     1      25.317   6.590  14.426  1.00  0.00     0.169 HD
HETATM    5  C2  UNL     1      24.053   7.300  15.962  1.00  0.00     0.110 A 
HETATM    6  S1  UNL     1      23.146   8.691  15.496  1.00  0.00    -0.040 SA
HETATM    7  C3  UNL     1      22.132   9.247  16.747  1.00  0.00     0.146 A 
HETATM    8  S2  UNL     1      21.158  10.550  16.590  1.00  0.00    -0.052 SA
HETATM    9  N3  UNL     1      22.199   8.529  17.873  1.00  0.00    -0.326 N 
ATOM     10  H3  UNL     1      21.600   8.845  18.636  1.00  0.00     0.169 HD
HETATM   11  C4  UNL     1      22.942   7.459  18.129  1.00  0.00     0.134 A 
HETATM   12  N4  UNL     1      22.883   6.879  19.287  1.00  0.00    -0.353 N 
ATOM     13  H4  UNL     1      23.482   6.063  19.415  1.00  0.00     0.163 HD
HETATM   14  C10 UNL     1      23.829   6.858  17.238  1.00  0.00     0.113 A 
HETATM   15  N6  UNL     1      24.642   5.769  17.374  1.00  0.00    -0.325 N 
ATOM     16  H6  UNL     1      24.711   5.204  18.221  1.00  0.00     0.169 HD
ENDROOT
BRANCH  12  17
HETATM   17  C5  UNL     1      22.082   7.250  20.396  1.00  0.00     0.178 C 
HETATM   18  C6  UNL     1      22.569   6.655  21.719  1.00  0.00     0.046 C 
HETATM   19  C7  UNL     1      21.439   6.901  22.697  1.00  0.00     0.005 C 
HETATM   20  C8  UNL     1      21.278   8.385  22.871  1.00  0.00     0.019 C 
HETATM   21  C9  UNL     1      21.306   9.177  21.629  1.00  0.00     0.115 C 
HETATM   22  N5  UNL     1      22.077   8.667  20.555  1.00  0.00    -0.401 N 
ATOM     23  H5  UNL     1      22.600   9.280  19.930  1.00  0.00     0.155 HD
ENDBRANCH  12  17
TORSDOF 1
ENDMDL
