MODEL 1
REMARK VINA RESULT: -6.292947084      0.000      0.000
REMARK  9 active torsions:
REMARK  status: ('A' for Active; 'I' for Inactive)
REMARK    1  A    between atoms: C2_2  and  C3_3 
REMARK    2  A    between atoms: C3_3  and  C4_4 
REMARK    3  A    between atoms: C4_4  and  C5_5 
REMARK    4  A    between atoms: C5_5  and  O1_6 
REMARK    5  A    between atoms: C10_13  and  O3_14 
REMARK    6  A    between atoms: C11_16  and  O4_17 
REMARK    7  A    between atoms: C12_19  and  C13_20 
REMARK    8  A    between atoms: C13_20  and  O5_21 
REMARK    9  A    between atoms: C13_20  and  C14_23 
ROOT
HETATM    1  C4  UNL     1      -3.145   5.310  11.907  1.00  0.00     0.109 C 
HETATM    2  O2  UNL     1      -2.911   6.327  11.001  1.00  0.00    -0.366 OA
HETATM    3  C6  UNL     1      -2.001   7.213  11.626  1.00  0.00     0.142 C 
HETATM    4  C7  UNL     1      -1.143   6.438  12.508  1.00  0.00     0.078 C 
HETATM    5  C8  UNL     1      -1.832   5.091  12.516  1.00  0.00    -0.043 C 
HETATM    6  C9  UNL     1      -1.271   4.008  12.997  1.00  0.00     0.018 C 
HETATM    7  C10 UNL     1       0.277   6.233  12.168  1.00  0.00     0.158 C 
HETATM    8  C11 UNL     1       0.907   7.269  11.291  1.00  0.00     0.155 C 
HETATM    9  C12 UNL     1       0.034   8.476  11.074  1.00  0.00     0.056 C 
HETATM   10  C17 UNL     1      -1.291   8.050  10.547  1.00  0.00    -0.012 C 
HETATM   11  C18 UNL     1      -1.241   7.171   9.336  1.00  0.00     0.018 C 
HETATM   12  C19 UNL     1      -2.242   9.198  10.266  1.00  0.00     0.018 C 
ENDROOT
BRANCH   1  13
HETATM   13  C3  UNL     1      -4.120   5.723  12.980  1.00  0.00     0.071 C 
BRANCH  13  14
HETATM   14  C2  UNL     1      -5.287   6.418  12.420  1.00  0.00    -0.033 C 
HETATM   15  C1  UNL     1      -5.539   7.672  12.756  1.00  0.00     0.007 C 
ENDBRANCH  13  14
ENDBRANCH   1  13
BRANCH   1  16
HETATM   16  C5  UNL     1      -3.569   4.030  11.221  1.00  0.00     0.207 C 
BRANCH  16  17
HETATM   17  O1  UNL     1      -3.006   3.887   9.968  1.00  0.00    -0.398 OA
ATOM     18  H1  UNL     1      -2.056   3.892   9.993  1.00  0.00     0.209 HD
ENDBRANCH  16  17
ENDBRANCH   1  16
BRANCH   7  19
HETATM   19  O3  UNL     1       0.988   6.087  13.392  1.00  0.00    -0.392 OA
ATOM     20  H3  UNL     1       1.661   6.757  13.409  1.00  0.00     0.210 HD
ENDBRANCH   7  19
BRANCH   9  21
HETATM   21  C13 UNL     1       0.677   9.679  10.575  1.00  0.00     0.129 C 
BRANCH  21  22
HETATM   22  O5  UNL     1       1.245  10.314  11.735  1.00  0.00    -0.395 OA
ATOM     23  H5  UNL     1       1.841  10.970  11.393  1.00  0.00     0.210 HD
ENDBRANCH  21  22
BRANCH  21  24
HETATM   24  C14 UNL     1       1.685   9.800   9.556  1.00  0.00     0.007 C 
HETATM   25  C15 UNL     1       1.308   9.483   8.129  1.00  0.00     0.012 C 
HETATM   26  C16 UNL     1       2.597  10.989   9.507  1.00  0.00     0.012 C 
ENDBRANCH  21  24
ENDBRANCH   9  21
BRANCH   8  27
HETATM   27  O4  UNL     1       2.084   7.701  11.951  1.00  0.00    -0.392 OA
ATOM     28  H4  UNL     1       1.809   8.289  12.644  1.00  0.00     0.210 HD
ENDBRANCH   8  27
TORSDOF 9
ENDMDL
MODEL 2
REMARK VINA RESULT: -5.981352817      3.905      6.674
REMARK  9 active torsions:
REMARK  status: ('A' for Active; 'I' for Inactive)
REMARK    1  A    between atoms: C2_2  and  C3_3 
REMARK    2  A    between atoms: C3_3  and  C4_4 
REMARK    3  A    between atoms: C4_4  and  C5_5 
REMARK    4  A    between atoms: C5_5  and  O1_6 
REMARK    5  A    between atoms: C10_13  and  O3_14 
REMARK    6  A    between atoms: C11_16  and  O4_17 
REMARK    7  A    between atoms: C12_19  and  C13_20 
REMARK    8  A    between atoms: C13_20  and  O5_21 
REMARK    9  A    between atoms: C13_20  and  C14_23 
ROOT
HETATM    1  C4  UNL     1      -1.663   3.903  12.069  1.00  0.00     0.109 C 
HETATM    2  O2  UNL     1      -1.173   2.983  12.975  1.00  0.00    -0.366 OA
HETATM    3  C6  UNL     1       0.002   2.445  12.398  1.00  0.00     0.142 C 
HETATM    4  C7  UNL     1       0.620   3.475  11.578  1.00  0.00     0.078 C 
HETATM    5  C8  UNL     1      -0.455   4.538  11.543  1.00  0.00    -0.043 C 
HETATM    6  C9  UNL     1      -0.236   5.756  11.110  1.00  0.00     0.018 C 
HETATM    7  C10 UNL     1       1.884   4.102  12.006  1.00  0.00     0.158 C 
HETATM    8  C11 UNL     1       2.758   3.289  12.908  1.00  0.00     0.155 C 
HETATM    9  C12 UNL     1       2.297   1.863  13.058  1.00  0.00     0.056 C 
HETATM   10  C17 UNL     1       0.878   1.839  13.508  1.00  0.00    -0.012 C 
HETATM   11  C18 UNL     1       0.585   2.654  14.730  1.00  0.00     0.018 C 
HETATM   12  C19 UNL     1       0.320   0.444  13.718  1.00  0.00     0.018 C 
ENDROOT
BRANCH   1  13
HETATM   13  C3  UNL     1      -2.401   3.239  10.933  1.00  0.00     0.071 C 
BRANCH  13  14
HETATM   14  C2  UNL     1      -3.838   3.112  11.215  1.00  0.00    -0.033 C 
HETATM   15  C1  UNL     1      -4.326   1.978  11.687  1.00  0.00     0.007 C 
ENDBRANCH  13  14
ENDBRANCH   1  13
BRANCH   1  16
HETATM   16  C5  UNL     1      -2.504   4.966  12.742  1.00  0.00     0.207 C 
BRANCH  16  17
HETATM   17  O1  UNL     1      -2.026   5.309  13.991  1.00  0.00    -0.398 OA
ATOM     18  H1  UNL     1      -2.566   4.968  14.694  1.00  0.00     0.209 HD
ENDBRANCH  16  17
ENDBRANCH   1  16
BRANCH   7  19
HETATM   19  O3  UNL     1       2.578   4.499  10.829  1.00  0.00    -0.392 OA
ATOM     20  H3  UNL     1       3.298   5.057  11.101  1.00  0.00     0.210 HD
ENDBRANCH   7  19
BRANCH   9  21
HETATM   21  C13 UNL     1       3.256   0.907  13.582  1.00  0.00     0.129 C 
BRANCH  21  22
HETATM   22  O5  UNL     1       4.353   0.924  12.652  1.00  0.00    -0.395 OA
ATOM     23  H5  UNL     1       5.129   0.775  13.179  1.00  0.00     0.210 HD
ENDBRANCH  21  22
BRANCH  21  24
HETATM   24  C14 UNL     1       3.872   0.875  14.881  1.00  0.00     0.007 C 
HETATM   25  C15 UNL     1       3.942  -0.443  15.613  1.00  0.00     0.012 C 
HETATM   26  C16 UNL     1       5.169   1.581  15.140  1.00  0.00     0.012 C 
ENDBRANCH  21  24
ENDBRANCH   9  21
BRANCH   8  27
HETATM   27  O4  UNL     1       4.045   3.265  12.317  1.00  0.00    -0.392 OA
ATOM     28  H4  UNL     1       4.415   2.410  12.501  1.00  0.00     0.210 HD
ENDBRANCH   8  27
TORSDOF 9
ENDMDL
MODEL 3
REMARK VINA RESULT: -5.884336793      4.365      7.679
REMARK  9 active torsions:
REMARK  status: ('A' for Active; 'I' for Inactive)
REMARK    1  A    between atoms: C2_2  and  C3_3 
REMARK    2  A    between atoms: C3_3  and  C4_4 
REMARK    3  A    between atoms: C4_4  and  C5_5 
REMARK    4  A    between atoms: C5_5  and  O1_6 
REMARK    5  A    between atoms: C10_13  and  O3_14 
REMARK    6  A    between atoms: C11_16  and  O4_17 
REMARK    7  A    between atoms: C12_19  and  C13_20 
REMARK    8  A    between atoms: C13_20  and  O5_21 
REMARK    9  A    between atoms: C13_20  and  C14_23 
ROOT
HETATM    1  C4  UNL     1       2.269   9.060   9.723  1.00  0.00     0.109 C 
HETATM    2  O2  UNL     1       3.642   8.925   9.640  1.00  0.00    -0.366 OA
HETATM    3  C6  UNL     1       3.977   9.110   8.278  1.00  0.00     0.142 C 
HETATM    4  C7  UNL     1       3.024  10.042   7.696  1.00  0.00     0.078 C 
HETATM    5  C8  UNL     1       1.979  10.145   8.785  1.00  0.00    -0.043 C 
HETATM    6  C9  UNL     1       1.046  11.066   8.790  1.00  0.00     0.018 C 
HETATM    7  C10 UNL     1       3.450  11.404   7.327  1.00  0.00     0.158 C 
HETATM    8  C11 UNL     1       4.902  11.585   7.016  1.00  0.00     0.155 C 
HETATM    9  C12 UNL     1       5.658  10.286   6.923  1.00  0.00     0.056 C 
HETATM   10  C17 UNL     1       5.462   9.500   8.173  1.00  0.00    -0.012 C 
HETATM   11  C18 UNL     1       5.767  10.235   9.441  1.00  0.00     0.018 C 
HETATM   12  C19 UNL     1       6.207   8.179   8.194  1.00  0.00     0.018 C 
ENDROOT
BRANCH   1  13
HETATM   13  C3  UNL     1       1.551   7.814   9.268  1.00  0.00     0.071 C 
BRANCH  13  14
HETATM   14  C2  UNL     1       1.590   6.758  10.288  1.00  0.00    -0.033 C 
HETATM   15  C1  UNL     1       0.920   5.633  10.107  1.00  0.00     0.007 C 
ENDBRANCH  13  14
ENDBRANCH   1  13
BRANCH   1  16
HETATM   16  C5  UNL     1       1.826   9.494  11.103  1.00  0.00     0.207 C 
BRANCH  16  17
HETATM   17  O1  UNL     1       2.886   9.857  11.910  1.00  0.00    -0.398 OA
ATOM     18  H1  UNL     1       3.587  10.278  11.425  1.00  0.00     0.209 HD
ENDBRANCH  16  17
ENDBRANCH   1  16
BRANCH   7  19
HETATM   19  O3  UNL     1       2.631  11.823   6.241  1.00  0.00    -0.392 OA
ATOM     20  H3  UNL     1       1.727  11.680   6.498  1.00  0.00     0.210 HD
ENDBRANCH   7  19
BRANCH   9  21
HETATM   21  C13 UNL     1       6.951  10.316   6.263  1.00  0.00     0.129 C 
BRANCH  21  22
HETATM   22  O5  UNL     1       7.678  11.379   6.905  1.00  0.00    -0.395 OA
ATOM     23  H5  UNL     1       8.572  11.290   6.597  1.00  0.00     0.210 HD
ENDBRANCH  21  22
BRANCH  21  24
HETATM   24  C14 UNL     1       7.906   9.252   6.112  1.00  0.00     0.007 C 
HETATM   25  C15 UNL     1       8.193   8.732   4.724  1.00  0.00     0.012 C 
HETATM   26  C16 UNL     1       9.216   9.278   6.841  1.00  0.00     0.012 C 
ENDBRANCH  21  24
ENDBRANCH   9  21
BRANCH   8  27
HETATM   27  O4  UNL     1       4.974  12.216   5.751  1.00  0.00    -0.392 OA
ATOM     28  H4  UNL     1       4.273  12.857   5.725  1.00  0.00     0.210 HD
ENDBRANCH   8  27
TORSDOF 9
ENDMDL
MODEL 4
REMARK VINA RESULT: -5.851755791      4.185      5.622
REMARK  9 active torsions:
REMARK  status: ('A' for Active; 'I' for Inactive)
REMARK    1  A    between atoms: C2_2  and  C3_3 
REMARK    2  A    between atoms: C3_3  and  C4_4 
REMARK    3  A    between atoms: C4_4  and  C5_5 
REMARK    4  A    between atoms: C5_5  and  O1_6 
REMARK    5  A    between atoms: C10_13  and  O3_14 
REMARK    6  A    between atoms: C11_16  and  O4_17 
REMARK    7  A    between atoms: C12_19  and  C13_20 
REMARK    8  A    between atoms: C13_20  and  O5_21 
REMARK    9  A    between atoms: C13_20  and  C14_23 
ROOT
HETATM    1  C4  UNL     1      -3.768   2.789  12.033  1.00  0.00     0.109 C 
HETATM    2  O2  UNL     1      -2.686   1.933  12.098  1.00  0.00    -0.366 OA
HETATM    3  C6  UNL     1      -1.542   2.717  11.816  1.00  0.00     0.142 C 
HETATM    4  C7  UNL     1      -1.784   4.067  12.300  1.00  0.00     0.078 C 
HETATM    5  C8  UNL     1      -3.260   4.024  12.631  1.00  0.00    -0.043 C 
HETATM    6  C9  UNL     1      -3.860   4.960  13.326  1.00  0.00     0.018 C 
HETATM    7  C10 UNL     1      -1.057   4.574  13.477  1.00  0.00     0.158 C 
HETATM    8  C11 UNL     1       0.271   3.943  13.761  1.00  0.00     0.155 C 
HETATM    9  C12 UNL     1       0.745   3.033  12.659  1.00  0.00     0.056 C 
HETATM   10  C17 UNL     1      -0.295   2.007  12.372  1.00  0.00    -0.012 C 
HETATM   11  C18 UNL     1      -0.777   1.239  13.564  1.00  0.00     0.018 C 
HETATM   12  C19 UNL     1       0.095   1.017  11.291  1.00  0.00     0.018 C 
ENDROOT
BRANCH   1  13
HETATM   13  C3  UNL     1      -4.182   3.069  10.610  1.00  0.00     0.071 C 
BRANCH  13  14
HETATM   14  C2  UNL     1      -5.625   3.326  10.500  1.00  0.00    -0.033 C 
HETATM   15  C1  UNL     1      -6.062   4.520  10.139  1.00  0.00     0.007 C 
ENDBRANCH  13  14
ENDBRANCH   1  13
BRANCH   1  16
HETATM   16  C5  UNL     1      -4.929   2.298  12.871  1.00  0.00     0.207 C 
BRANCH  16  17
HETATM   17  O1  UNL     1      -4.757   0.999  13.305  1.00  0.00    -0.398 OA
ATOM     18  H1  UNL     1      -4.965   0.891  14.226  1.00  0.00     0.209 HD
ENDBRANCH  16  17
ENDBRANCH   1  16
BRANCH   7  19
HETATM   19  O3  UNL     1      -0.939   5.984  13.326  1.00  0.00    -0.392 OA
ATOM     20  H3  UNL     1      -0.884   6.357  14.199  1.00  0.00     0.210 HD
ENDBRANCH   7  19
BRANCH   9  21
HETATM   21  C13 UNL     1       2.154   2.681  12.649  1.00  0.00     0.129 C 
BRANCH  21  22
HETATM   22  O5  UNL     1       2.826   3.829  12.102  1.00  0.00    -0.395 OA
ATOM     23  H5  UNL     1       2.137   4.372  11.740  1.00  0.00     0.210 HD
ENDBRANCH  21  22
BRANCH  21  24
HETATM   24  C14 UNL     1       2.979   2.256  13.748  1.00  0.00     0.007 C 
HETATM   25  C15 UNL     1       2.978   0.796  14.128  1.00  0.00     0.012 C 
HETATM   26  C16 UNL     1       4.394   2.735  13.883  1.00  0.00     0.012 C 
ENDBRANCH  21  24
ENDBRANCH   9  21
BRANCH   8  27
HETATM   27  O4  UNL     1       1.207   4.999  13.880  1.00  0.00    -0.392 OA
ATOM     28  H4  UNL     1       2.010   4.616  14.213  1.00  0.00     0.210 HD
ENDBRANCH   8  27
TORSDOF 9
ENDMDL
MODEL 5
REMARK VINA RESULT: -5.841109279      3.590      8.470
REMARK  9 active torsions:
REMARK  status: ('A' for Active; 'I' for Inactive)
REMARK    1  A    between atoms: C2_2  and  C3_3 
REMARK    2  A    between atoms: C3_3  and  C4_4 
REMARK    3  A    between atoms: C4_4  and  C5_5 
REMARK    4  A    between atoms: C5_5  and  O1_6 
REMARK    5  A    between atoms: C10_13  and  O3_14 
REMARK    6  A    between atoms: C11_16  and  O4_17 
REMARK    7  A    between atoms: C12_19  and  C13_20 
REMARK    8  A    between atoms: C13_20  and  O5_21 
REMARK    9  A    between atoms: C13_20  and  C14_23 
ROOT
HETATM    1  C4  UNL     1       5.884   9.792   7.650  1.00  0.00     0.109 C 
HETATM    2  O2  UNL     1       5.375   9.339   8.852  1.00  0.00    -0.366 OA
HETATM    3  C6  UNL     1       4.125   9.981   9.021  1.00  0.00     0.142 C 
HETATM    4  C7  UNL     1       3.546  10.203   7.706  1.00  0.00     0.078 C 
HETATM    5  C8  UNL     1       4.703   9.869   6.790  1.00  0.00    -0.043 C 
HETATM    6  C9  UNL     1       4.561   9.702   5.497  1.00  0.00     0.018 C 
HETATM    7  C10 UNL     1       2.370   9.426   7.273  1.00  0.00     0.158 C 
HETATM    8  C11 UNL     1       1.488   8.894   8.359  1.00  0.00     0.155 C 
HETATM    9  C12 UNL     1       1.835   9.429   9.723  1.00  0.00     0.056 C 
HETATM   10  C17 UNL     1       3.273   9.171  10.013  1.00  0.00    -0.012 C 
HETATM   11  C18 UNL     1       3.711   7.749   9.842  1.00  0.00     0.018 C 
HETATM   12  C19 UNL     1       3.721   9.648  11.382  1.00  0.00     0.018 C 
ENDROOT
BRANCH   1  13
HETATM   13  C3  UNL     1       6.489  11.168   7.776  1.00  0.00     0.071 C 
BRANCH  13  14
HETATM   14  C2  UNL     1       7.608  11.360   6.843  1.00  0.00    -0.033 C 
HETATM   15  C1  UNL     1       7.677  12.455   6.105  1.00  0.00     0.007 C 
ENDBRANCH  13  14
ENDBRANCH   1  13
BRANCH   1  16
HETATM   16  C5  UNL     1       6.853   8.804   7.039  1.00  0.00     0.207 C 
BRANCH  16  17
HETATM   17  O1  UNL     1       7.285   7.855   7.944  1.00  0.00    -0.398 OA
ATOM     18  H1  UNL     1       7.345   6.987   7.563  1.00  0.00     0.209 HD
ENDBRANCH  16  17
ENDBRANCH   1  16
BRANCH   7  19
HETATM   19  O3  UNL     1       1.639  10.238   6.362  1.00  0.00    -0.392 OA
ATOM     20  H3  UNL     1       1.532  11.091   6.768  1.00  0.00     0.210 HD
ENDBRANCH   7  19
BRANCH   9  21
HETATM   21  C13 UNL     1       0.833   9.289  10.765  1.00  0.00     0.129 C 
BRANCH  21  22
HETATM   22  O5  UNL     1      -0.103  10.357  10.535  1.00  0.00    -0.395 OA
ATOM     23  H5  UNL     1      -0.891  10.103  11.001  1.00  0.00     0.210 HD
ENDBRANCH  21  22
BRANCH  21  24
HETATM   24  C14 UNL     1       0.021   8.145  11.080  1.00  0.00     0.007 C 
HETATM   25  C15 UNL     1      -1.407   8.117  10.590  1.00  0.00     0.012 C 
HETATM   26  C16 UNL     1       0.555   6.752  10.930  1.00  0.00     0.012 C 
ENDBRANCH  21  24
ENDBRANCH   9  21
BRANCH   8  27
HETATM   27  O4  UNL     1       0.169   9.311   8.055  1.00  0.00    -0.392 OA
ATOM     28  H4  UNL     1       0.219  10.233   7.830  1.00  0.00     0.210 HD
ENDBRANCH   8  27
TORSDOF 9
ENDMDL
