MODEL 1
REMARK VINA RESULT: -8.611575309      0.000      0.000
REMARK  8 active torsions:
REMARK  status: ('A' for Active; 'I' for Inactive)
REMARK    1  A    between atoms: C3_6  and  O2_7 
REMARK    2  A    between atoms: N2_9  and  C4_10 
REMARK    3  A    between atoms: C4_10  and  C5_11 
REMARK    4  A    between atoms: C5_11  and  C6_12 
REMARK    5  A    between atoms: C6_12  and  C7_13 
REMARK    6  A    between atoms: C7_13  and  C8_14 
REMARK    7  A    between atoms: C8_14  and  N3_15 
REMARK    8  A    between atoms: N4_18  and  C11_19 
ROOT
HETATM    1  N3  UNL     1     -16.722  -8.970  10.729  1.00  0.00    -0.390 N 
HETATM    2  C9  UNL     1     -17.738  -9.314   9.827  1.00  0.00     0.141 C 
HETATM    3  C10 UNL     1     -17.226 -10.438   8.919  1.00  0.00     0.143 C 
HETATM    4  N4  UNL     1     -16.340 -11.348   9.596  1.00  0.00    -0.378 N 
HETATM    5  C20 UNL     1     -15.123 -10.760  10.181  1.00  0.00     0.143 C 
HETATM    6  C21 UNL     1     -15.386  -9.321  10.442  1.00  0.00     0.141 C 
ENDROOT
BRANCH   1   7
HETATM    7  C8  UNL     1     -16.988  -8.936  12.108  1.00  0.00     0.058 C 
BRANCH   7   8
HETATM    8  C7  UNL     1     -18.089  -7.988  12.533  1.00  0.00     0.044 C 
BRANCH   8   9
HETATM    9  C6  UNL     1     -17.796  -6.581  12.053  1.00  0.00     0.007 C 
BRANCH   9  10
HETATM   10  C5  UNL     1     -18.705  -5.537  12.600  1.00  0.00     0.021 C 
BRANCH  10  11
HETATM   11  C4  UNL     1     -18.140  -4.778  13.757  1.00  0.00     0.136 C 
BRANCH  11  12
HETATM   12  N2  UNL     1     -17.703  -3.466  13.357  1.00  0.00    -0.279 N 
HETATM   13  C1  UNL     1     -16.475  -3.165  12.928  1.00  0.00     0.328 A 
HETATM   14  O1  UNL     1     -15.475  -3.951  12.797  1.00  0.00    -0.246 OA
HETATM   15  N1  UNL     1     -16.383  -1.856  12.624  1.00  0.00    -0.314 N 
HETATM   16  C2  UNL     1     -17.570  -1.291  12.859  1.00  0.00     0.148 A 
ATOM     17  H1  UNL     1     -15.552  -1.379  12.276  1.00  0.00     0.170 HD
HETATM   18  C3  UNL     1     -18.394  -2.313  13.320  1.00  0.00     0.162 A 
BRANCH  18  19
HETATM   19  O2  UNL     1     -19.714  -2.173  13.683  1.00  0.00    -0.345 OA
ATOM     20  H2  UNL     1     -20.311  -2.886  13.874  1.00  0.00     0.219 HD
ENDBRANCH  18  19
ENDBRANCH  11  12
ENDBRANCH  10  11
ENDBRANCH   9  10
ENDBRANCH   8   9
ENDBRANCH   7   8
ENDBRANCH   1   7
BRANCH   4  21
HETATM   21  C11 UNL     1     -16.560 -12.752   9.737  1.00  0.00     0.032 A 
HETATM   22  C12 UNL     1     -17.583 -13.391   9.091  1.00  0.00     0.049 A 
HETATM   23  C13 UNL     1     -17.684 -14.766   9.289  1.00  0.00     0.019 A 
HETATM   24 BR1  UNL     1     -19.103 -15.673   8.394  1.00  0.00    -0.050 Br
HETATM   25  C14 UNL     1     -16.825 -15.489  10.082  1.00  0.00    -0.034 A 
HETATM   26  C15 UNL     1     -15.801 -14.837  10.727  1.00  0.00    -0.048 A 
HETATM   27  C19 UNL     1     -16.766 -16.935  10.414  1.00  0.00     0.041 C 
HETATM   28  C16 UNL     1     -15.678 -13.480  10.549  1.00  0.00     0.037 A 
HETATM   29  C17 UNL     1     -15.007 -15.843  11.520  1.00  0.00     0.039 C 
HETATM   30  C18 UNL     1     -16.065 -16.893  11.780  1.00  0.00     0.009 C 
ENDBRANCH   4  21
TORSDOF 8
ENDMDL
MODEL 2
REMARK VINA RESULT: -8.483319883      1.330      2.003
REMARK  8 active torsions:
REMARK  status: ('A' for Active; 'I' for Inactive)
REMARK    1  A    between atoms: C3_6  and  O2_7 
REMARK    2  A    between atoms: N2_9  and  C4_10 
REMARK    3  A    between atoms: C4_10  and  C5_11 
REMARK    4  A    between atoms: C5_11  and  C6_12 
REMARK    5  A    between atoms: C6_12  and  C7_13 
REMARK    6  A    between atoms: C7_13  and  C8_14 
REMARK    7  A    between atoms: C8_14  and  N3_15 
REMARK    8  A    between atoms: N4_18  and  C11_19 
ROOT
HETATM    1  N3  UNL     1     -16.950  -8.800   9.892  1.00  0.00    -0.390 N 
HETATM    2  C9  UNL     1     -17.444  -9.249   8.659  1.00  0.00     0.141 C 
HETATM    3  C10 UNL     1     -16.643 -10.485   8.231  1.00  0.00     0.143 C 
HETATM    4  N4  UNL     1     -16.243 -11.308   9.343  1.00  0.00    -0.378 N 
HETATM    5  C20 UNL     1     -15.406 -10.659  10.367  1.00  0.00     0.143 C 
HETATM    6  C21 UNL     1     -15.663  -9.196  10.313  1.00  0.00     0.141 C 
ENDROOT
BRANCH   1   7
HETATM    7  C8  UNL     1     -17.829  -8.588  10.966  1.00  0.00     0.058 C 
BRANCH   7   8
HETATM    8  C7  UNL     1     -17.797  -7.198  11.565  1.00  0.00     0.044 C 
BRANCH   8   9
HETATM    9  C6  UNL     1     -18.594  -6.231  10.714  1.00  0.00     0.007 C 
BRANCH   9  10
HETATM   10  C5  UNL     1     -19.131  -5.054  11.449  1.00  0.00     0.021 C 
BRANCH  10  11
HETATM   11  C4  UNL     1     -18.501  -4.826  12.785  1.00  0.00     0.136 C 
BRANCH  11  12
HETATM   12  N2  UNL     1     -17.798  -3.569  12.822  1.00  0.00    -0.279 N 
HETATM   13  C1  UNL     1     -16.472  -3.431  12.744  1.00  0.00     0.328 A 
HETATM   14  O1  UNL     1     -15.593  -4.351  12.631  1.00  0.00    -0.246 OA
HETATM   15  N1  UNL     1     -16.125  -2.131  12.801  1.00  0.00    -0.314 N 
HETATM   16  C2  UNL     1     -17.241  -1.407  12.918  1.00  0.00     0.148 A 
ATOM     17  H1  UNL     1     -15.175  -1.763  12.761  1.00  0.00     0.170 HD
HETATM   18  C3  UNL     1     -18.289  -2.322  12.932  1.00  0.00     0.162 A 
BRANCH  18  19
HETATM   19  O2  UNL     1     -19.624  -2.007  13.038  1.00  0.00    -0.345 OA
ATOM     20  H2  UNL     1     -19.989  -1.341  13.607  1.00  0.00     0.219 HD
ENDBRANCH  18  19
ENDBRANCH  11  12
ENDBRANCH  10  11
ENDBRANCH   9  10
ENDBRANCH   8   9
ENDBRANCH   7   8
ENDBRANCH   1   7
BRANCH   4  21
HETATM   21  C11 UNL     1     -16.598 -12.680   9.515  1.00  0.00     0.032 A 
HETATM   22  C12 UNL     1     -15.925 -13.497  10.383  1.00  0.00     0.049 A 
HETATM   23  C13 UNL     1     -16.377 -14.810  10.482  1.00  0.00     0.019 A 
HETATM   24 BR1  UNL     1     -15.452 -15.961  11.689  1.00  0.00    -0.050 Br
HETATM   25  C14 UNL     1     -17.440 -15.309   9.766  1.00  0.00    -0.034 A 
HETATM   26  C15 UNL     1     -18.109 -14.480   8.897  1.00  0.00    -0.048 A 
HETATM   27  C19 UNL     1     -18.065 -16.655   9.732  1.00  0.00     0.041 C 
HETATM   28  C16 UNL     1     -17.683 -13.178   8.779  1.00  0.00     0.037 A 
HETATM   29  C17 UNL     1     -19.224 -15.256   8.245  1.00  0.00     0.039 C 
HETATM   30  C18 UNL     1     -18.668 -16.662   8.319  1.00  0.00     0.009 C 
ENDBRANCH   4  21
TORSDOF 8
ENDMDL
MODEL 3
REMARK VINA RESULT: -8.422544523      1.606      1.860
REMARK  8 active torsions:
REMARK  status: ('A' for Active; 'I' for Inactive)
REMARK    1  A    between atoms: C3_6  and  O2_7 
REMARK    2  A    between atoms: N2_9  and  C4_10 
REMARK    3  A    between atoms: C4_10  and  C5_11 
REMARK    4  A    between atoms: C5_11  and  C6_12 
REMARK    5  A    between atoms: C6_12  and  C7_13 
REMARK    6  A    between atoms: C7_13  and  C8_14 
REMARK    7  A    between atoms: C8_14  and  N3_15 
REMARK    8  A    between atoms: N4_18  and  C11_19 
ROOT
HETATM    1  N3  UNL     1     -16.890  -8.853  10.554  1.00  0.00    -0.390 N 
HETATM    2  C9  UNL     1     -17.691  -9.225   9.465  1.00  0.00     0.141 C 
HETATM    3  C10 UNL     1     -17.001 -10.374   8.720  1.00  0.00     0.143 C 
HETATM    4  N4  UNL     1     -16.284 -11.262   9.597  1.00  0.00    -0.378 N 
HETATM    5  C20 UNL     1     -15.218 -10.655  10.411  1.00  0.00     0.143 C 
HETATM    6  C21 UNL     1     -15.525  -9.209  10.570  1.00  0.00     0.141 C 
ENDROOT
BRANCH   1   7
HETATM    7  C8  UNL     1     -17.445  -8.780  11.843  1.00  0.00     0.058 C 
BRANCH   7   8
HETATM    8  C7  UNL     1     -17.770  -7.385  12.331  1.00  0.00     0.044 C 
BRANCH   8   9
HETATM    9  C6  UNL     1     -19.255  -7.243  12.594  1.00  0.00     0.007 C 
BRANCH   9  10
HETATM   10  C5  UNL     1     -20.036  -6.684  11.457  1.00  0.00     0.021 C 
BRANCH  10  11
HETATM   11  C4  UNL     1     -19.385  -5.522  10.780  1.00  0.00     0.136 C 
BRANCH  11  12
HETATM   12  N2  UNL     1     -19.781  -4.277  11.384  1.00  0.00    -0.279 N 
HETATM   13  C1  UNL     1     -19.042  -3.575  12.247  1.00  0.00     0.328 A 
HETATM   14  O1  UNL     1     -17.881  -3.860  12.697  1.00  0.00    -0.246 OA
HETATM   15  N1  UNL     1     -19.686  -2.454  12.625  1.00  0.00    -0.314 N 
HETATM   16  C2  UNL     1     -20.866  -2.422  12.000  1.00  0.00     0.148 A 
ATOM     17  H1  UNL     1     -19.334  -1.752  13.276  1.00  0.00     0.170 HD
HETATM   18  C3  UNL     1     -20.916  -3.574  11.222  1.00  0.00     0.162 A 
BRANCH  18  19
HETATM   19  O2  UNL     1     -21.962  -3.944  10.408  1.00  0.00    -0.345 OA
ATOM     20  H2  UNL     1     -22.010  -3.796   9.471  1.00  0.00     0.219 HD
ENDBRANCH  18  19
ENDBRANCH  11  12
ENDBRANCH  10  11
ENDBRANCH   9  10
ENDBRANCH   8   9
ENDBRANCH   7   8
ENDBRANCH   1   7
BRANCH   4  21
HETATM   21  C11 UNL     1     -16.535 -12.662   9.728  1.00  0.00     0.032 A 
HETATM   22  C12 UNL     1     -17.577 -13.272   9.084  1.00  0.00     0.049 A 
HETATM   23  C13 UNL     1     -17.708 -14.646   9.271  1.00  0.00     0.019 A 
HETATM   24 BR1  UNL     1     -19.154 -15.512   8.379  1.00  0.00    -0.050 Br
HETATM   25  C14 UNL     1     -16.860 -15.395  10.051  1.00  0.00    -0.034 A 
HETATM   26  C15 UNL     1     -15.816 -14.773  10.693  1.00  0.00    -0.048 A 
HETATM   27  C19 UNL     1     -16.831 -16.845  10.370  1.00  0.00     0.041 C 
HETATM   28  C16 UNL     1     -15.664 -13.417  10.527  1.00  0.00     0.037 A 
HETATM   29  C17 UNL     1     -15.039 -15.803  11.472  1.00  0.00     0.039 C 
HETATM   30  C18 UNL     1     -16.119 -16.831  11.731  1.00  0.00     0.009 C 
ENDBRANCH   4  21
TORSDOF 8
ENDMDL
MODEL 4
REMARK VINA RESULT: -8.416732822      1.583      2.039
REMARK  8 active torsions:
REMARK  status: ('A' for Active; 'I' for Inactive)
REMARK    1  A    between atoms: C3_6  and  O2_7 
REMARK    2  A    between atoms: N2_9  and  C4_10 
REMARK    3  A    between atoms: C4_10  and  C5_11 
REMARK    4  A    between atoms: C5_11  and  C6_12 
REMARK    5  A    between atoms: C6_12  and  C7_13 
REMARK    6  A    between atoms: C7_13  and  C8_14 
REMARK    7  A    between atoms: C8_14  and  N3_15 
REMARK    8  A    between atoms: N4_18  and  C11_19 
ROOT
HETATM    1  N3  UNL     1     -16.651  -8.904  10.830  1.00  0.00    -0.390 N 
HETATM    2  C9  UNL     1     -17.505  -9.214   9.762  1.00  0.00     0.141 C 
HETATM    3  C10 UNL     1     -16.879 -10.352   8.948  1.00  0.00     0.143 C 
HETATM    4  N4  UNL     1     -16.153 -11.292   9.762  1.00  0.00    -0.378 N 
HETATM    5  C20 UNL     1     -15.038 -10.744  10.553  1.00  0.00     0.143 C 
HETATM    6  C21 UNL     1     -15.298  -9.298  10.776  1.00  0.00     0.141 C 
ENDROOT
BRANCH   1   7
HETATM    7  C8  UNL     1     -17.152  -8.865  12.142  1.00  0.00     0.058 C 
BRANCH   7   8
HETATM    8  C7  UNL     1     -18.379  -8.002  12.342  1.00  0.00     0.044 C 
BRANCH   8   9
HETATM    9  C6  UNL     1     -18.289  -7.241  13.649  1.00  0.00     0.007 C 
BRANCH   9  10
HETATM   10  C5  UNL     1     -18.267  -5.761  13.505  1.00  0.00     0.021 C 
BRANCH  10  11
HETATM   11  C4  UNL     1     -18.185  -5.283  12.091  1.00  0.00     0.136 C 
BRANCH  11  12
HETATM   12  N2  UNL     1     -19.253  -4.367  11.787  1.00  0.00    -0.279 N 
HETATM   13  C1  UNL     1     -20.366  -4.682  11.119  1.00  0.00     0.328 A 
HETATM   14  O1  UNL     1     -20.692  -5.816  10.628  1.00  0.00    -0.246 OA
HETATM   15  N1  UNL     1     -21.172  -3.609  11.003  1.00  0.00    -0.314 N 
HETATM   16  C2  UNL     1     -20.577  -2.575  11.604  1.00  0.00     0.148 A 
ATOM     17  H1  UNL     1     -22.078  -3.589  10.537  1.00  0.00     0.170 HD
HETATM   18  C3  UNL     1     -19.369  -3.063  12.094  1.00  0.00     0.162 A 
BRANCH  18  19
HETATM   19  O2  UNL     1     -18.434  -2.330  12.788  1.00  0.00    -0.345 OA
ATOM     20  H2  UNL     1     -17.504  -2.518  12.827  1.00  0.00     0.219 HD
ENDBRANCH  18  19
ENDBRANCH  11  12
ENDBRANCH  10  11
ENDBRANCH   9  10
ENDBRANCH   8   9
ENDBRANCH   7   8
ENDBRANCH   1   7
BRANCH   4  21
HETATM   21  C11 UNL     1     -16.438 -12.688   9.852  1.00  0.00     0.032 A 
HETATM   22  C12 UNL     1     -17.495 -13.254   9.192  1.00  0.00     0.049 A 
HETATM   23  C13 UNL     1     -17.659 -14.629   9.340  1.00  0.00     0.019 A 
HETATM   24 BR1  UNL     1     -19.126 -15.433   8.424  1.00  0.00    -0.050 Br
HETATM   25  C14 UNL     1     -16.829 -15.421  10.097  1.00  0.00    -0.034 A 
HETATM   26  C15 UNL     1     -15.770 -14.843  10.756  1.00  0.00    -0.048 A 
HETATM   27  C19 UNL     1     -16.836 -16.880  10.374  1.00  0.00     0.041 C 
HETATM   28  C16 UNL     1     -15.586 -13.487  10.629  1.00  0.00     0.037 A 
HETATM   29  C17 UNL     1     -15.019 -15.914  11.504  1.00  0.00     0.039 C 
HETATM   30  C18 UNL     1     -16.124 -16.923  11.734  1.00  0.00     0.009 C 
ENDBRANCH   4  21
TORSDOF 8
ENDMDL
MODEL 5
REMARK VINA RESULT: -8.295594396      1.999      2.810
REMARK  8 active torsions:
REMARK  status: ('A' for Active; 'I' for Inactive)
REMARK    1  A    between atoms: C3_6  and  O2_7 
REMARK    2  A    between atoms: N2_9  and  C4_10 
REMARK    3  A    between atoms: C4_10  and  C5_11 
REMARK    4  A    between atoms: C5_11  and  C6_12 
REMARK    5  A    between atoms: C6_12  and  C7_13 
REMARK    6  A    between atoms: C7_13  and  C8_14 
REMARK    7  A    between atoms: C8_14  and  N3_15 
REMARK    8  A    between atoms: N4_18  and  C11_19 
ROOT
HETATM    1  N3  UNL     1     -16.992  -8.926   9.738  1.00  0.00    -0.390 N 
HETATM    2  C9  UNL     1     -17.440  -9.403   8.499  1.00  0.00     0.141 C 
HETATM    3  C10 UNL     1     -16.626 -10.649   8.131  1.00  0.00     0.143 C 
HETATM    4  N4  UNL     1     -16.269 -11.446   9.275  1.00  0.00    -0.378 N 
HETATM    5  C20 UNL     1     -15.471 -10.775  10.315  1.00  0.00     0.143 C 
HETATM    6  C21 UNL     1     -15.722  -9.313  10.217  1.00  0.00     0.141 C 
ENDROOT
BRANCH   1   7
HETATM    7  C8  UNL     1     -17.911  -8.687  10.773  1.00  0.00     0.058 C 
BRANCH   7   8
HETATM    8  C7  UNL     1     -17.329  -8.070  12.027  1.00  0.00     0.044 C 
BRANCH   8   9
HETATM    9  C6  UNL     1     -18.432  -7.593  12.949  1.00  0.00     0.007 C 
BRANCH   9  10
HETATM   10  C5  UNL     1     -18.436  -6.127  13.204  1.00  0.00     0.021 C 
BRANCH  10  11
HETATM   11  C4  UNL     1     -18.166  -5.293  11.993  1.00  0.00     0.136 C 
BRANCH  11  12
HETATM   12  N2  UNL     1     -19.240  -4.366  11.748  1.00  0.00    -0.279 N 
HETATM   13  C1  UNL     1     -20.362  -4.652  11.084  1.00  0.00     0.328 A 
HETATM   14  O1  UNL     1     -20.694  -5.763  10.546  1.00  0.00    -0.246 OA
HETATM   15  N1  UNL     1     -21.171  -3.577  11.029  1.00  0.00    -0.314 N 
HETATM   16  C2  UNL     1     -20.569  -2.571  11.669  1.00  0.00     0.148 A 
ATOM     17  H1  UNL     1     -22.085  -3.537  10.579  1.00  0.00     0.170 HD
HETATM   18  C3  UNL     1     -19.353  -3.078  12.117  1.00  0.00     0.162 A 
BRANCH  18  19
HETATM   19  O2  UNL     1     -18.409  -2.376  12.830  1.00  0.00    -0.345 OA
ATOM     20  H2  UNL     1     -18.588  -1.653  13.419  1.00  0.00     0.219 HD
ENDBRANCH  18  19
ENDBRANCH  11  12
ENDBRANCH  10  11
ENDBRANCH   9  10
ENDBRANCH   8   9
ENDBRANCH   7   8
ENDBRANCH   1   7
BRANCH   4  21
HETATM   21  C11 UNL     1     -16.634 -12.814   9.467  1.00  0.00     0.032 A 
HETATM   22  C12 UNL     1     -15.970 -13.621  10.350  1.00  0.00     0.049 A 
HETATM   23  C13 UNL     1     -16.430 -14.930  10.466  1.00  0.00     0.019 A 
HETATM   24 BR1  UNL     1     -15.518 -16.068  11.695  1.00  0.00    -0.050 Br
HETATM   25  C14 UNL     1     -17.492 -15.433   9.753  1.00  0.00    -0.034 A 
HETATM   26  C15 UNL     1     -18.152 -14.614   8.867  1.00  0.00    -0.048 A 
HETATM   27  C19 UNL     1     -18.125 -16.776   9.736  1.00  0.00     0.041 C 
HETATM   28  C16 UNL     1     -17.718 -13.317   8.733  1.00  0.00     0.037 A 
HETATM   29  C17 UNL     1     -19.268 -15.393   8.222  1.00  0.00     0.039 C 
HETATM   30  C18 UNL     1     -18.721 -16.801   8.320  1.00  0.00     0.009 C 
ENDBRANCH   4  21
TORSDOF 8
ENDMDL
