MODEL 1
REMARK VINA RESULT: -8.419035255      0.000      0.000
REMARK  18 active torsions:
REMARK  status: ('A' for Active; 'I' for Inactive)
REMARK    1  A    between atoms: C2_2  and  C4_4 
REMARK    2  A    between atoms: C4_4  and  C5_5 
REMARK    3  A    between atoms: C5_5  and  C6_6 
REMARK    4  A    between atoms: C6_6  and  C7_7 
REMARK    5  A    between atoms: C7_7  and  C9_9 
REMARK    6  A    between atoms: C9_9  and  C11_11 
REMARK    7  A    between atoms: C11_11  and  O1_12 
REMARK    8  A    between atoms: O1_12  and  C12_13 
REMARK    9  A    between atoms: C13_15  and  C14_16 
REMARK   10  A    between atoms: C14_16  and  C15_17 
REMARK   11  A    between atoms: C15_17  and  O3_18 
REMARK   12  A    between atoms: C21_25  and  O4_26 
REMARK   13  A    between atoms: O4_26  and  C22_27 
REMARK   14  A    between atoms: C27_33  and  O6_35 
REMARK   15  A    between atoms: C29_37  and  O7_38 
REMARK   16  A    between atoms: C31_41  and  O8_42 
REMARK   17  A    between atoms: C32_44  and  O9_45 
REMARK   18  A    between atoms: C33_47  and  O10_48 
ROOT
HETATM    1  C12 UNL     1      25.100   5.687  23.043  1.00  0.00     0.413 C 
HETATM    2  O2  UNL     1      23.785   6.046  22.971  1.00  0.00    -0.334 OA
HETATM    3  C13 UNL     1      23.503   6.808  21.874  1.00  0.00     0.129 C 
HETATM    4  C16 UNL     1      23.687   8.282  22.035  1.00  0.00     0.042 C 
HETATM    5  C17 UNL     1      24.599   8.689  23.129  1.00  0.00     0.046 C 
HETATM    6  C18 UNL     1      25.870   7.904  23.231  1.00  0.00     0.133 C 
HETATM    7  C19 UNL     1      26.542   8.185  21.934  1.00  0.00     0.035 C 
HETATM    8  C20 UNL     1      26.410   9.716  21.888  1.00  0.00     0.035 C 
HETATM    9  C21 UNL     1      25.180  10.052  22.705  1.00  0.00     0.131 C 
HETATM   10  O11 UNL     1      25.812   6.669  23.702  1.00  0.00    -0.333 OA
ENDROOT
BRANCH   9  11
HETATM   11  O4  UNL     1      24.283  10.713  21.871  1.00  0.00    -0.353 OA
BRANCH  11  12
HETATM   12  C22 UNL     1      23.367  11.489  22.580  1.00  0.00     0.291 C 
HETATM   13  O5  UNL     1      22.140  11.318  21.942  1.00  0.00    -0.353 OA
HETATM   14  C23 UNL     1      21.099  11.971  22.627  1.00  0.00     0.134 C 
HETATM   15  C24 UNL     1      21.105  11.474  24.023  1.00  0.00     0.040 C 
HETATM   16  C25 UNL     1      21.215  13.490  22.502  1.00  0.00     0.043 C 
HETATM   17  C26 UNL     1      20.922  14.153  23.783  1.00  0.00     0.057 C 
HETATM   18  C31 UNL     1      20.220  13.867  21.395  1.00  0.00     0.134 C 
HETATM   19  C32 UNL     1      22.581  13.758  21.923  1.00  0.00     0.165 C 
HETATM   20  C27 UNL     1      20.327  15.496  23.781  1.00  0.00     0.081 C 
HETATM   21  C28 UNL     1      21.339  16.623  24.017  1.00  0.00     0.049 C 
HETATM   22  C29 UNL     1      19.533  15.875  22.573  1.00  0.00     0.154 C 
HETATM   23  C30 UNL     1      20.023  15.338  21.279  1.00  0.00     0.067 C 
HETATM   24  C33 UNL     1      23.687  12.957  22.553  1.00  0.00     0.203 C 
BRANCH  20  25
HETATM   25  O6  UNL     1      19.419  15.606  24.868  1.00  0.00    -0.388 OA
ATOM     26  H6  UNL     1      18.909  16.402  24.770  1.00  0.00     0.210 HD
ENDBRANCH  20  25
BRANCH  22  27
HETATM   27  O7  UNL     1      19.470  17.274  22.516  1.00  0.00    -0.392 OA
ATOM     28  H7  UNL     1      19.422  17.530  21.603  1.00  0.00     0.210 HD
ENDBRANCH  22  27
BRANCH  18  29
HETATM   29  O8  UNL     1      18.990  13.267  21.611  1.00  0.00    -0.395 OA
ATOM     30  H8  UNL     1      18.539  13.115  20.789  1.00  0.00     0.210 HD
ENDBRANCH  18  29
BRANCH  19  31
HETATM   31  O9  UNL     1      22.951  15.067  21.866  1.00  0.00    -0.392 OA
ATOM     32  H9  UNL     1      23.834  15.258  22.158  1.00  0.00     0.210 HD
ENDBRANCH  19  31
BRANCH  24  33
HETATM   33  O10 UNL     1      24.119  13.458  23.766  1.00  0.00    -0.388 OA
ATOM     34  H10 UNL     1      23.420  13.608  24.392  1.00  0.00     0.210 HD
ENDBRANCH  24  33
ENDBRANCH  11  12
ENDBRANCH   9  11
BRANCH   3  35
HETATM   35  C14 UNL     1      22.046   6.494  21.495  1.00  0.00     0.058 C 
BRANCH  35  36
HETATM   36  C15 UNL     1      22.060   5.642  20.249  1.00  0.00     0.166 C 
BRANCH  36  37
HETATM   37  O3  UNL     1      23.336   5.082  20.136  1.00  0.00    -0.401 OA
ATOM     38  H3  UNL     1      23.435   4.451  20.839  1.00  0.00     0.209 HD
ENDBRANCH  36  37
ENDBRANCH  35  36
ENDBRANCH   3  35
BRANCH   1  39
HETATM   39  O1  UNL     1      25.697   5.237  21.901  1.00  0.00    -0.339 OA
BRANCH  39  40
HETATM   40  C11 UNL     1      26.751   4.311  22.117  1.00  0.00     0.178 C 
BRANCH  40  41
HETATM   41  C9  UNL     1      26.253   3.209  22.966  1.00  0.00     0.009 C 
HETATM   42  C10 UNL     1      25.889   2.064  21.942  1.00  0.00     0.012 C 
BRANCH  41  43
HETATM   43  C7  UNL     1      27.160   2.536  23.919  1.00  0.00    -0.013 C 
HETATM   44  C8  UNL     1      26.931   1.005  23.603  1.00  0.00     0.010 C 
BRANCH  43  45
HETATM   45  C6  UNL     1      27.039   2.691  25.364  1.00  0.00     0.005 C 
BRANCH  45  46
HETATM   46  C5  UNL     1      26.110   3.736  25.852  1.00  0.00     0.005 C 
BRANCH  46  47
HETATM   47  C4  UNL     1      26.768   4.785  26.720  1.00  0.00     0.033 C 
BRANCH  47  48
HETATM   48  C2  UNL     1      25.706   5.448  27.531  1.00  0.00    -0.093 C 
HETATM   49  C1  UNL     1      24.500   5.576  26.998  1.00  0.00     0.014 C 
HETATM   50  C3  UNL     1      25.985   5.956  28.907  1.00  0.00     0.042 C 
ENDBRANCH  47  48
ENDBRANCH  46  47
ENDBRANCH  45  46
ENDBRANCH  43  45
ENDBRANCH  41  43
ENDBRANCH  40  41
ENDBRANCH  39  40
ENDBRANCH   1  39
TORSDOF 18
ENDMDL
MODEL 2
REMARK VINA RESULT: -8.081245715      1.274      2.470
REMARK  18 active torsions:
REMARK  status: ('A' for Active; 'I' for Inactive)
REMARK    1  A    between atoms: C2_2  and  C4_4 
REMARK    2  A    between atoms: C4_4  and  C5_5 
REMARK    3  A    between atoms: C5_5  and  C6_6 
REMARK    4  A    between atoms: C6_6  and  C7_7 
REMARK    5  A    between atoms: C7_7  and  C9_9 
REMARK    6  A    between atoms: C9_9  and  C11_11 
REMARK    7  A    between atoms: C11_11  and  O1_12 
REMARK    8  A    between atoms: O1_12  and  C12_13 
REMARK    9  A    between atoms: C13_15  and  C14_16 
REMARK   10  A    between atoms: C14_16  and  C15_17 
REMARK   11  A    between atoms: C15_17  and  O3_18 
REMARK   12  A    between atoms: C21_25  and  O4_26 
REMARK   13  A    between atoms: O4_26  and  C22_27 
REMARK   14  A    between atoms: C27_33  and  O6_35 
REMARK   15  A    between atoms: C29_37  and  O7_38 
REMARK   16  A    between atoms: C31_41  and  O8_42 
REMARK   17  A    between atoms: C32_44  and  O9_45 
REMARK   18  A    between atoms: C33_47  and  O10_48 
ROOT
HETATM    1  C12 UNL     1      24.739   6.363  23.340  1.00  0.00     0.413 C 
HETATM    2  O2  UNL     1      23.394   6.364  23.113  1.00  0.00    -0.334 OA
HETATM    3  C13 UNL     1      23.052   7.017  21.963  1.00  0.00     0.129 C 
HETATM    4  C16 UNL     1      22.828   8.489  22.088  1.00  0.00     0.042 C 
HETATM    5  C17 UNL     1      23.472   9.130  23.258  1.00  0.00     0.046 C 
HETATM    6  C18 UNL     1      24.883   8.705  23.527  1.00  0.00     0.133 C 
HETATM    7  C19 UNL     1      25.603   9.141  22.301  1.00  0.00     0.035 C 
HETATM    8  C20 UNL     1      25.085  10.584  22.184  1.00  0.00     0.035 C 
HETATM    9  C21 UNL     1      23.725  10.594  22.849  1.00  0.00     0.131 C 
HETATM   10  O11 UNL     1      25.092   7.502  24.035  1.00  0.00    -0.333 OA
ENDROOT
BRANCH   9  11
HETATM   11  O4  UNL     1      22.790  10.990  21.898  1.00  0.00    -0.353 OA
BRANCH  11  12
HETATM   12  C22 UNL     1      22.259  12.252  22.164  1.00  0.00     0.291 C 
HETATM   13  O5  UNL     1      22.677  12.583  23.451  1.00  0.00    -0.353 OA
HETATM   14  C23 UNL     1      22.294  13.890  23.805  1.00  0.00     0.134 C 
HETATM   15  C24 UNL     1      22.823  14.806  22.766  1.00  0.00     0.040 C 
HETATM   16  C25 UNL     1      20.784  13.990  24.020  1.00  0.00     0.043 C 
HETATM   17  C26 UNL     1      20.244  15.227  23.432  1.00  0.00     0.057 C 
HETATM   18  C31 UNL     1      20.601  13.926  25.543  1.00  0.00     0.134 C 
HETATM   19  C32 UNL     1      20.201  12.705  23.489  1.00  0.00     0.165 C 
HETATM   20  C27 UNL     1      19.068  15.862  24.040  1.00  0.00     0.081 C 
HETATM   21  C28 UNL     1      17.753  15.554  23.316  1.00  0.00     0.049 C 
HETATM   22  C29 UNL     1      18.836  15.590  25.492  1.00  0.00     0.154 C 
HETATM   23  C30 UNL     1      19.208  14.233  25.965  1.00  0.00     0.067 C 
HETATM   24  C33 UNL     1      20.757  12.277  22.159  1.00  0.00     0.203 C 
BRANCH  20  25
HETATM   25  O6  UNL     1      19.197  17.274  23.947  1.00  0.00    -0.388 OA
ATOM     26  H6  UNL     1      18.476  17.685  24.409  1.00  0.00     0.210 HD
ENDBRANCH  20  25
BRANCH  22  27
HETATM   27  O7  UNL     1      17.484  15.838  25.769  1.00  0.00    -0.392 OA
ATOM     28  H7  UNL     1      17.300  15.522  26.646  1.00  0.00     0.210 HD
ENDBRANCH  22  27
BRANCH  18  29
HETATM   29  O8  UNL     1      21.466  14.799  26.181  1.00  0.00    -0.395 OA
ATOM     30  H8  UNL     1      22.200  14.331  26.562  1.00  0.00     0.210 HD
ENDBRANCH  18  29
BRANCH  19  31
HETATM   31  O9  UNL     1      18.841  12.648  23.447  1.00  0.00    -0.392 OA
ATOM     32  H9  UNL     1      18.427  12.186  24.167  1.00  0.00     0.210 HD
ENDBRANCH  19  31
BRANCH  24  33
HETATM   33  O10 UNL     1      20.212  12.951  21.083  1.00  0.00    -0.388 OA
ATOM     34  H10 UNL     1      19.623  13.656  21.327  1.00  0.00     0.210 HD
ENDBRANCH  24  33
ENDBRANCH  11  12
ENDBRANCH   9  11
BRANCH   3  35
HETATM   35  C14 UNL     1      21.779   6.330  21.440  1.00  0.00     0.058 C 
BRANCH  35  36
HETATM   36  C15 UNL     1      22.149   5.531  20.214  1.00  0.00     0.166 C 
BRANCH  36  37
HETATM   37  O3  UNL     1      23.506   5.208  20.316  1.00  0.00    -0.401 OA
ATOM     38  H3  UNL     1      23.932   5.508  19.521  1.00  0.00     0.209 HD
ENDBRANCH  36  37
ENDBRANCH  35  36
ENDBRANCH   3  35
BRANCH   1  39
HETATM   39  O1  UNL     1      25.559   6.075  22.288  1.00  0.00    -0.339 OA
BRANCH  39  40
HETATM   40  C11 UNL     1      26.649   5.225  22.611  1.00  0.00     0.178 C 
BRANCH  40  41
HETATM   41  C9  UNL     1      26.146   4.078  23.394  1.00  0.00     0.009 C 
HETATM   42  C10 UNL     1      26.564   2.814  22.545  1.00  0.00     0.012 C 
BRANCH  41  43
HETATM   43  C7  UNL     1      26.705   3.788  24.731  1.00  0.00    -0.013 C 
HETATM   44  C8  UNL     1      26.965   2.231  24.675  1.00  0.00     0.010 C 
BRANCH  43  45
HETATM   45  C6  UNL     1      25.971   4.049  25.965  1.00  0.00     0.005 C 
BRANCH  45  46
HETATM   46  C5  UNL     1      26.219   5.347  26.632  1.00  0.00     0.005 C 
BRANCH  46  47
HETATM   47  C4  UNL     1      25.286   5.631  27.788  1.00  0.00     0.033 C 
BRANCH  47  48
HETATM   48  C2  UNL     1      26.113   6.025  28.965  1.00  0.00    -0.093 C 
HETATM   49  C1  UNL     1      27.406   5.737  28.946  1.00  0.00     0.014 C 
HETATM   50  C3  UNL     1      25.508   6.726  30.137  1.00  0.00     0.042 C 
ENDBRANCH  47  48
ENDBRANCH  46  47
ENDBRANCH  45  46
ENDBRANCH  43  45
ENDBRANCH  41  43
ENDBRANCH  40  41
ENDBRANCH  39  40
ENDBRANCH   1  39
TORSDOF 18
ENDMDL
MODEL 3
REMARK VINA RESULT: -8.071628919      2.566     10.221
REMARK  18 active torsions:
REMARK  status: ('A' for Active; 'I' for Inactive)
REMARK    1  A    between atoms: C2_2  and  C4_4 
REMARK    2  A    between atoms: C4_4  and  C5_5 
REMARK    3  A    between atoms: C5_5  and  C6_6 
REMARK    4  A    between atoms: C6_6  and  C7_7 
REMARK    5  A    between atoms: C7_7  and  C9_9 
REMARK    6  A    between atoms: C9_9  and  C11_11 
REMARK    7  A    between atoms: C11_11  and  O1_12 
REMARK    8  A    between atoms: O1_12  and  C12_13 
REMARK    9  A    between atoms: C13_15  and  C14_16 
REMARK   10  A    between atoms: C14_16  and  C15_17 
REMARK   11  A    between atoms: C15_17  and  O3_18 
REMARK   12  A    between atoms: C21_25  and  O4_26 
REMARK   13  A    between atoms: O4_26  and  C22_27 
REMARK   14  A    between atoms: C27_33  and  O6_35 
REMARK   15  A    between atoms: C29_37  and  O7_38 
REMARK   16  A    between atoms: C31_41  and  O8_42 
REMARK   17  A    between atoms: C32_44  and  O9_45 
REMARK   18  A    between atoms: C33_47  and  O10_48 
ROOT
HETATM    1  C12 UNL     1      21.658  16.000  23.406  1.00  0.00     0.413 C 
HETATM    2  O2  UNL     1      22.689  16.164  22.527  1.00  0.00    -0.334 OA
HETATM    3  C13 UNL     1      22.633  15.294  21.476  1.00  0.00     0.129 C 
HETATM    4  C16 UNL     1      23.289  13.969  21.687  1.00  0.00     0.042 C 
HETATM    5  C17 UNL     1      23.463  13.566  23.101  1.00  0.00     0.046 C 
HETATM    6  C18 UNL     1      22.278  13.804  23.986  1.00  0.00     0.133 C 
HETATM    7  C19 UNL     1      21.229  12.940  23.380  1.00  0.00     0.035 C 
HETATM    8  C20 UNL     1      22.016  11.627  23.231  1.00  0.00     0.035 C 
HETATM    9  C21 UNL     1      23.471  12.025  23.102  1.00  0.00     0.131 C 
HETATM   10  O11 UNL     1      21.998  15.046  24.344  1.00  0.00    -0.333 OA
ENDROOT
BRANCH   9  11
HETATM   11  O4  UNL     1      23.934  11.552  21.878  1.00  0.00    -0.353 OA
BRANCH  11  12
HETATM   12  C22 UNL     1      24.907  10.563  22.021  1.00  0.00     0.291 C 
HETATM   13  O5  UNL     1      25.569  10.493  20.797  1.00  0.00    -0.353 OA
HETATM   14  C23 UNL     1      26.654   9.599  20.841  1.00  0.00     0.134 C 
HETATM   15  C24 UNL     1      27.534  10.020  21.957  1.00  0.00     0.040 C 
HETATM   16  C25 UNL     1      26.179   8.149  20.929  1.00  0.00     0.043 C 
HETATM   17  C26 UNL     1      26.995   7.379  21.882  1.00  0.00     0.057 C 
HETATM   18  C31 UNL     1      26.281   7.616  19.493  1.00  0.00     0.134 C 
HETATM   19  C32 UNL     1      24.703   8.211  21.232  1.00  0.00     0.165 C 
HETATM   20  C27 UNL     1      27.197   5.941  21.664  1.00  0.00     0.081 C 
HETATM   21  C28 UNL     1      26.285   5.051  22.516  1.00  0.00     0.049 C 
HETATM   22  C29 UNL     1      27.079   5.455  20.255  1.00  0.00     0.154 C 
HETATM   23  C30 UNL     1      26.071   6.145  19.412  1.00  0.00     0.067 C 
HETATM   24  C33 UNL     1      24.334   9.203  22.300  1.00  0.00     0.203 C 
BRANCH  20  25
HETATM   25  O6  UNL     1      28.511   5.585  22.068  1.00  0.00    -0.388 OA
ATOM     26  H6  UNL     1      28.480   4.764  22.544  1.00  0.00     0.210 HD
ENDBRANCH  20  25
BRANCH  22  27
HETATM   27  O7  UNL     1      26.811   4.079  20.291  1.00  0.00    -0.392 OA
ATOM     28  H7  UNL     1      26.276   3.864  19.536  1.00  0.00     0.210 HD
ENDBRANCH  22  27
BRANCH  18  29
HETATM   29  O8  UNL     1      27.512   7.925  18.938  1.00  0.00    -0.395 OA
ATOM     30  H8  UNL     1      27.838   7.203  18.413  1.00  0.00     0.210 HD
ENDBRANCH  18  29
BRANCH  19  31
HETATM   31  O9  UNL     1      24.106   7.017  21.501  1.00  0.00    -0.392 OA
ATOM     32  H9  UNL     1      23.223   7.068  21.847  1.00  0.00     0.210 HD
ENDBRANCH  19  31
BRANCH  24  33
HETATM   33  O10 UNL     1      24.563   8.752  23.586  1.00  0.00    -0.388 OA
ATOM     34  H10 UNL     1      23.894   8.161  23.911  1.00  0.00     0.210 HD
ENDBRANCH  24  33
ENDBRANCH  11  12
ENDBRANCH   9  11
BRANCH   3  35
HETATM   35  C14 UNL     1      23.274  16.020  20.281  1.00  0.00     0.058 C 
BRANCH  35  36
HETATM   36  C15 UNL     1      22.460  17.259  19.995  1.00  0.00     0.166 C 
BRANCH  36  37
HETATM   37  O3  UNL     1      21.112  16.927  20.169  1.00  0.00    -0.401 OA
ATOM     38  H3  UNL     1      20.922  16.980  21.098  1.00  0.00     0.209 HD
ENDBRANCH  36  37
ENDBRANCH  35  36
ENDBRANCH   3  35
BRANCH   1  39
HETATM   39  O1  UNL     1      20.403  15.853  22.891  1.00  0.00    -0.339 OA
BRANCH  39  40
HETATM   40  C11 UNL     1      19.373  16.415  23.688  1.00  0.00     0.178 C 
BRANCH  40  41
HETATM   41  C9  UNL     1      18.096  15.749  23.359  1.00  0.00     0.009 C 
HETATM   42  C10 UNL     1      18.073  15.709  21.781  1.00  0.00     0.012 C 
BRANCH  41  43
HETATM   43  C7  UNL     1      17.875  14.337  23.737  1.00  0.00    -0.013 C 
HETATM   44  C8  UNL     1      17.654  13.629  22.343  1.00  0.00     0.010 C 
BRANCH  43  45
HETATM   45  C6  UNL     1      16.777  13.917  24.603  1.00  0.00     0.005 C 
BRANCH  45  46
HETATM   46  C5  UNL     1      17.142  13.253  25.875  1.00  0.00     0.005 C 
BRANCH  46  47
HETATM   47  C4  UNL     1      18.619  12.955  26.009  1.00  0.00     0.033 C 
BRANCH  47  48
HETATM   48  C2  UNL     1      18.765  11.584  26.581  1.00  0.00    -0.093 C 
HETATM   49  C1  UNL     1      19.364  10.660  25.846  1.00  0.00     0.014 C 
HETATM   50  C3  UNL     1      18.253  11.256  27.945  1.00  0.00     0.042 C 
ENDBRANCH  47  48
ENDBRANCH  46  47
ENDBRANCH  45  46
ENDBRANCH  43  45
ENDBRANCH  41  43
ENDBRANCH  40  41
ENDBRANCH  39  40
ENDBRANCH   1  39
TORSDOF 18
ENDMDL
MODEL 4
REMARK VINA RESULT: -8.037480272      2.293     10.269
REMARK  18 active torsions:
REMARK  status: ('A' for Active; 'I' for Inactive)
REMARK    1  A    between atoms: C2_2  and  C4_4 
REMARK    2  A    between atoms: C4_4  and  C5_5 
REMARK    3  A    between atoms: C5_5  and  C6_6 
REMARK    4  A    between atoms: C6_6  and  C7_7 
REMARK    5  A    between atoms: C7_7  and  C9_9 
REMARK    6  A    between atoms: C9_9  and  C11_11 
REMARK    7  A    between atoms: C11_11  and  O1_12 
REMARK    8  A    between atoms: O1_12  and  C12_13 
REMARK    9  A    between atoms: C13_15  and  C14_16 
REMARK   10  A    between atoms: C14_16  and  C15_17 
REMARK   11  A    between atoms: C15_17  and  O3_18 
REMARK   12  A    between atoms: C21_25  and  O4_26 
REMARK   13  A    between atoms: O4_26  and  C22_27 
REMARK   14  A    between atoms: C27_33  and  O6_35 
REMARK   15  A    between atoms: C29_37  and  O7_38 
REMARK   16  A    between atoms: C31_41  and  O8_42 
REMARK   17  A    between atoms: C32_44  and  O9_45 
REMARK   18  A    between atoms: C33_47  and  O10_48 
ROOT
HETATM    1  C12 UNL     1      21.957  14.791  22.380  1.00  0.00     0.413 C 
HETATM    2  O2  UNL     1      23.302  14.970  22.231  1.00  0.00    -0.334 OA
HETATM    3  C13 UNL     1      23.865  14.067  21.377  1.00  0.00     0.129 C 
HETATM    4  C16 UNL     1      24.308  12.776  21.986  1.00  0.00     0.042 C 
HETATM    5  C17 UNL     1      23.655  12.425  23.268  1.00  0.00     0.046 C 
HETATM    6  C18 UNL     1      22.174  12.641  23.314  1.00  0.00     0.133 C 
HETATM    7  C19 UNL     1      21.667  11.717  22.265  1.00  0.00     0.035 C 
HETATM    8  C20 UNL     1      22.421  10.433  22.650  1.00  0.00     0.035 C 
HETATM    9  C21 UNL     1      23.686  10.886  23.348  1.00  0.00     0.131 C 
HETATM   10  O11 UNL     1      21.720  13.882  23.391  1.00  0.00    -0.333 OA
ENDROOT
BRANCH   9  11
HETATM   11  O4  UNL     1      24.769  10.395  22.626  1.00  0.00    -0.353 OA
BRANCH  11  12
HETATM   12  C22 UNL     1      24.595   9.066  22.240  1.00  0.00     0.291 C 
HETATM   13  O5  UNL     1      24.693   8.310  23.407  1.00  0.00    -0.353 OA
HETATM   14  C23 UNL     1      24.429   6.948  23.170  1.00  0.00     0.134 C 
HETATM   15  C24 UNL     1      23.096   6.858  22.528  1.00  0.00     0.040 C 
HETATM   16  C25 UNL     1      25.555   6.291  22.373  1.00  0.00     0.043 C 
HETATM   17  C26 UNL     1      25.019   5.387  21.342  1.00  0.00     0.057 C 
HETATM   18  C31 UNL     1      26.402   5.559  23.424  1.00  0.00     0.134 C 
HETATM   19  C32 UNL     1      26.422   7.417  21.870  1.00  0.00     0.165 C 
HETATM   20  C27 UNL     1      25.797   4.207  20.941  1.00  0.00     0.081 C 
HETATM   21  C28 UNL     1      26.581   4.396  19.638  1.00  0.00     0.049 C 
HETATM   22  C29 UNL     1      26.758   3.665  21.949  1.00  0.00     0.154 C 
HETATM   23  C30 UNL     1      27.427   4.669  22.814  1.00  0.00     0.067 C 
HETATM   24  C33 UNL     1      25.657   8.578  21.297  1.00  0.00     0.203 C 
BRANCH  20  25
HETATM   25  O6  UNL     1      24.909   3.134  20.663  1.00  0.00    -0.388 OA
ATOM     26  H6  UNL     1      25.413   2.349  20.487  1.00  0.00     0.210 HD
ENDBRANCH  20  25
BRANCH  22  27
HETATM   27  O7  UNL     1      27.719   2.906  21.267  1.00  0.00    -0.392 OA
ATOM     28  H7  UNL     1      28.003   3.403  20.508  1.00  0.00     0.210 HD
ENDBRANCH  22  27
BRANCH  18  29
HETATM   29  O8  UNL     1      25.600   4.807  24.267  1.00  0.00    -0.395 OA
ATOM     30  H8  UNL     1      25.833   4.956  25.177  1.00  0.00     0.210 HD
ENDBRANCH  18  29
BRANCH  19  31
HETATM   31  O9  UNL     1      27.410   7.059  21.004  1.00  0.00    -0.392 OA
ATOM     32  H9  UNL     1      28.159   7.643  20.970  1.00  0.00     0.210 HD
ENDBRANCH  19  31
BRANCH  24  33
HETATM   33  O10 UNL     1      25.207   8.369  20.008  1.00  0.00    -0.388 OA
ATOM     34  H10 UNL     1      25.874   8.492  19.342  1.00  0.00     0.210 HD
ENDBRANCH  24  33
ENDBRANCH  11  12
ENDBRANCH   9  11
BRANCH   3  35
HETATM   35  C14 UNL     1      25.059  14.780  20.721  1.00  0.00     0.058 C 
BRANCH  35  36
HETATM   36  C15 UNL     1      25.398  15.989  21.559  1.00  0.00     0.166 C 
BRANCH  36  37
HETATM   37  O3  UNL     1      24.683  17.074  21.042  1.00  0.00    -0.401 OA
ATOM     38  H3  UNL     1      24.154  16.751  20.322  1.00  0.00     0.209 HD
ENDBRANCH  36  37
ENDBRANCH  35  36
ENDBRANCH   3  35
BRANCH   1  39
HETATM   39  O1  UNL     1      21.218  14.577  21.253  1.00  0.00    -0.339 OA
BRANCH  39  40
HETATM   40  C11 UNL     1      20.185  15.527  21.041  1.00  0.00     0.178 C 
BRANCH  40  41
HETATM   41  C9  UNL     1      19.047  15.202  21.924  1.00  0.00     0.009 C 
HETATM   42  C10 UNL     1      17.979  16.321  21.611  1.00  0.00     0.012 C 
BRANCH  41  43
HETATM   43  C7  UNL     1      18.290  13.947  21.731  1.00  0.00    -0.013 C 
HETATM   44  C8  UNL     1      16.790  14.439  21.716  1.00  0.00     0.010 C 
BRANCH  43  45
HETATM   45  C6  UNL     1      18.360  12.832  22.670  1.00  0.00     0.005 C 
BRANCH  45  46
HETATM   46  C5  UNL     1      17.880  13.085  24.048  1.00  0.00     0.005 C 
BRANCH  46  47
HETATM   47  C4  UNL     1      18.972  13.045  25.094  1.00  0.00     0.033 C 
BRANCH  47  48
HETATM   48  C2  UNL     1      18.903  11.726  25.786  1.00  0.00    -0.093 C 
HETATM   49  C1  UNL     1      18.310  11.670  26.970  1.00  0.00     0.014 C 
HETATM   50  C3  UNL     1      19.482  10.496  25.169  1.00  0.00     0.042 C 
ENDBRANCH  47  48
ENDBRANCH  46  47
ENDBRANCH  45  46
ENDBRANCH  43  45
ENDBRANCH  41  43
ENDBRANCH  40  41
ENDBRANCH  39  40
ENDBRANCH   1  39
TORSDOF 18
ENDMDL
MODEL 5
REMARK VINA RESULT: -8.005873254      1.601      2.339
REMARK  18 active torsions:
REMARK  status: ('A' for Active; 'I' for Inactive)
REMARK    1  A    between atoms: C2_2  and  C4_4 
REMARK    2  A    between atoms: C4_4  and  C5_5 
REMARK    3  A    between atoms: C5_5  and  C6_6 
REMARK    4  A    between atoms: C6_6  and  C7_7 
REMARK    5  A    between atoms: C7_7  and  C9_9 
REMARK    6  A    between atoms: C9_9  and  C11_11 
REMARK    7  A    between atoms: C11_11  and  O1_12 
REMARK    8  A    between atoms: O1_12  and  C12_13 
REMARK    9  A    between atoms: C13_15  and  C14_16 
REMARK   10  A    between atoms: C14_16  and  C15_17 
REMARK   11  A    between atoms: C15_17  and  O3_18 
REMARK   12  A    between atoms: C21_25  and  O4_26 
REMARK   13  A    between atoms: O4_26  and  C22_27 
REMARK   14  A    between atoms: C27_33  and  O6_35 
REMARK   15  A    between atoms: C29_37  and  O7_38 
REMARK   16  A    between atoms: C31_41  and  O8_42 
REMARK   17  A    between atoms: C32_44  and  O9_45 
REMARK   18  A    between atoms: C33_47  and  O10_48 
ROOT
HETATM    1  C12 UNL     1      25.388   5.339  20.127  1.00  0.00     0.413 C 
HETATM    2  O2  UNL     1      25.453   6.453  19.340  1.00  0.00    -0.334 OA
HETATM    3  C13 UNL     1      26.182   7.459  19.906  1.00  0.00     0.129 C 
HETATM    4  C16 UNL     1      25.431   8.385  20.808  1.00  0.00     0.042 C 
HETATM    5  C17 UNL     1      24.175   7.839  21.370  1.00  0.00     0.046 C 
HETATM    6  C18 UNL     1      24.256   6.432  21.878  1.00  0.00     0.133 C 
HETATM    7  C19 UNL     1      25.256   6.529  22.975  1.00  0.00     0.035 C 
HETATM    8  C20 UNL     1      24.705   7.748  23.733  1.00  0.00     0.035 C 
HETATM    9  C21 UNL     1      23.959   8.575  22.707  1.00  0.00     0.131 C 
HETATM   10  O11 UNL     1      24.322   5.447  20.996  1.00  0.00    -0.333 OA
ENDROOT
BRANCH   9  11
HETATM   11  O4  UNL     1      24.554   9.831  22.659  1.00  0.00    -0.353 OA
BRANCH  11  12
HETATM   12  C22 UNL     1      23.676  10.852  23.023  1.00  0.00     0.291 C 
HETATM   13  O5  UNL     1      22.555  10.706  22.209  1.00  0.00    -0.353 OA
HETATM   14  C23 UNL     1      21.539  11.619  22.551  1.00  0.00     0.134 C 
HETATM   15  C24 UNL     1      21.242  11.435  23.991  1.00  0.00     0.040 C 
HETATM   16  C25 UNL     1      21.920  13.048  22.165  1.00  0.00     0.043 C 
HETATM   17  C26 UNL     1      21.540  14.001  23.220  1.00  0.00     0.057 C 
HETATM   18  C31 UNL     1      21.188  13.303  20.840  1.00  0.00     0.134 C 
HETATM   19  C32 UNL     1      23.386  13.009  21.815  1.00  0.00     0.165 C 
HETATM   20  C27 UNL     1      21.179  15.377  22.854  1.00  0.00     0.081 C 
HETATM   21  C28 UNL     1      22.311  16.390  23.059  1.00  0.00     0.049 C 
HETATM   22  C29 UNL     1      20.660  15.587  21.467  1.00  0.00     0.154 C 
HETATM   23  C30 UNL     1      21.255  14.727  20.414  1.00  0.00     0.067 C 
HETATM   24  C33 UNL     1      24.231  12.227  22.782  1.00  0.00     0.203 C 
BRANCH  20  25
HETATM   25  O6  UNL     1      20.141  15.833  23.709  1.00  0.00    -0.388 OA
ATOM     26  H6  UNL     1      19.666  16.534  23.278  1.00  0.00     0.210 HD
ENDBRANCH  20  25
BRANCH  22  27
HETATM   27  O7  UNL     1      20.836  16.938  21.138  1.00  0.00    -0.392 OA
ATOM     28  H7  UNL     1      21.439  16.986  20.404  1.00  0.00     0.210 HD
ENDBRANCH  22  27
BRANCH  18  29
HETATM   29  O8  UNL     1      19.858  12.924  20.929  1.00  0.00    -0.395 OA
ATOM     30  H8  UNL     1      19.519  12.675  20.077  1.00  0.00     0.210 HD
ENDBRANCH  18  29
BRANCH  19  31
HETATM   31  O9  UNL     1      23.968  14.218  21.583  1.00  0.00    -0.392 OA
ATOM     32  H9  UNL     1      24.908  14.202  21.448  1.00  0.00     0.210 HD
ENDBRANCH  19  31
BRANCH  24  33
HETATM   33  O10 UNL     1      24.542  12.917  23.937  1.00  0.00    -0.388 OA
ATOM     34  H10 UNL     1      25.438  12.795  24.230  1.00  0.00     0.210 HD
ENDBRANCH  24  33
ENDBRANCH  11  12
ENDBRANCH   9  11
BRANCH   3  35
HETATM   35  C14 UNL     1      26.808   8.245  18.742  1.00  0.00     0.058 C 
BRANCH  35  36
HETATM   36  C15 UNL     1      27.626   7.282  17.915  1.00  0.00     0.166 C 
BRANCH  36  37
HETATM   37  O3  UNL     1      28.352   6.479  18.800  1.00  0.00    -0.401 OA
ATOM     38  H3  UNL     1      29.036   6.049  18.300  1.00  0.00     0.209 HD
ENDBRANCH  36  37
ENDBRANCH  35  36
ENDBRANCH   3  35
BRANCH   1  39
HETATM   39  O1  UNL     1      26.544   4.909  20.712  1.00  0.00    -0.339 OA
BRANCH  39  40
HETATM   40  C11 UNL     1      26.704   3.499  20.725  1.00  0.00     0.178 C 
BRANCH  40  41
HETATM   41  C9  UNL     1      26.313   2.985  22.054  1.00  0.00     0.009 C 
HETATM   42  C10 UNL     1      26.321   1.416  21.882  1.00  0.00     0.012 C 
BRANCH  41  43
HETATM   43  C7  UNL     1      27.191   3.202  23.223  1.00  0.00    -0.013 C 
HETATM   44  C8  UNL     1      28.631   2.926  22.639  1.00  0.00     0.010 C 
BRANCH  43  45
HETATM   45  C6  UNL     1      27.075   2.420  24.450  1.00  0.00     0.005 C 
BRANCH  45  46
HETATM   46  C5  UNL     1      26.697   3.153  25.680  1.00  0.00     0.005 C 
BRANCH  46  47
HETATM   47  C4  UNL     1      26.518   4.641  25.476  1.00  0.00     0.033 C 
BRANCH  47  48
HETATM   48  C2  UNL     1      25.949   5.215  26.730  1.00  0.00    -0.093 C 
HETATM   49  C1  UNL     1      26.786   5.565  27.695  1.00  0.00     0.014 C 
HETATM   50  C3  UNL     1      24.476   5.395  26.901  1.00  0.00     0.042 C 
ENDBRANCH  47  48
ENDBRANCH  46  47
ENDBRANCH  45  46
ENDBRANCH  43  45
ENDBRANCH  41  43
ENDBRANCH  40  41
ENDBRANCH  39  40
ENDBRANCH   1  39
TORSDOF 18
ENDMDL
