MODEL 1
REMARK VINA RESULT: -8.688138986      0.000      0.000
REMARK  18 active torsions:
REMARK  status: ('A' for Active; 'I' for Inactive)
REMARK    1  A    between atoms: C2_2  and  C3_3 
REMARK    2  A    between atoms: C2_2  and  C8_12 
REMARK    3  A    between atoms: C3_3  and  C4_4 
REMARK    4  A    between atoms: C4_4  and  C5_5 
REMARK    5  A    between atoms: C5_5  and  O1_7 
REMARK    6  A    between atoms: C5_5  and  C7_9 
REMARK    7  A    between atoms: C7_9  and  O2_10 
REMARK    8  A    between atoms: C8_12  and  C9_14 
REMARK    9  A    between atoms: C9_14  and  C10_15 
REMARK   10  A    between atoms: C10_15  and  C11_16 
REMARK   11  A    between atoms: C11_16  and  C13_18 
REMARK   12  A    between atoms: C13_18  and  C15_20 
REMARK   13  A    between atoms: C21_26  and  O4_27 
REMARK   14  A    between atoms: O4_27  and  C22_28 
REMARK   15  A    between atoms: C26_34  and  O7_35 
REMARK   16  A    between atoms: C28_38  and  O8_39 
REMARK   17  A    between atoms: C29_41  and  O9_42 
REMARK   18  A    between atoms: C30_44  and  O10_45 
ROOT
HETATM    1  C15 UNL     1      24.373   7.757  21.387  1.00  0.00    -0.002 C 
HETATM    2  C16 UNL     1      25.909   8.030  21.557  1.00  0.00     0.006 C 
HETATM    3  C17 UNL     1      26.025   9.533  21.674  1.00  0.00     0.006 C 
HETATM    4  C18 UNL     1      24.606   9.974  21.770  1.00  0.00     0.000 C 
HETATM    5  C19 UNL     1      24.335  11.306  22.296  1.00  0.00     0.015 C 
HETATM    6  C20 UNL     1      25.434  11.760  23.235  1.00  0.00     0.013 C 
HETATM    7  C21 UNL     1      22.984  11.541  22.879  1.00  0.00     0.129 C 
HETATM    8  C31 UNL     1      22.326  10.326  23.424  1.00  0.00     0.033 C 
HETATM    9  C32 UNL     1      22.558   9.073  22.622  1.00  0.00     0.012 C 
HETATM   10  C33 UNL     1      23.976   8.767  22.474  1.00  0.00    -0.036 C 
HETATM   11  C34 UNL     1      24.704   8.385  23.714  1.00  0.00     0.016 C 
ENDROOT
BRANCH   7  12
HETATM   12  O4  UNL     1      22.097  12.224  22.114  1.00  0.00    -0.353 OA
BRANCH  12  13
HETATM   13  C22 UNL     1      20.926  12.653  22.620  1.00  0.00     0.294 C 
HETATM   14  O5  UNL     1      21.236  13.614  23.617  1.00  0.00    -0.328 OA
HETATM   15  C23 UNL     1      20.197  13.935  24.411  1.00  0.00     0.272 C 
HETATM   16  O6  UNL     1      20.172  13.312  25.661  1.00  0.00    -0.353 OA
HETATM   17  C27 UNL     1      18.818  13.698  23.930  1.00  0.00     0.104 C 
HETATM   18  C24 UNL     1      19.076  13.973  26.261  1.00  0.00     0.150 C 
HETATM   19  C25 UNL     1      19.458  15.362  26.698  1.00  0.00     0.042 C 
HETATM   20  C26 UNL     1      18.021  14.119  25.180  1.00  0.00     0.158 C 
HETATM   21  C28 UNL     1      18.465  14.553  22.763  1.00  0.00     0.161 C 
HETATM   22  C29 UNL     1      19.653  14.684  21.871  1.00  0.00     0.181 C 
HETATM   23  C30 UNL     1      20.136  13.302  21.507  1.00  0.00     0.204 C 
BRANCH  20  24
HETATM   24  O7  UNL     1      16.935  13.307  25.395  1.00  0.00    -0.392 OA
ATOM     25  H7  UNL     1      16.286  13.380  24.705  1.00  0.00     0.210 HD
ENDBRANCH  20  24
BRANCH  21  26
HETATM   26  O8  UNL     1      17.904  15.776  23.114  1.00  0.00    -0.392 OA
ATOM     27  H8  UNL     1      17.395  16.177  22.419  1.00  0.00     0.210 HD
ENDBRANCH  21  26
BRANCH  22  28
HETATM   28  O9  UNL     1      20.639  15.530  22.300  1.00  0.00    -0.390 OA
ATOM     29  H9  UNL     1      21.441  15.120  22.600  1.00  0.00     0.210 HD
ENDBRANCH  22  28
BRANCH  23  30
HETATM   30  O10 UNL     1      20.942  13.492  20.359  1.00  0.00    -0.388 OA
ATOM     31  H10 UNL     1      21.751  13.938  20.582  1.00  0.00     0.210 HD
ENDBRANCH  23  30
ENDBRANCH  12  13
ENDBRANCH   7  12
BRANCH   1  32
HETATM   32  C13 UNL     1      24.080   6.338  21.667  1.00  0.00    -0.010 C 
HETATM   33  C14 UNL     1      23.315   5.750  20.501  1.00  0.00     0.011 C 
BRANCH  32  34
HETATM   34  C11 UNL     1      25.345   5.508  21.804  1.00  0.00    -0.014 C 
HETATM   35  C12 UNL     1      25.442   4.499  20.651  1.00  0.00     0.010 C 
BRANCH  34  36
HETATM   36  C10 UNL     1      25.598   4.794  23.043  1.00  0.00     0.012 C 
BRANCH  36  37
HETATM   37  C9  UNL     1      26.522   5.239  24.084  1.00  0.00     0.084 C 
BRANCH  37  38
HETATM   38  C8  UNL     1      26.247   4.515  25.390  1.00  0.00     0.154 C 
HETATM   39  O3  UNL     1      26.516   3.292  25.451  1.00  0.00    -0.293 OA
BRANCH  38  40
HETATM   40  C2  UNL     1      25.695   5.194  26.540  1.00  0.00    -0.022 C 
HETATM   41  C1  UNL     1      24.378   5.322  26.649  1.00  0.00     0.022 C 
BRANCH  40  42
HETATM   42  C3  UNL     1      26.505   5.680  27.649  1.00  0.00     0.044 C 
BRANCH  42  43
HETATM   43  C4  UNL     1      25.894   5.666  28.976  1.00  0.00     0.044 C 
BRANCH  43  44
HETATM   44  C5  UNL     1      26.238   6.632  30.033  1.00  0.00     0.075 C 
HETATM   45  C6  UNL     1      27.562   7.314  29.917  1.00  0.00     0.048 C 
BRANCH  44  46
HETATM   46  O1  UNL     1      26.415   5.761  31.212  1.00  0.00    -0.388 OA
ATOM     47  H1  UNL     1      26.683   6.378  31.883  1.00  0.00     0.210 HD
ENDBRANCH  44  46
BRANCH  44  48
HETATM   48  C7  UNL     1      25.144   7.554  30.499  1.00  0.00     0.201 C 
BRANCH  48  49
HETATM   49  O2  UNL     1      24.199   7.717  29.454  1.00  0.00    -0.398 OA
ATOM     50  H2  UNL     1      23.349   7.421  29.757  1.00  0.00     0.209 HD
ENDBRANCH  48  49
ENDBRANCH  44  48
ENDBRANCH  43  44
ENDBRANCH  42  43
ENDBRANCH  40  42
ENDBRANCH  38  40
ENDBRANCH  37  38
ENDBRANCH  36  37
ENDBRANCH  34  36
ENDBRANCH  32  34
ENDBRANCH   1  32
TORSDOF 18
ENDMDL
MODEL 2
REMARK VINA RESULT: -8.447914968      6.022     11.979
REMARK  18 active torsions:
REMARK  status: ('A' for Active; 'I' for Inactive)
REMARK    1  A    between atoms: C2_2  and  C3_3 
REMARK    2  A    between atoms: C2_2  and  C8_12 
REMARK    3  A    between atoms: C3_3  and  C4_4 
REMARK    4  A    between atoms: C4_4  and  C5_5 
REMARK    5  A    between atoms: C5_5  and  O1_7 
REMARK    6  A    between atoms: C5_5  and  C7_9 
REMARK    7  A    between atoms: C7_9  and  O2_10 
REMARK    8  A    between atoms: C8_12  and  C9_14 
REMARK    9  A    between atoms: C9_14  and  C10_15 
REMARK   10  A    between atoms: C10_15  and  C11_16 
REMARK   11  A    between atoms: C11_16  and  C13_18 
REMARK   12  A    between atoms: C13_18  and  C15_20 
REMARK   13  A    between atoms: C21_26  and  O4_27 
REMARK   14  A    between atoms: O4_27  and  C22_28 
REMARK   15  A    between atoms: C26_34  and  O7_35 
REMARK   16  A    between atoms: C28_38  and  O8_39 
REMARK   17  A    between atoms: C29_41  and  O9_42 
REMARK   18  A    between atoms: C30_44  and  O10_45 
ROOT
HETATM    1  C15 UNL     1      26.613   4.570  22.400  1.00  0.00    -0.002 C 
HETATM    2  C16 UNL     1      25.519   3.478  22.669  1.00  0.00     0.006 C 
HETATM    3  C17 UNL     1      25.931   2.298  21.817  1.00  0.00     0.006 C 
HETATM    4  C18 UNL     1      27.273   2.699  21.312  1.00  0.00     0.000 C 
HETATM    5  C19 UNL     1      28.150   1.659  20.792  1.00  0.00     0.015 C 
HETATM    6  C20 UNL     1      27.845   0.316  21.424  1.00  0.00     0.013 C 
HETATM    7  C21 UNL     1      29.613   1.945  20.794  1.00  0.00     0.129 C 
HETATM    8  C31 UNL     1      30.055   2.904  21.838  1.00  0.00     0.033 C 
HETATM    9  C32 UNL     1      29.097   4.037  22.095  1.00  0.00     0.012 C 
HETATM   10  C33 UNL     1      27.771   3.564  22.475  1.00  0.00    -0.036 C 
HETATM   11  C34 UNL     1      27.666   2.872  23.788  1.00  0.00     0.016 C 
ENDROOT
BRANCH   7  12
HETATM   12  O4  UNL     1      30.171   2.289  19.607  1.00  0.00    -0.353 OA
BRANCH  12  13
HETATM   13  C22 UNL     1      31.319   2.989  19.553  1.00  0.00     0.294 C 
HETATM   14  O5  UNL     1      32.369   2.046  19.403  1.00  0.00    -0.328 OA
HETATM   15  C23 UNL     1      33.597   2.556  19.613  1.00  0.00     0.272 C 
HETATM   16  O6  UNL     1      34.156   2.298  20.868  1.00  0.00    -0.353 OA
HETATM   17  C27 UNL     1      33.808   4.015  19.485  1.00  0.00     0.104 C 
HETATM   18  C24 UNL     1      35.455   2.826  20.689  1.00  0.00     0.150 C 
HETATM   19  C25 UNL     1      36.303   1.899  19.859  1.00  0.00     0.042 C 
HETATM   20  C26 UNL     1      35.290   4.109  19.897  1.00  0.00     0.158 C 
HETATM   21  C28 UNL     1      33.614   4.500  18.090  1.00  0.00     0.161 C 
HETATM   22  C29 UNL     1      32.482   3.758  17.464  1.00  0.00     0.181 C 
HETATM   23  C30 UNL     1      31.267   3.899  18.348  1.00  0.00     0.204 C 
BRANCH  20  24
HETATM   24  O7  UNL     1      35.543   5.228  20.654  1.00  0.00    -0.392 OA
ATOM     25  H7  UNL     1      35.585   6.018  20.128  1.00  0.00     0.210 HD
ENDBRANCH  20  24
BRANCH  21  26
HETATM   26  O8  UNL     1      34.774   4.481  17.324  1.00  0.00    -0.392 OA
ATOM     27  H8  UNL     1      34.627   4.257  16.412  1.00  0.00     0.210 HD
ENDBRANCH  21  26
BRANCH  22  28
HETATM   28  O9  UNL     1      32.745   2.474  17.071  1.00  0.00    -0.390 OA
ATOM     29  H9  UNL     1      32.350   1.787  17.594  1.00  0.00     0.210 HD
ENDBRANCH  22  28
BRANCH  23  30
HETATM   30  O10 UNL     1      30.172   3.569  17.512  1.00  0.00    -0.388 OA
ATOM     31  H10 UNL     1      30.184   4.090  16.717  1.00  0.00     0.210 HD
ENDBRANCH  23  30
ENDBRANCH  12  13
ENDBRANCH   7  12
BRANCH   1  32
HETATM   32  C13 UNL     1      26.565   5.601  23.455  1.00  0.00    -0.010 C 
HETATM   33  C14 UNL     1      26.904   6.945  22.850  1.00  0.00     0.011 C 
BRANCH  32  34
HETATM   34  C11 UNL     1      25.175   5.744  24.053  1.00  0.00    -0.014 C 
HETATM   35  C12 UNL     1      24.382   6.815  23.290  1.00  0.00     0.010 C 
BRANCH  34  36
HETATM   36  C10 UNL     1      25.035   6.012  25.473  1.00  0.00     0.012 C 
BRANCH  36  37
HETATM   37  C9  UNL     1      25.590   5.176  26.535  1.00  0.00     0.084 C 
BRANCH  37  38
HETATM   38  C8  UNL     1      25.391   5.827  27.891  1.00  0.00     0.154 C 
HETATM   39  O3  UNL     1      24.289   6.381  28.120  1.00  0.00    -0.293 OA
BRANCH  38  40
HETATM   40  C2  UNL     1      26.422   5.822  28.902  1.00  0.00    -0.022 C 
HETATM   41  C1  UNL     1      27.677   5.566  28.551  1.00  0.00     0.022 C 
BRANCH  40  42
HETATM   42  C3  UNL     1      26.180   6.170  30.296  1.00  0.00     0.044 C 
BRANCH  42  43
HETATM   43  C4  UNL     1      26.307   7.579  30.662  1.00  0.00     0.044 C 
BRANCH  43  44
HETATM   44  C5  UNL     1      25.158   8.424  31.028  1.00  0.00     0.075 C 
HETATM   45  C6  UNL     1      23.940   7.723  31.535  1.00  0.00     0.048 C 
BRANCH  44  46
HETATM   46  O1  UNL     1      24.719   8.946  29.717  1.00  0.00    -0.388 OA
ATOM     47  H1  UNL     1      23.847   8.579  29.633  1.00  0.00     0.210 HD
ENDBRANCH  44  46
BRANCH  44  48
HETATM   48  C7  UNL     1      25.455   9.695  31.776  1.00  0.00     0.201 C 
BRANCH  48  49
HETATM   49  O2  UNL     1      24.719  10.758  31.194  1.00  0.00    -0.398 OA
ATOM     50  H2  UNL     1      25.102  11.585  31.463  1.00  0.00     0.209 HD
ENDBRANCH  48  49
ENDBRANCH  44  48
ENDBRANCH  43  44
ENDBRANCH  42  43
ENDBRANCH  40  42
ENDBRANCH  38  40
ENDBRANCH  37  38
ENDBRANCH  36  37
ENDBRANCH  34  36
ENDBRANCH  32  34
ENDBRANCH   1  32
TORSDOF 18
ENDMDL
MODEL 3
REMARK VINA RESULT: -8.301225115      5.957      9.783
REMARK  18 active torsions:
REMARK  status: ('A' for Active; 'I' for Inactive)
REMARK    1  A    between atoms: C2_2  and  C3_3 
REMARK    2  A    between atoms: C2_2  and  C8_12 
REMARK    3  A    between atoms: C3_3  and  C4_4 
REMARK    4  A    between atoms: C4_4  and  C5_5 
REMARK    5  A    between atoms: C5_5  and  O1_7 
REMARK    6  A    between atoms: C5_5  and  C7_9 
REMARK    7  A    between atoms: C7_9  and  O2_10 
REMARK    8  A    between atoms: C8_12  and  C9_14 
REMARK    9  A    between atoms: C9_14  and  C10_15 
REMARK   10  A    between atoms: C10_15  and  C11_16 
REMARK   11  A    between atoms: C11_16  and  C13_18 
REMARK   12  A    between atoms: C13_18  and  C15_20 
REMARK   13  A    between atoms: C21_26  and  O4_27 
REMARK   14  A    between atoms: O4_27  and  C22_28 
REMARK   15  A    between atoms: C26_34  and  O7_35 
REMARK   16  A    between atoms: C28_38  and  O8_39 
REMARK   17  A    between atoms: C29_41  and  O9_42 
REMARK   18  A    between atoms: C30_44  and  O10_45 
ROOT
HETATM    1  C15 UNL     1      26.754   4.875  22.229  1.00  0.00    -0.002 C 
HETATM    2  C16 UNL     1      25.760   3.663  22.170  1.00  0.00     0.006 C 
HETATM    3  C17 UNL     1      26.332   2.744  21.114  1.00  0.00     0.006 C 
HETATM    4  C18 UNL     1      27.654   3.359  20.810  1.00  0.00     0.000 C 
HETATM    5  C19 UNL     1      28.656   2.540  20.143  1.00  0.00     0.015 C 
HETATM    6  C20 UNL     1      28.450   1.068  20.440  1.00  0.00     0.013 C 
HETATM    7  C21 UNL     1      30.081   2.939  20.316  1.00  0.00     0.129 C 
HETATM    8  C31 UNL     1      30.369   3.672  21.575  1.00  0.00     0.033 C 
HETATM    9  C32 UNL     1      29.292   4.634  22.002  1.00  0.00     0.012 C 
HETATM   10  C33 UNL     1      28.000   3.978  22.169  1.00  0.00    -0.036 C 
HETATM   11  C34 UNL     1      27.892   3.002  23.286  1.00  0.00     0.016 C 
ENDROOT
BRANCH   7  12
HETATM   12  O4  UNL     1      30.666   3.587  19.279  1.00  0.00    -0.353 OA
BRANCH  12  13
HETATM   13  C22 UNL     1      29.928   4.151  18.304  1.00  0.00     0.294 C 
HETATM   14  O5  UNL     1      29.639   5.476  18.721  1.00  0.00    -0.328 OA
HETATM   15  C23 UNL     1      28.680   6.082  17.996  1.00  0.00     0.272 C 
HETATM   16  O6  UNL     1      27.407   6.106  18.569  1.00  0.00    -0.353 OA
HETATM   17  C27 UNL     1      28.386   5.590  16.631  1.00  0.00     0.104 C 
HETATM   18  C24 UNL     1      26.718   6.921  17.642  1.00  0.00     0.150 C 
HETATM   19  C25 UNL     1      27.085   8.370  17.823  1.00  0.00     0.042 C 
HETATM   20  C26 UNL     1      27.202   6.506  16.266  1.00  0.00     0.158 C 
HETATM   21  C28 UNL     1      29.523   5.794  15.692  1.00  0.00     0.161 C 
HETATM   22  C29 UNL     1      30.806   5.550  16.412  1.00  0.00     0.181 C 
HETATM   23  C30 UNL     1      30.752   4.177  17.038  1.00  0.00     0.204 C 
BRANCH  20  24
HETATM   24  O7  UNL     1      26.237   5.839  15.551  1.00  0.00    -0.392 OA
ATOM     25  H7  UNL     1      25.404   5.810  16.007  1.00  0.00     0.210 HD
ENDBRANCH  20  24
BRANCH  21  26
HETATM   26  O8  UNL     1      29.490   7.015  15.028  1.00  0.00    -0.392 OA
ATOM     27  H8  UNL     1      29.768   7.749  15.562  1.00  0.00     0.210 HD
ENDBRANCH  21  26
BRANCH  22  28
HETATM   28  O9  UNL     1      31.219   6.539  17.261  1.00  0.00    -0.390 OA
ATOM     29  H9  UNL     1      31.071   7.430  16.969  1.00  0.00     0.210 HD
ENDBRANCH  22  28
BRANCH  23  30
HETATM   30  O10 UNL     1      32.104   3.850  17.307  1.00  0.00    -0.388 OA
ATOM     31  H10 UNL     1      32.633   4.636  17.389  1.00  0.00     0.210 HD
ENDBRANCH  23  30
ENDBRANCH  12  13
ENDBRANCH   7  12
BRANCH   1  32
HETATM   32  C13 UNL     1      26.548   5.634  23.478  1.00  0.00    -0.010 C 
HETATM   33  C14 UNL     1      26.952   7.075  23.255  1.00  0.00     0.011 C 
BRANCH  32  34
HETATM   34  C11 UNL     1      25.087   5.664  23.895  1.00  0.00    -0.014 C 
HETATM   35  C12 UNL     1      24.374   6.851  23.231  1.00  0.00     0.010 C 
BRANCH  34  36
HETATM   36  C10 UNL     1      24.750   5.675  25.307  1.00  0.00     0.012 C 
BRANCH  36  37
HETATM   37  C9  UNL     1      25.561   5.066  26.359  1.00  0.00     0.084 C 
BRANCH  37  38
HETATM   38  C8  UNL     1      25.342   5.774  27.683  1.00  0.00     0.154 C 
HETATM   39  O3  UNL     1      24.244   6.353  27.866  1.00  0.00    -0.293 OA
BRANCH  38  40
HETATM   40  C2  UNL     1      26.351   5.795  28.717  1.00  0.00    -0.022 C 
HETATM   41  C1  UNL     1      27.623   5.605  28.388  1.00  0.00     0.022 C 
BRANCH  40  42
HETATM   42  C3  UNL     1      26.064   6.101  30.112  1.00  0.00     0.044 C 
BRANCH  42  43
HETATM   43  C4  UNL     1      26.284   7.477  30.551  1.00  0.00     0.044 C 
BRANCH  43  44
HETATM   44  C5  UNL     1      25.196   8.371  30.979  1.00  0.00     0.075 C 
HETATM   45  C6  UNL     1      24.008   7.729  31.618  1.00  0.00     0.048 C 
BRANCH  44  46
HETATM   46  O1  UNL     1      24.660   8.856  29.692  1.00  0.00    -0.388 OA
ATOM     47  H1  UNL     1      24.951   9.761  29.678  1.00  0.00     0.210 HD
ENDBRANCH  44  46
BRANCH  44  48
HETATM   48  C7  UNL     1      25.593   9.660  31.647  1.00  0.00     0.201 C 
BRANCH  48  49
HETATM   49  O2  UNL     1      24.716  10.691  31.223  1.00  0.00    -0.398 OA
ATOM     50  H2  UNL     1      24.338  10.450  30.386  1.00  0.00     0.209 HD
ENDBRANCH  48  49
ENDBRANCH  44  48
ENDBRANCH  43  44
ENDBRANCH  42  43
ENDBRANCH  40  42
ENDBRANCH  38  40
ENDBRANCH  37  38
ENDBRANCH  36  37
ENDBRANCH  34  36
ENDBRANCH  32  34
ENDBRANCH   1  32
TORSDOF 18
ENDMDL
MODEL 4
REMARK VINA RESULT: -8.251866194      1.797      2.897
REMARK  18 active torsions:
REMARK  status: ('A' for Active; 'I' for Inactive)
REMARK    1  A    between atoms: C2_2  and  C3_3 
REMARK    2  A    between atoms: C2_2  and  C8_12 
REMARK    3  A    between atoms: C3_3  and  C4_4 
REMARK    4  A    between atoms: C4_4  and  C5_5 
REMARK    5  A    between atoms: C5_5  and  O1_7 
REMARK    6  A    between atoms: C5_5  and  C7_9 
REMARK    7  A    between atoms: C7_9  and  O2_10 
REMARK    8  A    between atoms: C8_12  and  C9_14 
REMARK    9  A    between atoms: C9_14  and  C10_15 
REMARK   10  A    between atoms: C10_15  and  C11_16 
REMARK   11  A    between atoms: C11_16  and  C13_18 
REMARK   12  A    between atoms: C13_18  and  C15_20 
REMARK   13  A    between atoms: C21_26  and  O4_27 
REMARK   14  A    between atoms: O4_27  and  C22_28 
REMARK   15  A    between atoms: C26_34  and  O7_35 
REMARK   16  A    between atoms: C28_38  and  O8_39 
REMARK   17  A    between atoms: C29_41  and  O9_42 
REMARK   18  A    between atoms: C30_44  and  O10_45 
ROOT
HETATM    1  C15 UNL     1      23.955  11.287  22.256  1.00  0.00    -0.002 C 
HETATM    2  C16 UNL     1      25.374  11.488  21.617  1.00  0.00     0.006 C 
HETATM    3  C17 UNL     1      25.335  12.876  21.017  1.00  0.00     0.006 C 
HETATM    4  C18 UNL     1      24.041  13.421  21.512  1.00  0.00     0.000 C 
HETATM    5  C19 UNL     1      23.845  14.864  21.475  1.00  0.00     0.015 C 
HETATM    6  C20 UNL     1      25.167  15.600  21.558  1.00  0.00     0.013 C 
HETATM    7  C21 UNL     1      22.841  15.435  22.417  1.00  0.00     0.129 C 
HETATM    8  C31 UNL     1      22.629  14.638  23.652  1.00  0.00     0.033 C 
HETATM    9  C32 UNL     1      22.666  13.146  23.452  1.00  0.00     0.012 C 
HETATM   10  C33 UNL     1      23.920  12.699  22.858  1.00  0.00    -0.036 C 
HETATM   11  C34 UNL     1      25.140  12.848  23.697  1.00  0.00     0.016 C 
ENDROOT
BRANCH   7  12
HETATM   12  O4  UNL     1      21.637  15.776  21.895  1.00  0.00    -0.353 OA
BRANCH  12  13
HETATM   13  C22 UNL     1      20.493  15.262  22.385  1.00  0.00     0.294 C 
HETATM   14  O5  UNL     1      19.911  16.262  23.206  1.00  0.00    -0.328 OA
HETATM   15  C23 UNL     1      18.913  15.814  23.991  1.00  0.00     0.272 C 
HETATM   16  O6  UNL     1      19.253  15.560  25.322  1.00  0.00    -0.353 OA
HETATM   17  C27 UNL     1      18.202  14.570  23.619  1.00  0.00     0.104 C 
HETATM   18  C24 UNL     1      17.981  15.266  25.865  1.00  0.00     0.150 C 
HETATM   19  C25 UNL     1      17.178  16.523  26.063  1.00  0.00     0.042 C 
HETATM   20  C26 UNL     1      17.255  14.431  24.827  1.00  0.00     0.158 C 
HETATM   21  C28 UNL     1      17.431  14.709  22.353  1.00  0.00     0.161 C 
HETATM   22  C29 UNL     1      18.203  15.551  21.395  1.00  0.00     0.181 C 
HETATM   23  C30 UNL     1      19.577  14.948  21.225  1.00  0.00     0.204 C 
BRANCH  20  24
HETATM   24  O7  UNL     1      17.108  13.122  25.217  1.00  0.00    -0.392 OA
ATOM     25  H7  UNL     1      17.782  12.559  24.856  1.00  0.00     0.210 HD
ENDBRANCH  20  24
BRANCH  21  26
HETATM   26  O8  UNL     1      16.124  15.146  22.538  1.00  0.00    -0.392 OA
ATOM     27  H8  UNL     1      15.469  14.482  22.360  1.00  0.00     0.210 HD
ENDBRANCH  21  26
BRANCH  22  28
HETATM   28  O9  UNL     1      18.206  16.896  21.640  1.00  0.00    -0.390 OA
ATOM     29  H9  UNL     1      17.578  17.206  22.282  1.00  0.00     0.210 HD
ENDBRANCH  22  28
BRANCH  23  30
HETATM   30  O10 UNL     1      20.071  15.511  20.023  1.00  0.00    -0.388 OA
ATOM     31  H10 UNL     1      21.015  15.619  20.063  1.00  0.00     0.210 HD
ENDBRANCH  23  30
ENDBRANCH  12  13
ENDBRANCH   7  12
BRANCH   1  32
HETATM   32  C13 UNL     1      23.989  10.163  23.213  1.00  0.00    -0.010 C 
HETATM   33  C14 UNL     1      22.600   9.946  23.772  1.00  0.00     0.011 C 
BRANCH  32  34
HETATM   34  C11 UNL     1      24.386   8.856  22.547  1.00  0.00    -0.014 C 
HETATM   35  C12 UNL     1      23.131   8.078  22.124  1.00  0.00     0.010 C 
BRANCH  34  36
HETATM   36  C10 UNL     1      25.265   7.938  23.249  1.00  0.00     0.012 C 
BRANCH  36  37
HETATM   37  C9  UNL     1      24.813   6.788  24.028  1.00  0.00     0.084 C 
BRANCH  37  38
HETATM   38  C8  UNL     1      25.841   6.416  25.081  1.00  0.00     0.154 C 
HETATM   39  O3  UNL     1      26.948   7.004  25.055  1.00  0.00    -0.293 OA
BRANCH  38  40
HETATM   40  C2  UNL     1      25.575   5.419  26.092  1.00  0.00    -0.022 C 
HETATM   41  C1  UNL     1      25.823   4.141  25.828  1.00  0.00     0.022 C 
BRANCH  40  42
HETATM   42  C3  UNL     1      25.123   5.744  27.439  1.00  0.00     0.044 C 
BRANCH  42  43
HETATM   43  C4  UNL     1      26.097   5.606  28.520  1.00  0.00     0.044 C 
BRANCH  43  44
HETATM   44  C5  UNL     1      26.093   6.456  29.722  1.00  0.00     0.075 C 
HETATM   45  C6  UNL     1      27.330   7.248  29.992  1.00  0.00     0.048 C 
BRANCH  44  46
HETATM   46  O1  UNL     1      26.090   5.461  30.813  1.00  0.00    -0.388 OA
ATOM     47  H1  UNL     1      26.280   5.995  31.576  1.00  0.00     0.210 HD
ENDBRANCH  44  46
BRANCH  44  48
HETATM   48  C7  UNL     1      24.832   7.226  30.010  1.00  0.00     0.201 C 
BRANCH  48  49
HETATM   49  O2  UNL     1      24.537   7.129  31.394  1.00  0.00    -0.398 OA
ATOM     50  H2  UNL     1      23.919   7.812  31.627  1.00  0.00     0.209 HD
ENDBRANCH  48  49
ENDBRANCH  44  48
ENDBRANCH  43  44
ENDBRANCH  42  43
ENDBRANCH  40  42
ENDBRANCH  38  40
ENDBRANCH  37  38
ENDBRANCH  36  37
ENDBRANCH  34  36
ENDBRANCH  32  34
ENDBRANCH   1  32
TORSDOF 18
ENDMDL
MODEL 5
REMARK VINA RESULT: -8.003602551      6.158     10.075
REMARK  18 active torsions:
REMARK  status: ('A' for Active; 'I' for Inactive)
REMARK    1  A    between atoms: C2_2  and  C3_3 
REMARK    2  A    between atoms: C2_2  and  C8_12 
REMARK    3  A    between atoms: C3_3  and  C4_4 
REMARK    4  A    between atoms: C4_4  and  C5_5 
REMARK    5  A    between atoms: C5_5  and  O1_7 
REMARK    6  A    between atoms: C5_5  and  C7_9 
REMARK    7  A    between atoms: C7_9  and  O2_10 
REMARK    8  A    between atoms: C8_12  and  C9_14 
REMARK    9  A    between atoms: C9_14  and  C10_15 
REMARK   10  A    between atoms: C10_15  and  C11_16 
REMARK   11  A    between atoms: C11_16  and  C13_18 
REMARK   12  A    between atoms: C13_18  and  C15_20 
REMARK   13  A    between atoms: C21_26  and  O4_27 
REMARK   14  A    between atoms: O4_27  and  C22_28 
REMARK   15  A    between atoms: C26_34  and  O7_35 
REMARK   16  A    between atoms: C28_38  and  O8_39 
REMARK   17  A    between atoms: C29_41  and  O9_42 
REMARK   18  A    between atoms: C30_44  and  O10_45 
ROOT
HETATM    1  C15 UNL     1      26.609   5.502  22.541  1.00  0.00    -0.002 C 
HETATM    2  C16 UNL     1      26.492   6.985  23.041  1.00  0.00     0.006 C 
HETATM    3  C17 UNL     1      26.919   7.827  21.860  1.00  0.00     0.006 C 
HETATM    4  C18 UNL     1      27.040   6.829  20.761  1.00  0.00     0.000 C 
HETATM    5  C19 UNL     1      27.039   7.317  19.388  1.00  0.00     0.015 C 
HETATM    6  C20 UNL     1      26.286   8.627  19.271  1.00  0.00     0.013 C 
HETATM    7  C21 UNL     1      26.629   6.352  18.328  1.00  0.00     0.129 C 
HETATM    8  C31 UNL     1      25.708   5.282  18.789  1.00  0.00     0.033 C 
HETATM    9  C32 UNL     1      25.997   4.757  20.170  1.00  0.00     0.012 C 
HETATM   10  C33 UNL     1      25.973   5.811  21.178  1.00  0.00    -0.036 C 
HETATM   11  C34 UNL     1      24.653   6.444  21.443  1.00  0.00     0.016 C 
ENDROOT
BRANCH   7  12
HETATM   12  O4  UNL     1      27.620   5.800  17.587  1.00  0.00    -0.353 OA
BRANCH  12  13
HETATM   13  C22 UNL     1      28.797   5.456  18.142  1.00  0.00     0.294 C 
HETATM   14  O5  UNL     1      28.828   4.038  18.195  1.00  0.00    -0.328 OA
HETATM   15  C23 UNL     1      29.808   3.540  18.974  1.00  0.00     0.272 C 
HETATM   16  O6  UNL     1      29.419   3.128  20.250  1.00  0.00    -0.353 OA
HETATM   17  C27 UNL     1      30.990   4.379  19.275  1.00  0.00     0.104 C 
HETATM   18  C24 UNL     1      30.620   2.542  20.712  1.00  0.00     0.150 C 
HETATM   19  C25 UNL     1      30.835   1.191  20.084  1.00  0.00     0.042 C 
HETATM   20  C26 UNL     1      31.745   3.441  20.236  1.00  0.00     0.158 C 
HETATM   21  C28 UNL     1      31.807   4.669  18.065  1.00  0.00     0.161 C 
HETATM   22  C29 UNL     1      30.903   4.884  16.899  1.00  0.00     0.181 C 
HETATM   23  C30 UNL     1      29.909   5.963  17.254  1.00  0.00     0.204 C 
BRANCH  20  24
HETATM   24  O7  UNL     1      32.338   4.129  21.266  1.00  0.00    -0.392 OA
ATOM     25  H7  UNL     1      33.279   4.005  21.290  1.00  0.00     0.210 HD
ENDBRANCH  20  24
BRANCH  21  26
HETATM   26  O8  UNL     1      32.803   3.729  17.822  1.00  0.00    -0.392 OA
ATOM     27  H8  UNL     1      33.683   4.076  17.897  1.00  0.00     0.210 HD
ENDBRANCH  21  26
BRANCH  22  28
HETATM   28  O9  UNL     1      30.343   3.761  16.354  1.00  0.00    -0.390 OA
ATOM     29  H9  UNL     1      30.374   2.976  16.888  1.00  0.00     0.210 HD
ENDBRANCH  22  28
BRANCH  23  30
HETATM   30  O10 UNL     1      29.400   6.408  16.009  1.00  0.00    -0.388 OA
ATOM     31  H10 UNL     1      30.077   6.837  15.499  1.00  0.00     0.210 HD
ENDBRANCH  23  30
ENDBRANCH  12  13
ENDBRANCH   7  12
BRANCH   1  32
HETATM   32  C13 UNL     1      25.848   4.608  23.437  1.00  0.00    -0.010 C 
HETATM   33  C14 UNL     1      26.169   3.171  23.091  1.00  0.00     0.011 C 
BRANCH  32  34
HETATM   34  C11 UNL     1      26.236   4.791  24.894  1.00  0.00    -0.014 C 
HETATM   35  C12 UNL     1      26.628   3.439  25.508  1.00  0.00     0.010 C 
BRANCH  34  36
HETATM   36  C10 UNL     1      25.309   5.441  25.802  1.00  0.00     0.012 C 
BRANCH  36  37
HETATM   37  C9  UNL     1      24.933   4.925  27.116  1.00  0.00     0.084 C 
BRANCH  37  38
HETATM   38  C8  UNL     1      25.128   5.984  28.185  1.00  0.00     0.154 C 
HETATM   39  O3  UNL     1      24.262   6.885  28.284  1.00  0.00    -0.293 OA
BRANCH  38  40
HETATM   40  C2  UNL     1      26.269   5.976  29.072  1.00  0.00    -0.022 C 
HETATM   41  C1  UNL     1      27.462   5.640  28.596  1.00  0.00     0.022 C 
BRANCH  40  42
HETATM   42  C3  UNL     1      26.204   6.403  30.464  1.00  0.00     0.044 C 
BRANCH  42  43
HETATM   43  C4  UNL     1      26.265   7.840  30.723  1.00  0.00     0.044 C 
BRANCH  43  44
HETATM   44  C5  UNL     1      25.233   8.567  31.480  1.00  0.00     0.075 C 
HETATM   45  C6  UNL     1      23.890   7.920  31.582  1.00  0.00     0.048 C 
BRANCH  44  46
HETATM   46  O1  UNL     1      24.973   9.737  30.617  1.00  0.00    -0.388 OA
ATOM     47  H1  UNL     1      24.031   9.697  30.497  1.00  0.00     0.210 HD
ENDBRANCH  44  46
BRANCH  44  48
HETATM   48  C7  UNL     1      25.663   9.227  32.762  1.00  0.00     0.201 C 
BRANCH  48  49
HETATM   49  O2  UNL     1      25.541   8.297  33.825  1.00  0.00    -0.398 OA
ATOM     50  H2  UNL     1      25.788   8.721  34.639  1.00  0.00     0.209 HD
ENDBRANCH  48  49
ENDBRANCH  44  48
ENDBRANCH  43  44
ENDBRANCH  42  43
ENDBRANCH  40  42
ENDBRANCH  38  40
ENDBRANCH  37  38
ENDBRANCH  36  37
ENDBRANCH  34  36
ENDBRANCH  32  34
ENDBRANCH   1  32
TORSDOF 18
ENDMDL
