MODEL 1
REMARK VINA RESULT: -7.805090070      0.000      0.000
REMARK  9 active torsions:
REMARK  status: ('A' for Active; 'I' for Inactive)
REMARK    1  A    between atoms: C1_4  and  N2_5 
REMARK    2  A    between atoms: C1_4  and  C2_10 
REMARK    3  A    between atoms: N2_5  and  N3_7 
REMARK    4  A    between atoms: C2_10  and  O1_11 
REMARK    5  A    between atoms: C2_10  and  C7_22 
REMARK    6  A    between atoms: O1_11  and  C3_12 
REMARK    7  A    between atoms: C3_12  and  C4_13 
REMARK    8  A    between atoms: C4_13  and  C5_14 
REMARK    9  A    between atoms: N4_15  and  N5_17 
ROOT
HETATM    1  C2  UNL     1      32.760  -9.908  26.727  1.00  0.00     0.224 C 
ENDROOT
BRANCH   1   2
HETATM    2  C1  UNL     1      34.099  -9.681  26.049  1.00  0.00     0.123 C 
HETATM    3  N1  UNL     1      34.548  -8.494  25.848  1.00  0.00    -0.385 N 
ATOM      4  H12 UNL     1      35.447  -8.341  25.393  1.00  0.00     0.157 HD
ATOM      5  H11 UNL     1      33.989  -7.706  26.175  1.00  0.00     0.157 HD
BRANCH   2   6
HETATM    6  N2  UNL     1      34.877 -10.777  25.594  1.00  0.00    -0.293 N 
ATOM      7  H2  UNL     1      35.842 -10.620  25.303  1.00  0.00     0.187 HD
BRANCH   6   8
HETATM    8  N3  UNL     1      34.353 -12.052  25.536  1.00  0.00    -0.344 N 
ATOM      9  H32 UNL     1      34.706 -12.689  24.823  1.00  0.00     0.176 HD
ATOM     10  H31 UNL     1      33.630 -12.357  26.188  1.00  0.00     0.176 HD
ENDBRANCH   6   8
ENDBRANCH   2   6
ENDBRANCH   1   2
BRANCH   1  11
HETATM   11  O1  UNL     1      31.751  -9.577  25.850  1.00  0.00    -0.373 OA
BRANCH  11  12
HETATM   12  C3  UNL     1      31.828 -10.142  24.611  1.00  0.00     0.174 C 
BRANCH  12  13
HETATM   13  C4  UNL     1      30.718 -11.078  24.276  1.00  0.00     0.072 C 
BRANCH  13  14
HETATM   14  C5  UNL     1      30.250 -11.900  25.420  1.00  0.00     0.082 C 
HETATM   15  N4  UNL     1      30.164 -13.173  25.259  1.00  0.00    -0.314 N 
ATOM     16  H4  UNL     1      29.844 -13.767  26.024  1.00  0.00     0.185 HD
BRANCH  15  17
HETATM   17  N5  UNL     1      30.509 -13.731  24.039  1.00  0.00    -0.277 N 
HETATM   18  C6  UNL     1      31.514 -14.525  23.972  1.00  0.00     0.215 C 
HETATM   19  N6  UNL     1      32.253 -14.817  25.142  1.00  0.00    -0.065 NA
HETATM   20  N7  UNL     1      31.854 -15.083  22.730  1.00  0.00    -0.065 NA
ATOM     21  H5  UNL     1      29.969 -13.512  23.201  1.00  0.00     0.189 HD
ENDBRANCH  15  17
ENDBRANCH  13  14
ENDBRANCH  12  13
ENDBRANCH  11  12
ENDBRANCH   1  11
BRANCH   1  22
HETATM   22  C7  UNL     1      32.689  -9.049  27.926  1.00  0.00    -0.000 A 
HETATM   23  C8  UNL     1      31.756  -8.012  27.994  1.00  0.00     0.013 A 
HETATM   24  C9  UNL     1      31.632  -7.222  29.084  1.00  0.00     0.024 A 
HETATM   25  C10 UNL     1      32.433  -7.407  30.194  1.00  0.00     0.035 A 
HETATM   26 CL1  UNL     1      32.228  -6.354  31.577  1.00  0.00    -0.084 Cl
HETATM   27  C11 UNL     1      33.369  -8.419  30.174  1.00  0.00     0.048 A 
HETATM   28  C12 UNL     1      33.477  -9.223  29.032  1.00  0.00     0.044 A 
HETATM   29 CL2  UNL     1      34.712 -10.489  29.071  1.00  0.00    -0.084 Cl
ENDBRANCH   1  22
TORSDOF 9
ENDMDL
MODEL 2
REMARK VINA RESULT: -7.708460175      1.509      2.012
REMARK  9 active torsions:
REMARK  status: ('A' for Active; 'I' for Inactive)
REMARK    1  A    between atoms: C1_4  and  N2_5 
REMARK    2  A    between atoms: C1_4  and  C2_10 
REMARK    3  A    between atoms: N2_5  and  N3_7 
REMARK    4  A    between atoms: C2_10  and  O1_11 
REMARK    5  A    between atoms: C2_10  and  C7_22 
REMARK    6  A    between atoms: O1_11  and  C3_12 
REMARK    7  A    between atoms: C3_12  and  C4_13 
REMARK    8  A    between atoms: C4_13  and  C5_14 
REMARK    9  A    between atoms: N4_15  and  N5_17 
ROOT
HETATM    1  C2  UNL     1      32.209 -10.335  26.550  1.00  0.00     0.224 C 
ENDROOT
BRANCH   1   2
HETATM    2  C1  UNL     1      32.952  -9.717  25.378  1.00  0.00     0.123 C 
HETATM    3  N1  UNL     1      32.362  -9.510  24.255  1.00  0.00    -0.385 N 
ATOM      4  H12 UNL     1      32.860  -9.094  23.468  1.00  0.00     0.157 HD
ATOM      5  H11 UNL     1      31.375  -9.753  24.177  1.00  0.00     0.157 HD
BRANCH   2   6
HETATM    6  N2  UNL     1      34.325  -9.378  25.487  1.00  0.00    -0.293 N 
ATOM      7  H2  UNL     1      34.587  -8.455  25.833  1.00  0.00     0.187 HD
BRANCH   6   8
HETATM    8  N3  UNL     1      35.314 -10.273  25.136  1.00  0.00    -0.344 N 
ATOM      9  H32 UNL     1      35.078 -11.265  25.100  1.00  0.00     0.176 HD
ATOM     10  H31 UNL     1      36.259  -9.960  24.917  1.00  0.00     0.176 HD
ENDBRANCH   6   8
ENDBRANCH   2   6
ENDBRANCH   1   2
BRANCH   1  11
HETATM   11  O1  UNL     1      30.899 -10.549  26.187  1.00  0.00    -0.373 OA
BRANCH  11  12
HETATM   12  C3  UNL     1      30.510 -11.853  26.096  1.00  0.00     0.174 C 
BRANCH  12  13
HETATM   13  C4  UNL     1      30.496 -12.410  24.713  1.00  0.00     0.072 C 
BRANCH  13  14
HETATM   14  C5  UNL     1      31.058 -13.780  24.604  1.00  0.00     0.082 C 
HETATM   15  N4  UNL     1      32.262 -13.910  24.174  1.00  0.00    -0.314 N 
ATOM     16  H4  UNL     1      32.678 -14.837  24.086  1.00  0.00     0.185 HD
BRANCH  15  17
HETATM   17  N5  UNL     1      32.990 -12.782  23.833  1.00  0.00    -0.277 N 
HETATM   18  C6  UNL     1      33.551 -12.720  22.681  1.00  0.00     0.215 C 
HETATM   19  N6  UNL     1      33.418 -13.802  21.780  1.00  0.00    -0.065 NA
HETATM   20  N7  UNL     1      34.286 -11.572  22.347  1.00  0.00    -0.065 NA
ATOM     21  H5  UNL     1      33.080 -12.008  24.491  1.00  0.00     0.189 HD
ENDBRANCH  15  17
ENDBRANCH  13  14
ENDBRANCH  12  13
ENDBRANCH  11  12
ENDBRANCH   1  11
BRANCH   1  22
HETATM   22  C7  UNL     1      32.272  -9.400  27.691  1.00  0.00    -0.000 A 
HETATM   23  C8  UNL     1      31.321  -8.386  27.822  1.00  0.00     0.013 A 
HETATM   24  C9  UNL     1      31.319  -7.529  28.868  1.00  0.00     0.024 A 
HETATM   25  C10 UNL     1      32.269  -7.619  29.867  1.00  0.00     0.035 A 
HETATM   26 CL1  UNL     1      32.217  -6.482  31.196  1.00  0.00    -0.084 Cl
HETATM   27  C11 UNL     1      33.229  -8.604  29.780  1.00  0.00     0.048 A 
HETATM   28  C12 UNL     1      33.209  -9.480  28.687  1.00  0.00     0.044 A 
HETATM   29 CL2  UNL     1      34.481 -10.708  28.634  1.00  0.00    -0.084 Cl
ENDBRANCH   1  22
TORSDOF 9
ENDMDL
MODEL 3
REMARK VINA RESULT: -7.510770549      2.800      3.999
REMARK  9 active torsions:
REMARK  status: ('A' for Active; 'I' for Inactive)
REMARK    1  A    between atoms: C1_4  and  N2_5 
REMARK    2  A    between atoms: C1_4  and  C2_10 
REMARK    3  A    between atoms: N2_5  and  N3_7 
REMARK    4  A    between atoms: C2_10  and  O1_11 
REMARK    5  A    between atoms: C2_10  and  C7_22 
REMARK    6  A    between atoms: O1_11  and  C3_12 
REMARK    7  A    between atoms: C3_12  and  C4_13 
REMARK    8  A    between atoms: C4_13  and  C5_14 
REMARK    9  A    between atoms: N4_15  and  N5_17 
ROOT
HETATM    1  C2  UNL     1      33.943 -10.973  24.733  1.00  0.00     0.224 C 
ENDROOT
BRANCH   1   2
HETATM    2  C1  UNL     1      32.875 -11.900  24.180  1.00  0.00     0.123 C 
HETATM    3  N1  UNL     1      32.202 -11.585  23.131  1.00  0.00    -0.385 N 
ATOM      4  H12 UNL     1      31.485 -12.207  22.760  1.00  0.00     0.157 HD
ATOM      5  H11 UNL     1      32.419 -10.703  22.667  1.00  0.00     0.157 HD
BRANCH   2   6
HETATM    6  N2  UNL     1      32.574 -13.126  24.827  1.00  0.00    -0.293 N 
ATOM      7  H2  UNL     1      33.273 -13.559  25.430  1.00  0.00     0.187 HD
BRANCH   6   8
HETATM    8  N3  UNL     1      31.353 -13.745  24.656  1.00  0.00    -0.344 N 
ATOM      9  H32 UNL     1      30.512 -13.246  24.946  1.00  0.00     0.176 HD
ATOM     10  H31 UNL     1      31.284 -14.679  24.252  1.00  0.00     0.176 HD
ENDBRANCH   6   8
ENDBRANCH   2   6
ENDBRANCH   1   2
BRANCH   1  11
HETATM   11  O1  UNL     1      34.947 -11.730  25.293  1.00  0.00    -0.373 OA
BRANCH  11  12
HETATM   12  C3  UNL     1      36.164 -11.653  24.684  1.00  0.00     0.174 C 
BRANCH  12  13
HETATM   13  C4  UNL     1      36.128 -11.715  23.195  1.00  0.00     0.072 C 
BRANCH  13  14
HETATM   14  C5  UNL     1      36.864 -12.867  22.616  1.00  0.00     0.082 C 
HETATM   15  N4  UNL     1      36.183 -13.811  22.071  1.00  0.00    -0.314 N 
ATOM     16  H4  UNL     1      36.657 -14.618  21.665  1.00  0.00     0.185 HD
BRANCH  15  17
HETATM   17  N5  UNL     1      34.800 -13.725  22.040  1.00  0.00    -0.277 N 
HETATM   18  C6  UNL     1      34.103 -14.801  22.013  1.00  0.00     0.215 C 
HETATM   19  N6  UNL     1      34.755 -16.056  22.013  1.00  0.00    -0.065 NA
HETATM   20  N7  UNL     1      32.704 -14.700  21.982  1.00  0.00    -0.065 NA
ATOM     21  H5  UNL     1      34.341 -12.814  22.040  1.00  0.00     0.189 HD
ENDBRANCH  15  17
ENDBRANCH  13  14
ENDBRANCH  12  13
ENDBRANCH  11  12
ENDBRANCH   1  11
BRANCH   1  22
HETATM   22  C7  UNL     1      33.329 -10.109  25.760  1.00  0.00    -0.000 A 
HETATM   23  C8  UNL     1      32.022 -10.348  26.190  1.00  0.00     0.013 A 
HETATM   24  C9  UNL     1      31.431  -9.605  27.152  1.00  0.00     0.024 A 
HETATM   25  C10 UNL     1      32.101  -8.561  27.761  1.00  0.00     0.035 A 
HETATM   26 CL1  UNL     1      31.285  -7.633  29.001  1.00  0.00    -0.084 Cl
HETATM   27  C11 UNL     1      33.394  -8.287  27.370  1.00  0.00     0.048 A 
HETATM   28  C12 UNL     1      33.983  -9.072  26.371  1.00  0.00     0.044 A 
HETATM   29 CL2  UNL     1      35.638  -8.651  25.907  1.00  0.00    -0.084 Cl
ENDBRANCH   1  22
TORSDOF 9
ENDMDL
MODEL 4
REMARK VINA RESULT: -7.441519980      1.234      1.578
REMARK  9 active torsions:
REMARK  status: ('A' for Active; 'I' for Inactive)
REMARK    1  A    between atoms: C1_4  and  N2_5 
REMARK    2  A    between atoms: C1_4  and  C2_10 
REMARK    3  A    between atoms: N2_5  and  N3_7 
REMARK    4  A    between atoms: C2_10  and  O1_11 
REMARK    5  A    between atoms: C2_10  and  C7_22 
REMARK    6  A    between atoms: O1_11  and  C3_12 
REMARK    7  A    between atoms: C3_12  and  C4_13 
REMARK    8  A    between atoms: C4_13  and  C5_14 
REMARK    9  A    between atoms: N4_15  and  N5_17 
ROOT
HETATM    1  C2  UNL     1      32.725 -10.001  26.862  1.00  0.00     0.224 C 
ENDROOT
BRANCH   1   2
HETATM    2  C1  UNL     1      33.895  -9.555  26.003  1.00  0.00     0.123 C 
HETATM    3  N1  UNL     1      34.086  -8.313  25.736  1.00  0.00    -0.385 N 
ATOM      4  H12 UNL     1      34.872  -8.013  25.159  1.00  0.00     0.157 HD
ATOM      5  H11 UNL     1      33.441  -7.630  26.134  1.00  0.00     0.157 HD
BRANCH   2   6
HETATM    6  N2  UNL     1      34.792 -10.505  25.450  1.00  0.00    -0.293 N 
ATOM      7  H2  UNL     1      35.513 -10.193  24.800  1.00  0.00     0.187 HD
BRANCH   6   8
HETATM    8  N3  UNL     1      34.707 -11.843  25.774  1.00  0.00    -0.344 N 
ATOM      9  H32 UNL     1      34.295 -12.099  26.672  1.00  0.00     0.176 HD
ATOM     10  H31 UNL     1      35.045 -12.565  25.138  1.00  0.00     0.176 HD
ENDBRANCH   6   8
ENDBRANCH   2   6
ENDBRANCH   1   2
BRANCH   1  11
HETATM   11  O1  UNL     1      31.572  -9.945  26.113  1.00  0.00    -0.373 OA
BRANCH  11  12
HETATM   12  C3  UNL     1      30.912 -11.127  25.944  1.00  0.00     0.174 C 
BRANCH  12  13
HETATM   13  C4  UNL     1      30.725 -11.546  24.526  1.00  0.00     0.072 C 
BRANCH  13  14
HETATM   14  C5  UNL     1      31.700 -10.947  23.580  1.00  0.00     0.082 C 
HETATM   15  N4  UNL     1      32.556 -11.723  23.016  1.00  0.00    -0.314 N 
ATOM     16  H4  UNL     1      33.241 -11.343  22.363  1.00  0.00     0.185 HD
BRANCH  15  17
HETATM   17  N5  UNL     1      32.540 -13.078  23.304  1.00  0.00    -0.277 N 
HETATM   18  C6  UNL     1      33.131 -13.896  22.511  1.00  0.00     0.215 C 
HETATM   19  N6  UNL     1      33.786 -13.402  21.359  1.00  0.00    -0.065 NA
HETATM   20  N7  UNL     1      33.108 -15.266  22.813  1.00  0.00    -0.065 NA
ATOM     21  H5  UNL     1      32.064 -13.423  24.137  1.00  0.00     0.189 HD
ENDBRANCH  15  17
ENDBRANCH  13  14
ENDBRANCH  12  13
ENDBRANCH  11  12
ENDBRANCH   1  11
BRANCH   1  22
HETATM   22  C7  UNL     1      32.619  -9.090  28.020  1.00  0.00    -0.000 A 
HETATM   23  C8  UNL     1      31.608  -8.129  28.068  1.00  0.00     0.013 A 
HETATM   24  C9  UNL     1      31.452  -7.297  29.123  1.00  0.00     0.024 A 
HETATM   25  C10 UNL     1      32.297  -7.361  30.214  1.00  0.00     0.035 A 
HETATM   26 CL1  UNL     1      32.047  -6.259  31.551  1.00  0.00    -0.084 Cl
HETATM   27  C11 UNL     1      33.311  -8.295  30.212  1.00  0.00     0.048 A 
HETATM   28  C12 UNL     1      33.450  -9.145  29.107  1.00  0.00     0.044 A 
HETATM   29 CL2  UNL     1      34.785 -10.305  29.166  1.00  0.00    -0.084 Cl
ENDBRANCH   1  22
TORSDOF 9
ENDMDL
MODEL 5
REMARK VINA RESULT: -7.436751283      3.651      5.761
REMARK  9 active torsions:
REMARK  status: ('A' for Active; 'I' for Inactive)
REMARK    1  A    between atoms: C1_4  and  N2_5 
REMARK    2  A    between atoms: C1_4  and  C2_10 
REMARK    3  A    between atoms: N2_5  and  N3_7 
REMARK    4  A    between atoms: C2_10  and  O1_11 
REMARK    5  A    between atoms: C2_10  and  C7_22 
REMARK    6  A    between atoms: O1_11  and  C3_12 
REMARK    7  A    between atoms: C3_12  and  C4_13 
REMARK    8  A    between atoms: C4_13  and  C5_14 
REMARK    9  A    between atoms: N4_15  and  N5_17 
ROOT
HETATM    1  C2  UNL     1      32.193 -12.645  23.769  1.00  0.00     0.224 C 
ENDROOT
BRANCH   1   2
HETATM    2  C1  UNL     1      30.870 -12.329  24.445  1.00  0.00     0.123 C 
HETATM    3  N1  UNL     1      30.083 -11.430  23.973  1.00  0.00    -0.385 N 
ATOM      4  H12 UNL     1      29.195 -11.217  24.426  1.00  0.00     0.157 HD
ATOM      5  H11 UNL     1      30.361 -10.946  23.119  1.00  0.00     0.157 HD
BRANCH   2   6
HETATM    6  N2  UNL     1      30.483 -13.002  25.633  1.00  0.00    -0.293 N 
ATOM      7  H2  UNL     1      30.954 -13.869  25.892  1.00  0.00     0.187 HD
BRANCH   6   8
HETATM    8  N3  UNL     1      29.483 -12.508  26.443  1.00  0.00    -0.344 N 
ATOM      9  H32 UNL     1      29.617 -11.592  26.873  1.00  0.00     0.176 HD
ATOM     10  H31 UNL     1      28.629 -13.038  26.614  1.00  0.00     0.176 HD
ENDBRANCH   6   8
ENDBRANCH   2   6
ENDBRANCH   1   2
BRANCH   1  11
HETATM   11  O1  UNL     1      32.532 -13.952  24.038  1.00  0.00    -0.373 OA
BRANCH  11  12
HETATM   12  C3  UNL     1      32.139 -14.873  23.113  1.00  0.00     0.174 C 
BRANCH  12  13
HETATM   13  C4  UNL     1      33.215 -15.341  22.193  1.00  0.00     0.072 C 
BRANCH  13  14
HETATM   14  C5  UNL     1      32.742 -16.242  21.113  1.00  0.00     0.082 C 
HETATM   15  N4  UNL     1      33.439 -17.289  20.845  1.00  0.00    -0.314 N 
ATOM     16  H4  UNL     1      33.143 -17.929  20.108  1.00  0.00     0.185 HD
BRANCH  15  17
HETATM   17  N5  UNL     1      34.595 -17.541  21.567  1.00  0.00    -0.277 N 
HETATM   18  C6  UNL     1      35.370 -18.494  21.199  1.00  0.00     0.215 C 
HETATM   19  N6  UNL     1      35.034 -19.272  20.067  1.00  0.00    -0.065 NA
HETATM   20  N7  UNL     1      36.538 -18.739  21.938  1.00  0.00    -0.065 NA
ATOM     21  H5  UNL     1      34.827 -16.973  22.382  1.00  0.00     0.189 HD
ENDBRANCH  15  17
ENDBRANCH  13  14
ENDBRANCH  12  13
ENDBRANCH  11  12
ENDBRANCH   1  11
BRANCH   1  22
HETATM   22  C7  UNL     1      33.223 -11.734  24.306  1.00  0.00    -0.000 A 
HETATM   23  C8  UNL     1      33.006 -11.058  25.509  1.00  0.00     0.013 A 
HETATM   24  C9  UNL     1      33.934 -10.242  26.056  1.00  0.00     0.024 A 
HETATM   25  C10 UNL     1      35.155 -10.036  25.442  1.00  0.00     0.035 A 
HETATM   26 CL1  UNL     1      36.318  -8.967  26.197  1.00  0.00    -0.084 Cl
HETATM   27  C11 UNL     1      35.415 -10.682  24.253  1.00  0.00     0.048 A 
HETATM   28  C12 UNL     1      34.437 -11.523  23.708  1.00  0.00     0.044 A 
HETATM   29 CL2  UNL     1      34.833 -12.304  22.170  1.00  0.00    -0.084 Cl
ENDBRANCH   1  22
TORSDOF 9
ENDMDL
