MODEL 1
REMARK VINA RESULT: -7.613127204      0.000      0.000
REMARK  7 active torsions:
REMARK  status: ('A' for Active; 'I' for Inactive)
REMARK    1  A    between atoms: N1_2  and  C2_4 
REMARK    2  A    between atoms: C2_4  and  C3_5 
REMARK    3  A    between atoms: C2_4  and  C4_7 
REMARK    4  A    between atoms: C4_7  and  N2_8 
REMARK    5  A    between atoms: C4_7  and  C12_23 
REMARK       I    between atoms: N2_8  and  C5_10 
REMARK       I    between atoms: C5_10  and  N4_14 
REMARK    6  A    between atoms: N4_14  and  C6_16 
REMARK    7  A    between atoms: C14_28  and  O1_29 
ROOT
HETATM    1  C4  UNL     1      33.882 -11.899  22.922  1.00  0.00     0.179 C 
ENDROOT
BRANCH   1   2
HETATM    2  C2  UNL     1      35.224 -12.147  22.289  1.00  0.00     0.117 C 
BRANCH   2   3
HETATM    3  N1  UNL     1      35.326 -11.594  20.977  1.00  0.00    -0.418 N 
HETATM    4  C1  UNL     1      35.535 -12.503  19.890  1.00  0.00     0.140 C 
ATOM      5  H1  UNL     1      35.252 -10.589  20.819  1.00  0.00     0.153 HD
ENDBRANCH   2   3
BRANCH   2   6
HETATM    6  C3  UNL     1      36.381 -11.943  23.179  1.00  0.00     0.141 C 
HETATM    7 CL1  UNL     1      37.635 -13.156  22.904  1.00  0.00    -0.128 Cl
ENDBRANCH   2   6
ENDBRANCH   1   2
BRANCH   1   8
HETATM    8  N2  UNL     1      34.108 -11.421  24.266  1.00  0.00    -0.215 N 
HETATM    9  C5  UNL     1      33.357 -10.319  24.769  1.00  0.00     0.672 C 
HETATM   10  N3  UNL     1      32.085 -10.251  24.587  1.00  0.00    -0.235 N 
HETATM   11  N4  UNL     1      33.991  -9.279  25.475  1.00  0.00    -0.192 N 
ATOM     12  H32 UNL     1      31.626 -11.005  24.076  1.00  0.00     0.174 HD
ATOM     13  H31 UNL     1      31.547  -9.463  24.947  1.00  0.00     0.174 HD
ATOM     14  H4  UNL     1      34.626  -8.663  24.966  1.00  0.00     0.184 HD
ATOM     15  H2  UNL     1      34.807 -11.873  24.856  1.00  0.00     0.178 HD
BRANCH  11  16
HETATM   16  C6  UNL     1      33.791  -9.044  26.863  1.00  0.00     0.049 A 
HETATM   17  C7  UNL     1      32.657  -8.384  27.312  1.00  0.00     0.033 A 
HETATM   18  C8  UNL     1      32.440  -8.144  28.648  1.00  0.00     0.044 A 
HETATM   19  C9  UNL     1      33.406  -8.592  29.534  1.00  0.00     0.116 A 
HETATM   20  F1  UNL     1      33.247  -8.385  30.870  1.00  0.00    -0.206 F 
HETATM   21  C10 UNL     1      34.535  -9.247  29.115  1.00  0.00     0.044 A 
HETATM   22  C11 UNL     1      34.741  -9.482  27.758  1.00  0.00     0.033 A 
ENDBRANCH  11  16
ENDBRANCH   1   8
BRANCH   1  23
HETATM   23  C12 UNL     1      32.930 -13.015  22.930  1.00  0.00     0.348 C 
HETATM   24  N5  UNL     1      33.433 -14.228  22.292  1.00  0.00    -0.042 N 
HETATM   25  C13 UNL     1      32.420 -15.179  22.643  1.00  0.00     0.295 C 
ATOM     26  H52 UNL     1      33.625 -14.145  21.294  1.00  0.00     0.280 HD
ATOM     27  H51 UNL     1      34.384 -14.491  22.548  1.00  0.00     0.280 HD
HETATM   28  C14 UNL     1      31.740 -14.571  23.856  1.00  0.00     0.285 C 
HETATM   29  O2  UNL     1      32.395 -13.376  24.134  1.00  0.00    -0.325 OA
BRANCH  28  30
HETATM   30  O1  UNL     1      30.403 -14.373  23.534  1.00  0.00    -0.369 OA
ATOM     31  H1  UNL     1      30.215 -13.449  23.642  1.00  0.00     0.212 HD
ENDBRANCH  28  30
ENDBRANCH   1  23
TORSDOF 7
ENDMDL
MODEL 2
REMARK VINA RESULT: -7.585130566      0.054      1.004
REMARK  7 active torsions:
REMARK  status: ('A' for Active; 'I' for Inactive)
REMARK    1  A    between atoms: N1_2  and  C2_4 
REMARK    2  A    between atoms: C2_4  and  C3_5 
REMARK    3  A    between atoms: C2_4  and  C4_7 
REMARK    4  A    between atoms: C4_7  and  N2_8 
REMARK    5  A    between atoms: C4_7  and  C12_23 
REMARK       I    between atoms: N2_8  and  C5_10 
REMARK       I    between atoms: C5_10  and  N4_14 
REMARK    6  A    between atoms: N4_14  and  C6_16 
REMARK    7  A    between atoms: C14_28  and  O1_29 
ROOT
HETATM    1  C4  UNL     1      33.883 -11.891  22.897  1.00  0.00     0.179 C 
ENDROOT
BRANCH   1   2
HETATM    2  C2  UNL     1      35.230 -12.139  22.275  1.00  0.00     0.117 C 
BRANCH   2   3
HETATM    3  N1  UNL     1      35.356 -11.547  20.982  1.00  0.00    -0.418 N 
HETATM    4  C1  UNL     1      35.478 -12.430  19.860  1.00  0.00     0.140 C 
ATOM      5  H1  UNL     1      35.360 -10.534  20.861  1.00  0.00     0.153 HD
ENDBRANCH   2   3
BRANCH   2   6
HETATM    6  C3  UNL     1      36.377 -11.977  23.185  1.00  0.00     0.141 C 
HETATM    7 CL1  UNL     1      37.629 -13.184  22.874  1.00  0.00    -0.128 Cl
ENDBRANCH   2   6
ENDBRANCH   1   2
BRANCH   1   8
HETATM    8  N2  UNL     1      34.099 -11.420  24.245  1.00  0.00    -0.215 N 
HETATM    9  C5  UNL     1      33.359 -10.308  24.741  1.00  0.00     0.672 C 
HETATM   10  N3  UNL     1      32.090 -10.220  24.543  1.00  0.00    -0.235 N 
HETATM   11  N4  UNL     1      33.999  -9.280  25.459  1.00  0.00    -0.192 N 
ATOM     12  H32 UNL     1      31.626 -10.964  24.023  1.00  0.00     0.174 HD
ATOM     13  H31 UNL     1      31.560  -9.424  24.898  1.00  0.00     0.174 HD
ATOM     14  H4  UNL     1      34.650  -8.673  24.961  1.00  0.00     0.184 HD
ATOM     15  H2  UNL     1      34.781 -11.885  24.844  1.00  0.00     0.178 HD
BRANCH  11  16
HETATM   16  C6  UNL     1      33.784  -9.045  26.845  1.00  0.00     0.049 A 
HETATM   17  C7  UNL     1      34.702  -9.486  27.787  1.00  0.00     0.033 A 
HETATM   18  C8  UNL     1      34.518  -9.272  29.132  1.00  0.00     0.044 A 
HETATM   19  C9  UNL     1      33.372  -8.592  29.512  1.00  0.00     0.116 A 
HETATM   20  F1  UNL     1      33.133  -8.349  30.830  1.00  0.00    -0.206 F 
HETATM   21  C10 UNL     1      32.450  -8.146  28.599  1.00  0.00     0.044 A 
HETATM   22  C11 UNL     1      32.651  -8.372  27.240  1.00  0.00     0.033 A 
ENDBRANCH  11  16
ENDBRANCH   1   8
BRANCH   1  23
HETATM   23  C12 UNL     1      32.929 -13.006  22.892  1.00  0.00     0.348 C 
HETATM   24  N5  UNL     1      33.432 -14.213  22.245  1.00  0.00    -0.042 N 
HETATM   25  C13 UNL     1      32.416 -15.166  22.583  1.00  0.00     0.295 C 
ATOM     26  H52 UNL     1      33.629 -14.122  21.248  1.00  0.00     0.280 HD
ATOM     27  H51 UNL     1      34.382 -14.481  22.502  1.00  0.00     0.280 HD
HETATM   28  C14 UNL     1      31.733 -14.568  23.799  1.00  0.00     0.285 C 
HETATM   29  O2  UNL     1      32.389 -13.376  24.091  1.00  0.00    -0.325 OA
BRANCH  28  30
HETATM   30  O1  UNL     1      30.398 -14.365  23.473  1.00  0.00    -0.369 OA
ATOM     31  H1  UNL     1      30.369 -13.751  22.750  1.00  0.00     0.212 HD
ENDBRANCH  28  30
ENDBRANCH   1  23
TORSDOF 7
ENDMDL
MODEL 3
REMARK VINA RESULT: -7.452940907      2.529      3.592
REMARK  7 active torsions:
REMARK  status: ('A' for Active; 'I' for Inactive)
REMARK    1  A    between atoms: N1_2  and  C2_4 
REMARK    2  A    between atoms: C2_4  and  C3_5 
REMARK    3  A    between atoms: C2_4  and  C4_7 
REMARK    4  A    between atoms: C4_7  and  N2_8 
REMARK    5  A    between atoms: C4_7  and  C12_23 
REMARK       I    between atoms: N2_8  and  C5_10 
REMARK       I    between atoms: C5_10  and  N4_14 
REMARK    6  A    between atoms: N4_14  and  C6_16 
REMARK    7  A    between atoms: C14_28  and  O1_29 
ROOT
HETATM    1  C4  UNL     1      32.954  -9.958  25.017  1.00  0.00     0.179 C 
ENDROOT
BRANCH   1   2
HETATM    2  C2  UNL     1      34.234 -10.739  25.145  1.00  0.00     0.117 C 
BRANCH   2   3
HETATM    3  N1  UNL     1      34.211 -11.959  24.404  1.00  0.00    -0.418 N 
HETATM    4  C1  UNL     1      34.594 -11.903  23.025  1.00  0.00     0.140 C 
ATOM      5  H1  UNL     1      33.931 -12.838  24.840  1.00  0.00     0.153 HD
ENDBRANCH   2   3
BRANCH   2   6
HETATM    6  C3  UNL     1      35.466  -9.937  25.050  1.00  0.00     0.141 C 
HETATM    7 CL1  UNL     1      35.794  -9.070  26.553  1.00  0.00    -0.128 Cl
ENDBRANCH   2   6
ENDBRANCH   1   2
BRANCH   1   8
HETATM    8  N2  UNL     1      32.943  -8.954  26.055  1.00  0.00    -0.215 N 
HETATM    9  C5  UNL     1      32.434  -9.268  27.349  1.00  0.00     0.672 C 
HETATM   10  N3  UNL     1      32.758 -10.367  27.935  1.00  0.00    -0.235 N 
HETATM   11  N4  UNL     1      31.565  -8.382  28.014  1.00  0.00    -0.192 N 
ATOM     12  H32 UNL     1      33.387 -11.008  27.453  1.00  0.00     0.174 HD
ATOM     13  H31 UNL     1      32.393 -10.592  28.861  1.00  0.00     0.174 HD
ATOM     14  H4  UNL     1      30.627  -8.248  27.635  1.00  0.00     0.184 HD
ATOM     15  H2  UNL     1      33.300  -8.019  25.861  1.00  0.00     0.178 HD
BRANCH  11  16
HETATM   16  C6  UNL     1      31.929  -7.666  29.187  1.00  0.00     0.049 A 
HETATM   17  C7  UNL     1      33.102  -7.965  29.862  1.00  0.00     0.033 A 
HETATM   18  C8  UNL     1      33.478  -7.288  30.998  1.00  0.00     0.044 A 
HETATM   19  C9  UNL     1      32.630  -6.287  31.444  1.00  0.00     0.116 A 
HETATM   20  F1  UNL     1      32.947  -5.580  32.563  1.00  0.00    -0.206 F 
HETATM   21  C10 UNL     1      31.464  -5.972  30.793  1.00  0.00     0.044 A 
HETATM   22  C11 UNL     1      31.099  -6.668  29.644  1.00  0.00     0.033 A 
ENDBRANCH  11  16
ENDBRANCH   1   8
BRANCH   1  23
HETATM   23  C12 UNL     1      31.701 -10.722  25.033  1.00  0.00     0.348 C 
HETATM   24  N5  UNL     1      31.133 -10.957  23.709  1.00  0.00    -0.042 N 
HETATM   25  C13 UNL     1      30.084 -11.886  24.006  1.00  0.00     0.295 C 
ATOM     26  H52 UNL     1      30.843 -10.118  23.206  1.00  0.00     0.280 HD
ATOM     27  H51 UNL     1      31.798 -11.264  23.000  1.00  0.00     0.280 HD
HETATM   28  C14 UNL     1      30.483 -12.488  25.341  1.00  0.00     0.285 C 
HETATM   29  O2  UNL     1      31.700 -11.915  25.698  1.00  0.00    -0.325 OA
BRANCH  28  30
HETATM   30  O1  UNL     1      29.478 -12.193  26.253  1.00  0.00    -0.369 OA
ATOM     31  H1  UNL     1      29.890 -12.038  27.095  1.00  0.00     0.212 HD
ENDBRANCH  28  30
ENDBRANCH   1  23
TORSDOF 7
ENDMDL
MODEL 4
REMARK VINA RESULT: -7.182711982      3.356      4.916
REMARK  7 active torsions:
REMARK  status: ('A' for Active; 'I' for Inactive)
REMARK    1  A    between atoms: N1_2  and  C2_4 
REMARK    2  A    between atoms: C2_4  and  C3_5 
REMARK    3  A    between atoms: C2_4  and  C4_7 
REMARK    4  A    between atoms: C4_7  and  N2_8 
REMARK    5  A    between atoms: C4_7  and  C12_23 
REMARK       I    between atoms: N2_8  and  C5_10 
REMARK       I    between atoms: C5_10  and  N4_14 
REMARK    6  A    between atoms: N4_14  and  C6_16 
REMARK    7  A    between atoms: C14_28  and  O1_29 
ROOT
HETATM    1  C4  UNL     1      35.098 -13.446  20.012  1.00  0.00     0.179 C 
ENDROOT
BRANCH   1   2
HETATM    2  C2  UNL     1      34.707 -14.889  20.184  1.00  0.00     0.117 C 
BRANCH   2   3
HETATM    3  N1  UNL     1      35.834 -15.750  20.347  1.00  0.00    -0.418 N 
HETATM    4  C1  UNL     1      36.381 -15.880  21.664  1.00  0.00     0.140 C 
ATOM      5  H1  UNL     1      36.234 -16.253  19.555  1.00  0.00     0.153 HD
ENDBRANCH   2   3
BRANCH   2   6
HETATM    6  C3  UNL     1      33.566 -15.122  21.087  1.00  0.00     0.141 C 
HETATM    7 CL1  UNL     1      32.929 -16.761  20.919  1.00  0.00    -0.128 Cl
ENDBRANCH   2   6
ENDBRANCH   1   2
BRANCH   1   8
HETATM    8  N2  UNL     1      34.506 -12.695  21.094  1.00  0.00    -0.215 N 
HETATM    9  C5  UNL     1      35.334 -12.106  22.093  1.00  0.00     0.672 C 
HETATM   10  N3  UNL     1      36.400 -11.463  21.769  1.00  0.00    -0.235 N 
HETATM   11  N4  UNL     1      35.003 -12.215  23.458  1.00  0.00    -0.192 N 
ATOM     12  H32 UNL     1      36.639 -11.384  20.781  1.00  0.00     0.174 HD
ATOM     13  H31 UNL     1      36.993 -11.041  22.484  1.00  0.00     0.174 HD
ATOM     14  H4  UNL     1      35.060 -13.134  23.898  1.00  0.00     0.184 HD
ATOM     15  H2  UNL     1      33.493 -12.586  21.143  1.00  0.00     0.178 HD
BRANCH  11  16
HETATM   16  C6  UNL     1      34.595 -11.109  24.252  1.00  0.00     0.049 A 
HETATM   17  C7  UNL     1      35.502 -10.453  25.070  1.00  0.00     0.033 A 
HETATM   18  C8  UNL     1      35.133  -9.382  25.848  1.00  0.00     0.044 A 
HETATM   19  C9  UNL     1      33.809  -8.980  25.781  1.00  0.00     0.116 A 
HETATM   20  F1  UNL     1      33.382  -7.925  26.527  1.00  0.00    -0.206 F 
HETATM   21  C10 UNL     1      32.893  -9.613  24.980  1.00  0.00     0.044 A 
HETATM   22  C11 UNL     1      33.283 -10.697  24.198  1.00  0.00     0.033 A 
ENDBRANCH  11  16
ENDBRANCH   1   8
BRANCH   1  23
HETATM   23  C12 UNL     1      34.786 -12.818  18.724  1.00  0.00     0.348 C 
HETATM   24  N5  UNL     1      34.082 -13.693  17.792  1.00  0.00    -0.042 N 
HETATM   25  C13 UNL     1      33.720 -12.776  16.752  1.00  0.00     0.295 C 
ATOM     26  H52 UNL     1      34.607 -14.513  17.486  1.00  0.00     0.280 HD
ATOM     27  H51 UNL     1      33.309 -14.223  18.194  1.00  0.00     0.280 HD
HETATM   28  C14 UNL     1      33.775 -11.414  17.419  1.00  0.00     0.285 C 
HETATM   29  O2  UNL     1      34.120 -11.625  18.751  1.00  0.00    -0.325 OA
BRANCH  28  30
HETATM   30  O1  UNL     1      34.723 -10.654  16.747  1.00  0.00    -0.369 OA
ATOM     31  H1  UNL     1      34.270 -10.150  16.082  1.00  0.00     0.212 HD
ENDBRANCH  28  30
ENDBRANCH   1  23
TORSDOF 7
ENDMDL
MODEL 5
REMARK VINA RESULT: -7.173652916      3.094      4.143
REMARK  7 active torsions:
REMARK  status: ('A' for Active; 'I' for Inactive)
REMARK    1  A    between atoms: N1_2  and  C2_4 
REMARK    2  A    between atoms: C2_4  and  C3_5 
REMARK    3  A    between atoms: C2_4  and  C4_7 
REMARK    4  A    between atoms: C4_7  and  N2_8 
REMARK    5  A    between atoms: C4_7  and  C12_23 
REMARK       I    between atoms: N2_8  and  C5_10 
REMARK       I    between atoms: C5_10  and  N4_14 
REMARK    6  A    between atoms: N4_14  and  C6_16 
REMARK    7  A    between atoms: C14_28  and  O1_29 
ROOT
HETATM    1  C4  UNL     1      36.180 -14.287  21.332  1.00  0.00     0.179 C 
ENDROOT
BRANCH   1   2
HETATM    2  C2  UNL     1      37.577 -14.607  21.790  1.00  0.00     0.117 C 
BRANCH   2   3
HETATM    3  N1  UNL     1      37.630 -15.759  22.631  1.00  0.00    -0.418 N 
HETATM    4  C1  UNL     1      38.512 -15.715  23.759  1.00  0.00     0.140 C 
ATOM      5  H1  UNL     1      37.062 -16.584  22.436  1.00  0.00     0.153 HD
ENDBRANCH   2   3
BRANCH   2   6
HETATM    6  C3  UNL     1      38.614 -14.507  20.747  1.00  0.00     0.141 C 
HETATM    7 CL1  UNL     1      39.483 -12.972  20.841  1.00  0.00    -0.128 Cl
ENDBRANCH   2   6
ENDBRANCH   1   2
BRANCH   1   8
HETATM    8  N2  UNL     1      35.547 -13.495  22.361  1.00  0.00    -0.215 N 
HETATM    9  C5  UNL     1      36.086 -12.226  22.719  1.00  0.00     0.672 C 
HETATM   10  N3  UNL     1      36.454 -11.387  21.815  1.00  0.00    -0.235 N 
HETATM   11  N4  UNL     1      36.229 -11.861  24.072  1.00  0.00    -0.192 N 
ATOM     12  H32 UNL     1      36.350 -11.651  20.835  1.00  0.00     0.174 HD
ATOM     13  H31 UNL     1      36.839 -10.478  22.071  1.00  0.00     0.174 HD
ATOM     14  H4  UNL     1      36.919 -12.356  24.637  1.00  0.00     0.184 HD
ATOM     15  H2  UNL     1      34.713 -13.846  22.831  1.00  0.00     0.178 HD
BRANCH  11  16
HETATM   16  C6  UNL     1      35.460 -10.836  24.689  1.00  0.00     0.049 A 
HETATM   17  C7  UNL     1      36.078  -9.827  25.412  1.00  0.00     0.033 A 
HETATM   18  C8  UNL     1      35.358  -8.825  26.018  1.00  0.00     0.044 A 
HETATM   19  C9  UNL     1      33.980  -8.864  25.875  1.00  0.00     0.116 A 
HETATM   20  F1  UNL     1      33.212  -7.899  26.452  1.00  0.00    -0.206 F 
HETATM   21  C10 UNL     1      33.346  -9.852  25.165  1.00  0.00     0.044 A 
HETATM   22  C11 UNL     1      34.090 -10.860  24.558  1.00  0.00     0.033 A 
ENDBRANCH  11  16
ENDBRANCH   1   8
BRANCH   1  23
HETATM   23  C12 UNL     1      35.324 -15.419  20.959  1.00  0.00     0.348 C 
HETATM   24  N5  UNL     1      35.873 -16.253  19.896  1.00  0.00    -0.042 N 
HETATM   25  C13 UNL     1      34.968 -17.364  19.904  1.00  0.00     0.295 C 
ATOM     26  H52 UNL     1      35.984 -15.790  18.994  1.00  0.00     0.280 HD
ATOM     27  H51 UNL     1      36.859 -16.495  19.998  1.00  0.00     0.280 HD
HETATM   28  C14 UNL     1      34.332 -17.318  21.282  1.00  0.00     0.285 C 
HETATM   29  O2  UNL     1      34.909 -16.249  21.961  1.00  0.00    -0.325 OA
BRANCH  28  30
HETATM   30  O1  UNL     1      32.964 -17.152  21.108  1.00  0.00    -0.369 OA
ATOM     31  H1  UNL     1      32.742 -16.275  21.397  1.00  0.00     0.212 HD
ENDBRANCH  28  30
ENDBRANCH   1  23
TORSDOF 7
ENDMDL
