MODEL 1
REMARK VINA RESULT: -8.799381545      0.000      0.000
REMARK  7 active torsions:
REMARK  status: ('A' for Active; 'I' for Inactive)
REMARK    1  A    between atoms: C6_6  and  C7_7 
REMARK    2  A    between atoms: C7_7  and  O1_8 
REMARK    3  A    between atoms: C7_7  and  C8_10 
REMARK    4  A    between atoms: C7_7  and  C16_19 
REMARK    5  A    between atoms: C8_10  and  C9_11 
REMARK    6  A    between atoms: C17_23  and  C18_24 
REMARK    7  A    between atoms: C28_35  and  C29_36 
ROOT
HETATM    1  C7  UNL     1       5.897  14.634  31.244  1.00  0.00     0.128 C 
ENDROOT
BRANCH   1   2
HETATM    2  C6  UNL     1       4.923  15.670  31.049  1.00  0.00    -0.004 A 
HETATM    3  C5  UNL     1       3.891  15.814  32.043  1.00  0.00     0.011 A 
HETATM    4  C4  UNL     1       2.869  16.716  31.973  1.00  0.00     0.001 A 
HETATM    5  C3  UNL     1       2.781  17.558  30.901  1.00  0.00     0.007 A 
HETATM    6  C2  UNL     1       3.748  17.466  29.908  1.00  0.00    -0.046 A 
HETATM    7  C1  UNL     1       3.682  18.401  28.756  1.00  0.00     0.049 C 
HETATM    8  C28 UNL     1       4.811  16.529  29.978  1.00  0.00     0.063 A 
BRANCH   8   9
HETATM    9  C29 UNL     1       5.769  16.557  28.906  1.00  0.00     0.418 C 
HETATM   10  F2  UNL     1       7.107  16.333  29.225  1.00  0.00    -0.166 F 
HETATM   11  F3  UNL     1       5.487  16.207  27.640  1.00  0.00    -0.166 F 
HETATM   12  F4  UNL     1       5.896  17.991  28.590  1.00  0.00    -0.166 F 
ENDBRANCH   8   9
ENDBRANCH   1   2
BRANCH   1  13
HETATM   13  O1  UNL     1       5.396  13.839  32.371  1.00  0.00    -0.381 OA
ATOM     14  H1  UNL     1       4.578  13.462  32.067  1.00  0.00     0.211 HD
ENDBRANCH   1  13
BRANCH   1  15
HETATM   15  C8  UNL     1       7.252  14.961  31.779  1.00  0.00     0.052 C 
BRANCH  15  16
HETATM   16  C9  UNL     1       7.493  15.159  33.217  1.00  0.00    -0.011 C 
HETATM   17  C10 UNL     1       7.702  16.498  33.796  1.00  0.00     0.008 C 
HETATM   18  C11 UNL     1       7.246  16.402  35.277  1.00  0.00     0.043 C 
HETATM   19  C12 UNL     1       8.082  15.366  35.927  1.00  0.00     0.100 C 
HETATM   20  C13 UNL     1       7.262  14.274  36.625  1.00  0.00     0.051 C 
HETATM   21  F1  UNL     1       8.775  16.004  36.964  1.00  0.00    -0.243 F 
HETATM   22  C14 UNL     1       9.154  14.771  35.059  1.00  0.00     0.043 C 
HETATM   23  C15 UNL     1       8.700  14.324  33.702  1.00  0.00     0.008 C 
ENDBRANCH  15  16
ENDBRANCH   1  15
BRANCH   1  24
HETATM   24  C16 UNL     1       5.999  13.487  30.281  1.00  0.00     0.281 A 
HETATM   25  N1  UNL     1       6.004  12.162  30.679  1.00  0.00    -0.103 NA
HETATM   26  N2  UNL     1       6.107  11.413  29.584  1.00  0.00    -0.284 N 
HETATM   27  C17 UNL     1       6.167  12.223  28.498  1.00  0.00     0.140 A 
ATOM     28  H2  UNL     1       6.136  10.394  29.564  1.00  0.00     0.184 HD
HETATM   29  O2  UNL     1       6.098  13.431  28.986  1.00  0.00    -0.310 OA
BRANCH  27  30
HETATM   30  C18 UNL     1       6.282  11.816  27.078  1.00  0.00     0.027 C 
HETATM   31  C19 UNL     1       6.876  12.937  26.255  1.00  0.00     0.022 C 
HETATM   32  C20 UNL     1       7.205  12.503  24.868  1.00  0.00    -0.013 C 
HETATM   33  C21 UNL     1       8.211  11.373  24.941  1.00  0.00     0.009 C 
HETATM   34  C25 UNL     1       5.936  12.067  24.175  1.00  0.00     0.009 C 
HETATM   35  C22 UNL     1       7.555  10.216  25.641  1.00  0.00    -0.013 C 
HETATM   36  C23 UNL     1       6.281   9.803  24.938  1.00  0.00     0.009 C 
HETATM   37  C27 UNL     1       7.207  10.566  27.033  1.00  0.00     0.022 C 
HETATM   38  C24 UNL     1       5.323  10.955  25.005  1.00  0.00    -0.013 C 
HETATM   39  C26 UNL     1       5.000  11.398  26.420  1.00  0.00     0.022 C 
ENDBRANCH  27  30
ENDBRANCH   1  24
TORSDOF 7
ENDMDL
MODEL 2
REMARK VINA RESULT: -8.675051281      2.483      7.492
REMARK  7 active torsions:
REMARK  status: ('A' for Active; 'I' for Inactive)
REMARK    1  A    between atoms: C6_6  and  C7_7 
REMARK    2  A    between atoms: C7_7  and  O1_8 
REMARK    3  A    between atoms: C7_7  and  C8_10 
REMARK    4  A    between atoms: C7_7  and  C16_19 
REMARK    5  A    between atoms: C8_10  and  C9_11 
REMARK    6  A    between atoms: C17_23  and  C18_24 
REMARK    7  A    between atoms: C28_35  and  C29_36 
ROOT
HETATM    1  C7  UNL     1       5.939  15.093  27.899  1.00  0.00     0.128 C 
ENDROOT
BRANCH   1   2
HETATM    2  C6  UNL     1       5.406  16.188  27.140  1.00  0.00    -0.004 A 
HETATM    3  C5  UNL     1       6.109  16.580  25.945  1.00  0.00     0.011 A 
HETATM    4  C4  UNL     1       5.756  17.630  25.147  1.00  0.00     0.001 A 
HETATM    5  C3  UNL     1       4.668  18.390  25.471  1.00  0.00     0.007 A 
HETATM    6  C2  UNL     1       3.949  18.062  26.614  1.00  0.00    -0.046 A 
HETATM    7  C1  UNL     1       2.743  18.859  26.953  1.00  0.00     0.049 C 
HETATM    8  C28 UNL     1       4.314  16.971  27.444  1.00  0.00     0.063 A 
BRANCH   8   9
HETATM    9  C29 UNL     1       3.469  16.712  28.578  1.00  0.00     0.418 C 
HETATM   10  F2  UNL     1       2.201  16.186  28.335  1.00  0.00    -0.166 F 
HETATM   11  F3  UNL     1       3.929  16.377  29.795  1.00  0.00    -0.166 F 
HETATM   12  F4  UNL     1       3.030  18.054  28.999  1.00  0.00    -0.166 F 
ENDBRANCH   8   9
ENDBRANCH   1   2
BRANCH   1  13
HETATM   13  O1  UNL     1       7.224  14.774  27.267  1.00  0.00    -0.381 OA
ATOM     14  H1  UNL     1       7.516  13.972  27.685  1.00  0.00     0.211 HD
ENDBRANCH   1  13
BRANCH   1  15
HETATM   15  C8  UNL     1       5.305  13.743  27.825  1.00  0.00     0.052 C 
BRANCH  15  16
HETATM   16  C9  UNL     1       5.870  12.665  26.998  1.00  0.00    -0.011 C 
HETATM   17  C10 UNL     1       5.014  11.709  26.273  1.00  0.00     0.008 C 
HETATM   18  C11 UNL     1       5.847  11.222  25.057  1.00  0.00     0.043 C 
HETATM   19  C12 UNL     1       7.075  10.590  25.594  1.00  0.00     0.100 C 
HETATM   20  C13 UNL     1       8.366  11.171  25.002  1.00  0.00     0.051 C 
HETATM   21  F1  UNL     1       7.060   9.256  25.164  1.00  0.00    -0.243 F 
HETATM   22  C14 UNL     1       7.153  10.509  27.091  1.00  0.00     0.043 C 
HETATM   23  C15 UNL     1       6.843  11.784  27.815  1.00  0.00     0.008 C 
ENDBRANCH  15  16
ENDBRANCH   1  15
BRANCH   1  24
HETATM   24  C16 UNL     1       6.495  15.314  29.275  1.00  0.00     0.281 A 
HETATM   25  N1  UNL     1       7.179  16.461  29.640  1.00  0.00    -0.103 NA
HETATM   26  N2  UNL     1       7.532  16.329  30.917  1.00  0.00    -0.284 N 
HETATM   27  C17 UNL     1       7.092  15.131  31.376  1.00  0.00     0.140 A 
ATOM     28  H2  UNL     1       8.050  17.018  31.462  1.00  0.00     0.184 HD
HETATM   29  O2  UNL     1       6.491  14.588  30.353  1.00  0.00    -0.310 OA
BRANCH  27  30
HETATM   30  C18 UNL     1       7.261  14.574  32.739  1.00  0.00     0.027 C 
HETATM   31  C19 UNL     1       7.219  13.063  32.699  1.00  0.00     0.022 C 
HETATM   32  C20 UNL     1       7.594  12.456  34.007  1.00  0.00    -0.013 C 
HETATM   33  C21 UNL     1       9.002  12.890  34.358  1.00  0.00     0.009 C 
HETATM   34  C25 UNL     1       6.603  12.899  35.057  1.00  0.00     0.009 C 
HETATM   35  C22 UNL     1       8.994  14.384  34.530  1.00  0.00    -0.013 C 
HETATM   36  C23 UNL     1       7.987  14.808  35.576  1.00  0.00     0.009 C 
HETATM   37  C27 UNL     1       8.641  15.062  33.266  1.00  0.00     0.022 C 
HETATM   38  C24 UNL     1       6.623  14.416  35.090  1.00  0.00    -0.013 C 
HETATM   39  C26 UNL     1       6.253  15.031  33.752  1.00  0.00     0.022 C 
ENDBRANCH  27  30
ENDBRANCH   1  24
TORSDOF 7
ENDMDL
MODEL 3
REMARK VINA RESULT: -8.658735805      2.621      7.205
REMARK  7 active torsions:
REMARK  status: ('A' for Active; 'I' for Inactive)
REMARK    1  A    between atoms: C6_6  and  C7_7 
REMARK    2  A    between atoms: C7_7  and  O1_8 
REMARK    3  A    between atoms: C7_7  and  C8_10 
REMARK    4  A    between atoms: C7_7  and  C16_19 
REMARK    5  A    between atoms: C8_10  and  C9_11 
REMARK    6  A    between atoms: C17_23  and  C18_24 
REMARK    7  A    between atoms: C28_35  and  C29_36 
ROOT
HETATM    1  C7  UNL     1       5.591  15.203  27.848  1.00  0.00     0.128 C 
ENDROOT
BRANCH   1   2
HETATM    2  C6  UNL     1       6.278  14.714  26.687  1.00  0.00    -0.004 A 
HETATM    3  C5  UNL     1       6.556  15.652  25.630  1.00  0.00     0.011 A 
HETATM    4  C4  UNL     1       7.156  15.331  24.446  1.00  0.00     0.001 A 
HETATM    5  C3  UNL     1       7.531  14.039  24.206  1.00  0.00     0.007 A 
HETATM    6  C2  UNL     1       7.287  13.087  25.189  1.00  0.00    -0.046 A 
HETATM    7  C1  UNL     1       7.725  11.688  24.953  1.00  0.00     0.049 C 
HETATM    8  C28 UNL     1       6.665  13.420  26.420  1.00  0.00     0.063 A 
BRANCH   8   9
HETATM    9  C29 UNL     1       6.502  12.353  27.369  1.00  0.00     0.418 C 
HETATM   10  F2  UNL     1       7.139  12.478  28.602  1.00  0.00    -0.166 F 
HETATM   11  F3  UNL     1       5.408  11.576  27.445  1.00  0.00    -0.166 F 
HETATM   12  F4  UNL     1       7.355  11.276  26.834  1.00  0.00    -0.166 F 
ENDBRANCH   8   9
ENDBRANCH   1   2
BRANCH   1  13
HETATM   13  O1  UNL     1       4.709  14.106  28.265  1.00  0.00    -0.381 OA
ATOM     14  H1  UNL     1       4.208  14.451  28.995  1.00  0.00     0.211 HD
ENDBRANCH   1  13
BRANCH   1  15
HETATM   15  C8  UNL     1       4.569  16.283  27.723  1.00  0.00     0.052 C 
BRANCH  15  16
HETATM   16  C9  UNL     1       4.035  16.988  28.901  1.00  0.00    -0.011 C 
HETATM   17  C10 UNL     1       2.737  16.631  29.501  1.00  0.00     0.008 C 
HETATM   18  C11 UNL     1       2.827  17.044  30.995  1.00  0.00     0.043 C 
HETATM   19  C12 UNL     1       3.087  18.502  31.031  1.00  0.00     0.100 C 
HETATM   20  C13 UNL     1       4.318  18.878  31.866  1.00  0.00     0.051 C 
HETATM   21  F1  UNL     1       2.009  19.084  31.711  1.00  0.00    -0.243 F 
HETATM   22  C14 UNL     1       3.109  19.183  29.693  1.00  0.00     0.043 C 
HETATM   23  C15 UNL     1       3.951  18.511  28.650  1.00  0.00     0.008 C 
ENDBRANCH  15  16
ENDBRANCH   1  15
BRANCH   1  24
HETATM   24  C16 UNL     1       6.305  15.333  29.162  1.00  0.00     0.281 A 
HETATM   25  N1  UNL     1       7.295  16.271  29.395  1.00  0.00    -0.103 NA
HETATM   26  N2  UNL     1       7.712  16.112  30.649  1.00  0.00    -0.284 N 
HETATM   27  C17 UNL     1       7.015  15.100  31.223  1.00  0.00     0.140 A 
ATOM     28  H2  UNL     1       8.439  16.662  31.106  1.00  0.00     0.184 HD
HETATM   29  O2  UNL     1       6.204  14.688  30.286  1.00  0.00    -0.310 OA
BRANCH  27  30
HETATM   30  C18 UNL     1       7.150  14.585  32.606  1.00  0.00     0.027 C 
HETATM   31  C19 UNL     1       7.222  13.074  32.601  1.00  0.00     0.022 C 
HETATM   32  C20 UNL     1       7.569  12.524  33.942  1.00  0.00    -0.013 C 
HETATM   33  C21 UNL     1       8.920  13.071  34.355  1.00  0.00     0.009 C 
HETATM   34  C25 UNL     1       6.492  12.914  34.926  1.00  0.00     0.009 C 
HETATM   35  C22 UNL     1       8.792  14.563  34.490  1.00  0.00    -0.013 C 
HETATM   36  C23 UNL     1       7.701  14.931  35.471  1.00  0.00     0.009 C 
HETATM   37  C27 UNL     1       8.459  15.186  33.193  1.00  0.00     0.022 C 
HETATM   38  C24 UNL     1       6.398  14.428  34.923  1.00  0.00    -0.013 C 
HETATM   39  C26 UNL     1       6.058  14.985  33.553  1.00  0.00     0.022 C 
ENDBRANCH  27  30
ENDBRANCH   1  24
TORSDOF 7
ENDMDL
MODEL 4
REMARK VINA RESULT: -8.611892292      2.737      6.840
REMARK  7 active torsions:
REMARK  status: ('A' for Active; 'I' for Inactive)
REMARK    1  A    between atoms: C6_6  and  C7_7 
REMARK    2  A    between atoms: C7_7  and  O1_8 
REMARK    3  A    between atoms: C7_7  and  C8_10 
REMARK    4  A    between atoms: C7_7  and  C16_19 
REMARK    5  A    between atoms: C8_10  and  C9_11 
REMARK    6  A    between atoms: C17_23  and  C18_24 
REMARK    7  A    between atoms: C28_35  and  C29_36 
ROOT
HETATM    1  C7  UNL     1       5.217  15.438  28.366  1.00  0.00     0.128 C 
ENDROOT
BRANCH   1   2
HETATM    2  C6  UNL     1       5.781  15.484  27.047  1.00  0.00    -0.004 A 
HETATM    3  C5  UNL     1       6.430  14.296  26.555  1.00  0.00     0.011 A 
HETATM    4  C4  UNL     1       7.055  14.199  25.345  1.00  0.00     0.001 A 
HETATM    5  C3  UNL     1       7.093  15.283  24.514  1.00  0.00     0.007 A 
HETATM    6  C2  UNL     1       6.484  16.460  24.935  1.00  0.00    -0.046 A 
HETATM    7  C1  UNL     1       6.488  17.632  24.024  1.00  0.00     0.049 C 
HETATM    8  C28 UNL     1       5.834  16.562  26.192  1.00  0.00     0.063 A 
BRANCH   8   9
HETATM    9  C29 UNL     1       5.211  17.822  26.496  1.00  0.00     0.418 C 
HETATM   10  F2  UNL     1       3.896  18.013  26.076  1.00  0.00    -0.166 F 
HETATM   11  F3  UNL     1       5.509  18.564  27.575  1.00  0.00    -0.166 F 
HETATM   12  F4  UNL     1       5.841  18.759  25.549  1.00  0.00    -0.166 F 
ENDBRANCH   8   9
ENDBRANCH   1   2
BRANCH   1  13
HETATM   13  O1  UNL     1       4.883  14.027  28.595  1.00  0.00    -0.381 OA
ATOM     14  H1  UNL     1       4.398  13.756  27.824  1.00  0.00     0.211 HD
ENDBRANCH   1  13
BRANCH   1  15
HETATM   15  C8  UNL     1       3.877  16.037  28.637  1.00  0.00     0.052 C 
BRANCH  15  16
HETATM   16  C9  UNL     1       3.534  16.614  29.947  1.00  0.00    -0.011 C 
HETATM   17  C10 UNL     1       2.425  16.090  30.763  1.00  0.00     0.008 C 
HETATM   18  C11 UNL     1       2.780  16.425  32.237  1.00  0.00     0.043 C 
HETATM   19  C12 UNL     1       2.908  17.898  32.333  1.00  0.00     0.100 C 
HETATM   20  C13 UNL     1       4.244  18.353  32.933  1.00  0.00     0.051 C 
HETATM   21  F1  UNL     1       1.944  18.325  33.255  1.00  0.00    -0.243 F 
HETATM   22  C14 UNL     1       2.593  18.652  31.073  1.00  0.00     0.043 C 
HETATM   23  C15 UNL     1       3.261  18.132  29.835  1.00  0.00     0.008 C 
ENDBRANCH  15  16
ENDBRANCH   1  15
BRANCH   1  24
HETATM   24  C16 UNL     1       6.090  15.587  29.578  1.00  0.00     0.281 A 
HETATM   25  N1  UNL     1       7.085  16.543  29.681  1.00  0.00    -0.103 NA
HETATM   26  N2  UNL     1       7.661  16.398  30.872  1.00  0.00    -0.284 N 
HETATM   27  C17 UNL     1       7.060  15.377  31.532  1.00  0.00     0.140 A 
ATOM     28  H2  UNL     1       8.430  16.963  31.231  1.00  0.00     0.184 HD
HETATM   29  O2  UNL     1       6.145  14.946  30.708  1.00  0.00    -0.310 OA
BRANCH  27  30
HETATM   30  C18 UNL     1       7.379  14.871  32.889  1.00  0.00     0.027 C 
HETATM   31  C19 UNL     1       7.498  13.363  32.874  1.00  0.00     0.022 C 
HETATM   32  C20 UNL     1       8.023  12.829  34.162  1.00  0.00    -0.013 C 
HETATM   33  C21 UNL     1       9.396  13.419  34.407  1.00  0.00     0.009 C 
HETATM   34  C25 UNL     1       7.063  13.189  35.271  1.00  0.00     0.009 C 
HETATM   35  C22 UNL     1       9.239  14.906  34.557  1.00  0.00    -0.013 C 
HETATM   36  C23 UNL     1       8.266  15.245  35.664  1.00  0.00     0.009 C 
HETATM   37  C27 UNL     1       8.732  15.515  33.311  1.00  0.00     0.022 C 
HETATM   38  C24 UNL     1       6.922  14.699  35.280  1.00  0.00    -0.013 C 
HETATM   39  C26 UNL     1       6.399  15.241  33.962  1.00  0.00     0.022 C 
ENDBRANCH  27  30
ENDBRANCH   1  24
TORSDOF 7
ENDMDL
MODEL 5
REMARK VINA RESULT: -8.569881462      2.812      7.897
REMARK  7 active torsions:
REMARK  status: ('A' for Active; 'I' for Inactive)
REMARK    1  A    between atoms: C6_6  and  C7_7 
REMARK    2  A    between atoms: C7_7  and  O1_8 
REMARK    3  A    between atoms: C7_7  and  C8_10 
REMARK    4  A    between atoms: C7_7  and  C16_19 
REMARK    5  A    between atoms: C8_10  and  C9_11 
REMARK    6  A    between atoms: C17_23  and  C18_24 
REMARK    7  A    between atoms: C28_35  and  C29_36 
ROOT
HETATM    1  C7  UNL     1       5.454  15.194  28.077  1.00  0.00     0.128 C 
ENDROOT
BRANCH   1   2
HETATM    2  C6  UNL     1       6.138  14.862  26.859  1.00  0.00    -0.004 A 
HETATM    3  C5  UNL     1       6.362  15.918  25.907  1.00  0.00     0.011 A 
HETATM    4  C4  UNL     1       6.952  15.750  24.687  1.00  0.00     0.001 A 
HETATM    5  C3  UNL     1       7.370  14.508  24.303  1.00  0.00     0.007 A 
HETATM    6  C2  UNL     1       7.180  13.447  25.180  1.00  0.00    -0.046 A 
HETATM    7  C1  UNL     1       7.666  12.099  24.787  1.00  0.00     0.049 C 
HETATM    8  C28 UNL     1       6.568  13.620  26.448  1.00  0.00     0.063 A 
BRANCH   8   9
HETATM    9  C29 UNL     1       6.462  12.451  27.278  1.00  0.00     0.418 C 
HETATM   10  F2  UNL     1       7.106  12.472  28.514  1.00  0.00    -0.166 F 
HETATM   11  F3  UNL     1       5.405  11.622  27.275  1.00  0.00    -0.166 F 
HETATM   12  F4  UNL     1       7.357  11.478  26.626  1.00  0.00    -0.166 F 
ENDBRANCH   8   9
ENDBRANCH   1   2
BRANCH   1  13
HETATM   13  O1  UNL     1       4.781  13.958  28.492  1.00  0.00    -0.381 OA
ATOM     14  H1  UNL     1       4.449  13.572  27.690  1.00  0.00     0.211 HD
ENDBRANCH   1  13
BRANCH   1  15
HETATM   15  C8  UNL     1       4.271  16.104  28.055  1.00  0.00     0.052 C 
BRANCH  15  16
HETATM   16  C9  UNL     1       4.360  17.483  27.548  1.00  0.00    -0.011 C 
HETATM   17  C10 UNL     1       4.606  18.628  28.443  1.00  0.00     0.008 C 
HETATM   18  C11 UNL     1       5.291  19.715  27.572  1.00  0.00     0.043 C 
HETATM   19  C12 UNL     1       4.357  20.046  26.471  1.00  0.00     0.100 C 
HETATM   20  C13 UNL     1       4.991  19.922  25.079  1.00  0.00     0.051 C 
HETATM   21  F1  UNL     1       4.053  21.407  26.599  1.00  0.00    -0.243 F 
HETATM   22  C14 UNL     1       3.028  19.349  26.526  1.00  0.00     0.043 C 
HETATM   23  C15 UNL     1       3.093  17.869  26.750  1.00  0.00     0.008 C 
ENDBRANCH  15  16
ENDBRANCH   1  15
BRANCH   1  24
HETATM   24  C16 UNL     1       6.217  15.390  29.355  1.00  0.00     0.281 A 
HETATM   25  N1  UNL     1       7.131  16.412  29.542  1.00  0.00    -0.103 NA
HETATM   26  N2  UNL     1       7.620  16.293  30.774  1.00  0.00    -0.284 N 
HETATM   27  C17 UNL     1       7.043  15.225  31.378  1.00  0.00     0.140 A 
ATOM     28  H2  UNL     1       8.317  16.907  31.196  1.00  0.00     0.184 HD
HETATM   29  O2  UNL     1       6.228  14.741  30.481  1.00  0.00    -0.310 OA
BRANCH  27  30
HETATM   30  C18 UNL     1       7.290  14.727  32.752  1.00  0.00     0.027 C 
HETATM   31  C19 UNL     1       7.462  13.224  32.745  1.00  0.00     0.022 C 
HETATM   32  C20 UNL     1       7.919  12.705  34.064  1.00  0.00    -0.013 C 
HETATM   33  C21 UNL     1       9.253  13.341  34.400  1.00  0.00     0.009 C 
HETATM   34  C25 UNL     1       6.877  13.027  35.107  1.00  0.00     0.009 C 
HETATM   35  C22 UNL     1       9.034  14.822  34.540  1.00  0.00    -0.013 C 
HETATM   36  C23 UNL     1       7.978  15.123  35.581  1.00  0.00     0.009 C 
HETATM   37  C27 UNL     1       8.588  15.416  33.263  1.00  0.00     0.022 C 
HETATM   38  C24 UNL     1       6.683  14.532  35.108  1.00  0.00    -0.013 C 
HETATM   39  C26 UNL     1       6.229  15.059  33.759  1.00  0.00     0.022 C 
ENDBRANCH  27  30
ENDBRANCH   1  24
TORSDOF 7
ENDMDL
