MODEL 1
REMARK VINA RESULT: -7.539530016      0.000      0.000
REMARK  7 active torsions:
REMARK  status: ('A' for Active; 'I' for Inactive)
REMARK    1  A    between atoms: C2_2  and  C4_5 
REMARK    2  A    between atoms: C7_8  and  C8_9 
REMARK    3  A    between atoms: C10_12  and  C11_13 
REMARK       I    between atoms: N1_14  and  C12_15 
REMARK       I    between atoms: C12_15  and  N2_17 
REMARK    4  A    between atoms: N2_17  and  C13_19 
REMARK    5  A    between atoms: C13_19  and  C14_20 
REMARK    6  A    between atoms: C14_20  and  C15_21 
REMARK    7  A    between atoms: C15_21  and  C16_22 
ROOT
HETATM    1  C11 UNL     1       5.091  16.215  32.780  1.00  0.00     0.174 C 
HETATM    2  N1  UNL     1       5.890  17.213  32.035  1.00  0.00    -0.233 N 
HETATM    3  C12 UNL     1       5.544  18.292  31.231  1.00  0.00     0.327 C 
HETATM    4  O1  UNL     1       6.468  18.958  30.707  1.00  0.00    -0.247 OA
HETATM    5  N2  UNL     1       4.181  18.677  30.980  1.00  0.00    -0.343 N 
ATOM      6  H2  UNL     1       3.434  18.131  31.407  1.00  0.00     0.164 HD
HETATM    7  C17 UNL     1       7.227  16.797  32.413  1.00  0.00     0.372 C 
HETATM    8  O2  UNL     1       8.285  16.965  31.761  1.00  0.00    -0.238 OA
HETATM    9  O3  UNL     1       7.143  16.150  33.675  1.00  0.00    -0.290 OA
HETATM   10  C18 UNL     1       5.817  16.433  34.116  1.00  0.00     0.091 C 
HETATM   11  C19 UNL     1       5.310  15.654  35.246  1.00  0.00     0.049 C 
HETATM   12  C20 UNL     1       5.789  17.934  34.360  1.00  0.00     0.049 C 
ENDROOT
BRANCH   1  13
HETATM   13  C10 UNL     1       5.501  14.915  32.143  1.00  0.00     0.010 A 
HETATM   14  S1  UNL     1       5.770  13.404  32.897  1.00  0.00    -0.103 SA
HETATM   15  C9  UNL     1       6.151  12.467  31.526  1.00  0.00     0.062 A 
HETATM   16  C8  UNL     1       6.056  13.367  30.501  1.00  0.00    -0.018 A 
HETATM   17  C21 UNL     1       5.722  14.632  30.825  1.00  0.00     0.029 A 
BRANCH  16  18
HETATM   18  C7  UNL     1       6.297  12.936  29.095  1.00  0.00    -0.025 A 
HETATM   19  C6  UNL     1       6.677  11.655  28.784  1.00  0.00     0.013 A 
HETATM   20  C5  UNL     1       6.880  11.224  27.491  1.00  0.00     0.010 A 
HETATM   21  C4  UNL     1       6.695  12.107  26.451  1.00  0.00    -0.035 A 
HETATM   22  C23 UNL     1       6.306  13.426  26.727  1.00  0.00     0.010 A 
HETATM   23  C22 UNL     1       6.116  13.813  28.038  1.00  0.00     0.013 A 
BRANCH  21  24
HETATM   24  C2  UNL     1       6.896  11.656  25.071  1.00  0.00     0.057 C 
HETATM   25  C1  UNL     1       7.442  12.768  24.221  1.00  0.00     0.037 C 
HETATM   26  C3  UNL     1       7.967  10.558  25.091  1.00  0.00     0.037 C 
HETATM   27 CL1  UNL     1       5.417  10.979  24.362  1.00  0.00    -0.115 Cl
ENDBRANCH  21  24
ENDBRANCH  16  18
ENDBRANCH   1  13
BRANCH   5  28
HETATM   28  C13 UNL     1       3.823  19.805  30.148  1.00  0.00     0.125 C 
BRANCH  28  29
HETATM   29  C14 UNL     1       3.251  19.477  28.825  1.00  0.00     0.028 C 
BRANCH  29  30
HETATM   30  C15 UNL     1       4.101  18.644  27.936  1.00  0.00     0.119 C 
BRANCH  30  31
HETATM   31  C16 UNL     1       3.563  17.302  27.594  1.00  0.00     0.388 C 
HETATM   32  F1  UNL     1       3.368  16.498  28.707  1.00  0.00    -0.171 F 
HETATM   33  F2  UNL     1       4.602  16.640  26.866  1.00  0.00    -0.171 F 
HETATM   34  F3  UNL     1       2.483  17.377  26.770  1.00  0.00    -0.171 F 
ENDBRANCH  30  31
ENDBRANCH  29  30
ENDBRANCH  28  29
ENDBRANCH   5  28
TORSDOF 7
ENDMDL
MODEL 2
REMARK VINA RESULT: -7.525454111      3.951      5.562
REMARK  7 active torsions:
REMARK  status: ('A' for Active; 'I' for Inactive)
REMARK    1  A    between atoms: C2_2  and  C4_5 
REMARK    2  A    between atoms: C7_8  and  C8_9 
REMARK    3  A    between atoms: C10_12  and  C11_13 
REMARK       I    between atoms: N1_14  and  C12_15 
REMARK       I    between atoms: C12_15  and  N2_17 
REMARK    4  A    between atoms: N2_17  and  C13_19 
REMARK    5  A    between atoms: C13_19  and  C14_20 
REMARK    6  A    between atoms: C14_20  and  C15_21 
REMARK    7  A    between atoms: C15_21  and  C16_22 
ROOT
HETATM    1  C11 UNL     1       6.007  18.300  30.353  1.00  0.00     0.174 C 
HETATM    2  N1  UNL     1       6.069  17.233  31.376  1.00  0.00    -0.233 N 
HETATM    3  C12 UNL     1       7.064  16.822  32.253  1.00  0.00     0.327 C 
HETATM    4  O1  UNL     1       6.822  15.848  33.006  1.00  0.00    -0.247 OA
HETATM    5  N2  UNL     1       8.349  17.462  32.338  1.00  0.00    -0.343 N 
ATOM      6  H2  UNL     1       8.541  18.252  31.723  1.00  0.00     0.164 HD
HETATM    7  C17 UNL     1       4.721  16.708  31.273  1.00  0.00     0.372 C 
HETATM    8  O2  UNL     1       4.338  15.547  31.549  1.00  0.00    -0.238 OA
HETATM    9  O3  UNL     1       3.882  17.750  30.796  1.00  0.00    -0.290 OA
HETATM   10  C18 UNL     1       4.701  18.914  30.879  1.00  0.00     0.091 C 
HETATM   11  C19 UNL     1       4.234  20.109  30.176  1.00  0.00     0.049 C 
HETATM   12  C20 UNL     1       4.921  19.140  32.367  1.00  0.00     0.049 C 
ENDROOT
BRANCH   1  13
HETATM   13  C10 UNL     1       5.774  17.532  29.080  1.00  0.00     0.010 A 
HETATM   14  S1  UNL     1       5.074  18.086  27.622  1.00  0.00    -0.103 SA
HETATM   15  C9  UNL     1       5.205  16.666  26.689  1.00  0.00     0.062 A 
HETATM   16  C8  UNL     1       5.800  15.785  27.549  1.00  0.00    -0.018 A 
HETATM   17  C21 UNL     1       6.090  16.237  28.785  1.00  0.00     0.029 A 
BRANCH  16  18
HETATM   18  C7  UNL     1       6.120  14.399  27.105  1.00  0.00    -0.025 A 
HETATM   19  C6  UNL     1       6.791  14.148  25.936  1.00  0.00     0.013 A 
HETATM   20  C5  UNL     1       7.124  12.877  25.517  1.00  0.00     0.010 A 
HETATM   21  C4  UNL     1       6.774  11.799  26.298  1.00  0.00    -0.035 A 
HETATM   22  C23 UNL     1       6.087  12.013  27.502  1.00  0.00     0.010 A 
HETATM   23  C22 UNL     1       5.775  13.303  27.880  1.00  0.00     0.013 A 
BRANCH  21  24
HETATM   24  C2  UNL     1       7.133  10.444  25.868  1.00  0.00     0.057 C 
HETATM   25  C1  UNL     1       8.197  10.488  24.808  1.00  0.00     0.037 C 
HETATM   26  C3  UNL     1       7.748   9.720  27.072  1.00  0.00     0.037 C 
HETATM   27 CL1  UNL     1       5.724   9.517  25.319  1.00  0.00    -0.115 Cl
ENDBRANCH  21  24
ENDBRANCH  16  18
ENDBRANCH   1  13
BRANCH   5  28
HETATM   28  C13 UNL     1       9.381  17.036  33.258  1.00  0.00     0.125 C 
BRANCH  28  29
HETATM   29  C14 UNL     1      10.609  17.859  33.278  1.00  0.00     0.028 C 
BRANCH  29  30
HETATM   30  C15 UNL     1      11.432  17.833  32.042  1.00  0.00     0.119 C 
BRANCH  30  31
HETATM   31  C16 UNL     1      12.819  18.350  32.173  1.00  0.00     0.388 C 
HETATM   32  F1  UNL     1      13.007  19.106  33.319  1.00  0.00    -0.171 F 
HETATM   33  F2  UNL     1      12.987  19.288  31.107  1.00  0.00    -0.171 F 
HETATM   34  F3  UNL     1      13.749  17.372  31.996  1.00  0.00    -0.171 F 
ENDBRANCH  30  31
ENDBRANCH  29  30
ENDBRANCH  28  29
ENDBRANCH   5  28
TORSDOF 7
ENDMDL
MODEL 3
REMARK VINA RESULT: -7.395383963      2.965      4.932
REMARK  7 active torsions:
REMARK  status: ('A' for Active; 'I' for Inactive)
REMARK    1  A    between atoms: C2_2  and  C4_5 
REMARK    2  A    between atoms: C7_8  and  C8_9 
REMARK    3  A    between atoms: C10_12  and  C11_13 
REMARK       I    between atoms: N1_14  and  C12_15 
REMARK       I    between atoms: C12_15  and  N2_17 
REMARK    4  A    between atoms: N2_17  and  C13_19 
REMARK    5  A    between atoms: C13_19  and  C14_20 
REMARK    6  A    between atoms: C14_20  and  C15_21 
REMARK    7  A    between atoms: C15_21  and  C16_22 
ROOT
HETATM    1  C11 UNL     1       5.434  17.627  30.926  1.00  0.00     0.174 C 
HETATM    2  N1  UNL     1       4.563  16.692  31.672  1.00  0.00    -0.233 N 
HETATM    3  C12 UNL     1       4.763  15.915  32.806  1.00  0.00     0.327 C 
HETATM    4  O1  UNL     1       3.819  15.188  33.199  1.00  0.00    -0.247 OA
HETATM    5  N2  UNL     1       5.997  15.910  33.546  1.00  0.00    -0.343 N 
ATOM      6  H2  UNL     1       6.761  16.501  33.222  1.00  0.00     0.164 HD
HETATM    7  C17 UNL     1       3.338  16.827  30.909  1.00  0.00     0.372 C 
HETATM    8  O2  UNL     1       2.425  15.976  30.786  1.00  0.00    -0.238 OA
HETATM    9  O3  UNL     1       3.338  18.113  30.307  1.00  0.00    -0.290 OA
HETATM   10  C18 UNL     1       4.425  18.785  30.937  1.00  0.00     0.091 C 
HETATM   11  C19 UNL     1       4.885  20.031  30.322  1.00  0.00     0.049 C 
HETATM   12  C20 UNL     1       4.004  18.952  32.389  1.00  0.00     0.049 C 
ENDROOT
BRANCH   1  13
HETATM   13  C10 UNL     1       5.519  16.992  29.565  1.00  0.00     0.010 A 
HETATM   14  S1  UNL     1       5.304  17.728  28.037  1.00  0.00    -0.103 SA
HETATM   15  C9  UNL     1       5.596  16.383  27.032  1.00  0.00     0.062 A 
HETATM   16  C8  UNL     1       5.858  15.382  27.925  1.00  0.00    -0.018 A 
HETATM   17  C21 UNL     1       5.816  15.700  29.234  1.00  0.00     0.029 A 
BRANCH  16  18
HETATM   18  C7  UNL     1       6.194  14.012  27.443  1.00  0.00    -0.025 A 
HETATM   19  C6  UNL     1       6.591  13.774  26.152  1.00  0.00     0.013 A 
HETATM   20  C5  UNL     1       6.934  12.522  25.689  1.00  0.00     0.010 A 
HETATM   21  C4  UNL     1       6.880  11.449  26.550  1.00  0.00    -0.035 A 
HETATM   22  C23 UNL     1       6.479  11.650  27.879  1.00  0.00     0.010 A 
HETATM   23  C22 UNL     1       6.145  12.922  28.297  1.00  0.00     0.013 A 
BRANCH  21  24
HETATM   24  C2  UNL     1       7.254  10.114  26.071  1.00  0.00     0.057 C 
HETATM   25  C1  UNL     1       6.077   9.427  25.440  1.00  0.00     0.037 C 
HETATM   26  C3  UNL     1       8.298  10.293  24.963  1.00  0.00     0.037 C 
HETATM   27 CL1  UNL     1       7.965   9.114  27.352  1.00  0.00    -0.115 Cl
ENDBRANCH  21  24
ENDBRANCH  16  18
ENDBRANCH   1  13
BRANCH   5  28
HETATM   28  C13 UNL     1       6.201  15.105  34.731  1.00  0.00     0.125 C 
BRANCH  28  29
HETATM   29  C14 UNL     1       7.036  13.899  34.557  1.00  0.00     0.028 C 
BRANCH  29  30
HETATM   30  C15 UNL     1       6.389  12.751  33.872  1.00  0.00     0.119 C 
BRANCH  30  31
HETATM   31  C16 UNL     1       6.738  12.568  32.439  1.00  0.00     0.388 C 
HETATM   32  F1  UNL     1       7.714  13.451  32.004  1.00  0.00    -0.171 F 
HETATM   33  F2  UNL     1       5.572  12.950  31.703  1.00  0.00    -0.171 F 
HETATM   34  F3  UNL     1       6.993  11.266  32.136  1.00  0.00    -0.171 F 
ENDBRANCH  30  31
ENDBRANCH  29  30
ENDBRANCH  28  29
ENDBRANCH   5  28
TORSDOF 7
ENDMDL
MODEL 4
REMARK VINA RESULT: -7.376445520      3.968      5.259
REMARK  7 active torsions:
REMARK  status: ('A' for Active; 'I' for Inactive)
REMARK    1  A    between atoms: C2_2  and  C4_5 
REMARK    2  A    between atoms: C7_8  and  C8_9 
REMARK    3  A    between atoms: C10_12  and  C11_13 
REMARK       I    between atoms: N1_14  and  C12_15 
REMARK       I    between atoms: C12_15  and  N2_17 
REMARK    4  A    between atoms: N2_17  and  C13_19 
REMARK    5  A    between atoms: C13_19  and  C14_20 
REMARK    6  A    between atoms: C14_20  and  C15_21 
REMARK    7  A    between atoms: C15_21  and  C16_22 
ROOT
HETATM    1  C11 UNL     1       5.519  15.987  33.012  1.00  0.00     0.174 C 
HETATM    2  N1  UNL     1       6.678  15.073  33.112  1.00  0.00    -0.233 N 
HETATM    3  C12 UNL     1       8.029  15.282  33.356  1.00  0.00     0.327 C 
HETATM    4  O1  UNL     1       8.790  14.285  33.360  1.00  0.00    -0.247 OA
HETATM    5  N2  UNL     1       8.589  16.584  33.605  1.00  0.00    -0.343 N 
ATOM      6  H2  UNL     1       7.966  17.391  33.599  1.00  0.00     0.164 HD
HETATM    7  C17 UNL     1       6.008  13.799  32.933  1.00  0.00     0.372 C 
HETATM    8  O2  UNL     1       6.505  12.740  32.480  1.00  0.00    -0.238 OA
HETATM    9  O3  UNL     1       4.663  13.948  33.362  1.00  0.00    -0.290 OA
HETATM   10  C18 UNL     1       4.652  15.214  34.017  1.00  0.00     0.091 C 
HETATM   11  C19 UNL     1       3.344  15.802  34.309  1.00  0.00     0.049 C 
HETATM   12  C20 UNL     1       5.517  15.032  35.255  1.00  0.00     0.049 C 
ENDROOT
BRANCH   1  13
HETATM   13  C10 UNL     1       5.042  15.772  31.602  1.00  0.00     0.010 A 
HETATM   14  S1  UNL     1       3.640  16.398  30.850  1.00  0.00    -0.103 SA
HETATM   15  C9  UNL     1       3.838  15.740  29.291  1.00  0.00     0.062 A 
HETATM   16  C8  UNL     1       5.008  15.041  29.397  1.00  0.00    -0.018 A 
HETATM   17  C21 UNL     1       5.626  15.058  30.594  1.00  0.00     0.029 A 
BRANCH  16  18
HETATM   18  C7  UNL     1       5.563  14.316  28.218  1.00  0.00    -0.025 A 
HETATM   19  C6  UNL     1       5.508  12.950  28.114  1.00  0.00     0.013 A 
HETATM   20  C5  UNL     1       5.988  12.258  27.023  1.00  0.00     0.010 A 
HETATM   21  C4  UNL     1       6.551  12.958  25.979  1.00  0.00    -0.035 A 
HETATM   22  C23 UNL     1       6.626  14.357  26.046  1.00  0.00     0.010 A 
HETATM   23  C22 UNL     1       6.133  15.005  27.160  1.00  0.00     0.013 A 
BRANCH  21  24
HETATM   24  C2  UNL     1       7.054  12.233  24.808  1.00  0.00     0.057 C 
HETATM   25  C1  UNL     1       8.163  11.298  25.197  1.00  0.00     0.037 C 
HETATM   26  C3  UNL     1       5.913  11.358  24.276  1.00  0.00     0.037 C 
HETATM   27 CL1  UNL     1       7.569  13.327  23.510  1.00  0.00    -0.115 Cl
ENDBRANCH  21  24
ENDBRANCH  16  18
ENDBRANCH   1  13
BRANCH   5  28
HETATM   28  C13 UNL     1       9.996  16.799  33.865  1.00  0.00     0.125 C 
BRANCH  28  29
HETATM   29  C14 UNL     1      10.586  18.012  33.261  1.00  0.00     0.028 C 
BRANCH  29  30
HETATM   30  C15 UNL     1      11.442  17.796  32.067  1.00  0.00     0.119 C 
BRANCH  30  31
HETATM   31  C16 UNL     1      12.794  18.411  32.116  1.00  0.00     0.388 C 
HETATM   32  F1  UNL     1      12.986  19.206  33.235  1.00  0.00    -0.171 F 
HETATM   33  F2  UNL     1      12.842  19.332  31.023  1.00  0.00    -0.171 F 
HETATM   34  F3  UNL     1      13.780  17.496  31.911  1.00  0.00    -0.171 F 
ENDBRANCH  30  31
ENDBRANCH  29  30
ENDBRANCH  28  29
ENDBRANCH   5  28
TORSDOF 7
ENDMDL
MODEL 5
REMARK VINA RESULT: -7.374456895      4.010      5.589
REMARK  7 active torsions:
REMARK  status: ('A' for Active; 'I' for Inactive)
REMARK    1  A    between atoms: C2_2  and  C4_5 
REMARK    2  A    between atoms: C7_8  and  C8_9 
REMARK    3  A    between atoms: C10_12  and  C11_13 
REMARK       I    between atoms: N1_14  and  C12_15 
REMARK       I    between atoms: C12_15  and  N2_17 
REMARK    4  A    between atoms: N2_17  and  C13_19 
REMARK    5  A    between atoms: C13_19  and  C14_20 
REMARK    6  A    between atoms: C14_20  and  C15_21 
REMARK    7  A    between atoms: C15_21  and  C16_22 
ROOT
HETATM    1  C11 UNL     1       5.784  18.597  30.213  1.00  0.00     0.174 C 
HETATM    2  N1  UNL     1       5.858  17.568  31.274  1.00  0.00    -0.233 N 
HETATM    3  C12 UNL     1       6.846  17.223  32.188  1.00  0.00     0.327 C 
HETATM    4  O1  UNL     1       6.620  16.268  32.969  1.00  0.00    -0.247 OA
HETATM    5  N2  UNL     1       8.105  17.912  32.279  1.00  0.00    -0.343 N 
ATOM      6  H2  UNL     1       8.284  18.686  31.641  1.00  0.00     0.164 HD
HETATM    7  C17 UNL     1       4.532  16.993  31.159  1.00  0.00     0.372 C 
HETATM    8  O2  UNL     1       4.183  15.829  31.467  1.00  0.00    -0.238 OA
HETATM    9  O3  UNL     1       3.669  17.987  30.626  1.00  0.00    -0.290 OA
HETATM   10  C18 UNL     1       4.445  19.181  30.687  1.00  0.00     0.091 C 
HETATM   11  C19 UNL     1       3.954  20.334  29.932  1.00  0.00     0.049 C 
HETATM   12  C20 UNL     1       4.622  19.466  32.171  1.00  0.00     0.049 C 
ENDROOT
BRANCH   1  13
HETATM   13  C10 UNL     1       5.608  17.778  28.963  1.00  0.00     0.010 A 
HETATM   14  S1  UNL     1       4.934  18.259  27.467  1.00  0.00    -0.103 SA
HETATM   15  C9  UNL     1       5.131  16.811  26.590  1.00  0.00     0.062 A 
HETATM   16  C8  UNL     1       5.726  15.980  27.497  1.00  0.00    -0.018 A 
HETATM   17  C21 UNL     1       5.970  16.483  28.724  1.00  0.00     0.029 A 
BRANCH  16  18
HETATM   18  C7  UNL     1       6.098  14.588  27.113  1.00  0.00    -0.025 A 
HETATM   19  C6  UNL     1       5.748  13.506  27.879  1.00  0.00     0.013 A 
HETATM   20  C5  UNL     1       6.055  12.207  27.532  1.00  0.00     0.010 A 
HETATM   21  C4  UNL     1       6.745  11.969  26.364  1.00  0.00    -0.035 A 
HETATM   22  C23 UNL     1       7.121  13.050  25.552  1.00  0.00     0.010 A 
HETATM   23  C22 UNL     1       6.792  14.332  25.941  1.00  0.00     0.013 A 
BRANCH  21  24
HETATM   24  C2  UNL     1       7.066  10.592  25.979  1.00  0.00     0.057 C 
HETATM   25  C1  UNL     1       5.876   9.923  25.352  1.00  0.00     0.037 C 
HETATM   26  C3  UNL     1       8.152  10.650  24.898  1.00  0.00     0.037 C 
HETATM   27 CL1  UNL     1       7.686   9.641  27.342  1.00  0.00    -0.115 Cl
ENDBRANCH  21  24
ENDBRANCH  16  18
ENDBRANCH   1  13
BRANCH   5  28
HETATM   28  C13 UNL     1       9.130  17.555  33.236  1.00  0.00     0.125 C 
BRANCH  28  29
HETATM   29  C14 UNL     1      10.386  18.329  33.157  1.00  0.00     0.028 C 
BRANCH  29  30
HETATM   30  C15 UNL     1      11.368  17.876  32.138  1.00  0.00     0.119 C 
BRANCH  30  31
HETATM   31  C16 UNL     1      12.683  18.568  32.151  1.00  0.00     0.388 C 
HETATM   32  F1  UNL     1      12.890  19.357  31.030  1.00  0.00    -0.171 F 
HETATM   33  F2  UNL     1      13.666  17.535  32.034  1.00  0.00    -0.171 F 
HETATM   34  F3  UNL     1      12.914  19.207  33.330  1.00  0.00    -0.171 F 
ENDBRANCH  30  31
ENDBRANCH  29  30
ENDBRANCH  28  29
ENDBRANCH   5  28
TORSDOF 7
ENDMDL
