MODEL 1
REMARK VINA RESULT: -9.697585593      0.000      0.000
REMARK  7 active torsions:
REMARK  status: ('A' for Active; 'I' for Inactive)
REMARK    1  A    between atoms: C2_2  and  C3_4 
REMARK    2  A    between atoms: C7_8  and  C8_9 
REMARK    3  A    between atoms: C9_10  and  O1_11 
REMARK    4  A    between atoms: C13_18  and  O4_19 
REMARK    5  A    between atoms: O4_19  and  C14_20 
REMARK    6  A    between atoms: C14_20  and  C15_21 
REMARK    7  A    between atoms: C18_24  and  C19_25 
ROOT
HETATM    1  C8  UNL     1       6.304  13.119  26.687  1.00  0.00     0.055 A 
HETATM    2  C9  UNL     1       6.676  14.366  26.205  1.00  0.00     0.194 A 
HETATM    3  O2  UNL     1       6.713  15.386  27.031  1.00  0.00    -0.291 OA
HETATM    4  C10 UNL     1       6.414  15.281  28.296  1.00  0.00     0.069 A 
HETATM    5  C11 UNL     1       6.042  14.049  28.835  1.00  0.00     0.052 A 
HETATM    6  C12 UNL     1       5.980  12.957  28.046  1.00  0.00     0.194 A 
HETATM    7  O3  UNL     1       5.648  11.870  28.561  1.00  0.00    -0.287 OA
HETATM    8  C13 UNL     1       5.802  14.112  30.292  1.00  0.00     0.168 C 
HETATM    9  C22 UNL     1       4.663  15.080  30.458  1.00  0.00     0.046 C 
HETATM   10  C23 UNL     1       5.251  16.464  30.176  1.00  0.00    -0.039 C 
HETATM   11  C24 UNL     1       4.220  17.404  29.617  1.00  0.00     0.015 C 
HETATM   12  C25 UNL     1       5.704  17.064  31.520  1.00  0.00     0.015 C 
HETATM   13  C26 UNL     1       6.428  16.409  29.263  1.00  0.00     0.074 C 
ENDROOT
BRANCH   8  14
HETATM   14  O4  UNL     1       5.740  12.940  30.977  1.00  0.00    -0.352 OA
BRANCH  14  15
HETATM   15  C14 UNL     1       6.982  12.775  31.584  1.00  0.00     0.147 C 
BRANCH  15  16
HETATM   16  C15 UNL     1       7.178  13.238  32.941  1.00  0.00    -0.014 A 
HETATM   17  C16 UNL     1       6.488  12.555  33.954  1.00  0.00     0.014 A 
HETATM   18  C17 UNL     1       6.527  12.913  35.273  1.00  0.00     0.017 A 
HETATM   19  C18 UNL     1       7.266  13.981  35.661  1.00  0.00     0.048 A 
HETATM   20  C20 UNL     1       7.962  14.682  34.711  1.00  0.00     0.017 A 
HETATM   21  C21 UNL     1       7.919  14.315  33.367  1.00  0.00     0.014 A 
BRANCH  19  22
HETATM   22  C19 UNL     1       7.241  14.337  37.117  1.00  0.00     0.417 C 
HETATM   23  F1  UNL     1       6.888  13.182  37.831  1.00  0.00    -0.166 F 
HETATM   24  F2  UNL     1       8.497  14.722  37.556  1.00  0.00    -0.166 F 
HETATM   25  F3  UNL     1       6.312  15.291  37.425  1.00  0.00    -0.166 F 
ENDBRANCH  19  22
ENDBRANCH  15  16
ENDBRANCH  14  15
ENDBRANCH   8  14
BRANCH   1  26
HETATM   26  C7  UNL     1       6.285  11.982  25.780  1.00  0.00     0.032 C 
HETATM   27  C5  UNL     1       7.395  10.972  25.898  1.00  0.00    -0.010 C 
HETATM   28  C4  UNL     1       6.671   9.598  25.841  1.00  0.00     0.011 C 
HETATM   29  C6  UNL     1       8.366  10.973  24.756  1.00  0.00     0.010 C 
HETATM   30  C3  UNL     1       5.512   9.941  24.930  1.00  0.00     0.005 C 
HETATM   31  C27 UNL     1       4.996  11.245  25.598  1.00  0.00     0.016 C 
BRANCH  30  32
HETATM   32  C2  UNL     1       4.459   8.902  24.829  1.00  0.00     0.082 C 
HETATM   33  C1  UNL     1       3.655   8.926  23.552  1.00  0.00     0.027 C 
HETATM   34 CL1  UNL     1       5.176   7.321  25.154  1.00  0.00    -0.125 Cl
ENDBRANCH  30  32
ENDBRANCH   1  26
BRANCH   2  35
HETATM   35  O1  UNL     1       7.003  14.520  24.868  1.00  0.00    -0.340 OA
ATOM     36  H1  UNL     1       7.662  15.153  24.612  1.00  0.00     0.220 HD
ENDBRANCH   2  35
TORSDOF 7
ENDMDL
MODEL 2
REMARK VINA RESULT: -9.596390130      0.183      1.035
REMARK  7 active torsions:
REMARK  status: ('A' for Active; 'I' for Inactive)
REMARK    1  A    between atoms: C2_2  and  C3_4 
REMARK    2  A    between atoms: C7_8  and  C8_9 
REMARK    3  A    between atoms: C9_10  and  O1_11 
REMARK    4  A    between atoms: C13_18  and  O4_19 
REMARK    5  A    between atoms: O4_19  and  C14_20 
REMARK    6  A    between atoms: C14_20  and  C15_21 
REMARK    7  A    between atoms: C18_24  and  C19_25 
ROOT
HETATM    1  C8  UNL     1       6.306  13.133  26.653  1.00  0.00     0.055 A 
HETATM    2  C9  UNL     1       6.663  14.376  26.150  1.00  0.00     0.194 A 
HETATM    3  O2  UNL     1       6.687  15.410  26.958  1.00  0.00    -0.291 OA
HETATM    4  C10 UNL     1       6.388  15.324  28.225  1.00  0.00     0.069 A 
HETATM    5  C11 UNL     1       6.032  14.097  28.785  1.00  0.00     0.052 A 
HETATM    6  C12 UNL     1       5.983  12.991  28.015  1.00  0.00     0.194 A 
HETATM    7  O3  UNL     1       5.664  11.909  28.549  1.00  0.00    -0.287 OA
HETATM    8  C13 UNL     1       5.790  14.183  30.240  1.00  0.00     0.168 C 
HETATM    9  C22 UNL     1       4.638  15.139  30.389  1.00  0.00     0.046 C 
HETATM   10  C23 UNL     1       5.210  16.525  30.083  1.00  0.00    -0.039 C 
HETATM   11  C24 UNL     1       4.168  17.443  29.507  1.00  0.00     0.015 C 
HETATM   12  C25 UNL     1       5.655  17.154  31.417  1.00  0.00     0.015 C 
HETATM   13  C26 UNL     1       6.388  16.469  29.172  1.00  0.00     0.074 C 
ENDROOT
BRANCH   8  14
HETATM   14  O4  UNL     1       5.742  13.022  30.945  1.00  0.00    -0.352 OA
BRANCH  14  15
HETATM   15  C14 UNL     1       6.931  12.952  31.666  1.00  0.00     0.147 C 
BRANCH  15  16
HETATM   16  C15 UNL     1       6.922  13.240  33.085  1.00  0.00    -0.014 A 
HETATM   17  C16 UNL     1       7.545  14.427  33.498  1.00  0.00     0.014 A 
HETATM   18  C17 UNL     1       7.667  14.803  34.807  1.00  0.00     0.017 A 
HETATM   19  C18 UNL     1       7.168  14.009  35.787  1.00  0.00     0.048 A 
HETATM   20  C20 UNL     1       6.547  12.839  35.437  1.00  0.00     0.017 A 
HETATM   21  C21 UNL     1       6.425  12.458  34.101  1.00  0.00     0.014 A 
BRANCH  19  22
HETATM   22  C19 UNL     1       7.362  14.466  37.202  1.00  0.00     0.417 C 
HETATM   23  F1  UNL     1       8.706  14.842  37.346  1.00  0.00    -0.166 F 
HETATM   24  F2  UNL     1       6.593  15.584  37.474  1.00  0.00    -0.166 F 
HETATM   25  F3  UNL     1       7.127  13.485  38.124  1.00  0.00    -0.166 F 
ENDBRANCH  19  22
ENDBRANCH  15  16
ENDBRANCH  14  15
ENDBRANCH   8  14
BRANCH   1  26
HETATM   26  C7  UNL     1       6.301  11.980  25.767  1.00  0.00     0.032 C 
HETATM   27  C5  UNL     1       7.410  10.973  25.919  1.00  0.00    -0.010 C 
HETATM   28  C4  UNL     1       6.688   9.598  25.875  1.00  0.00     0.011 C 
HETATM   29  C6  UNL     1       8.398  10.955  24.792  1.00  0.00     0.010 C 
HETATM   30  C3  UNL     1       5.543   9.924  24.941  1.00  0.00     0.005 C 
HETATM   31  C27 UNL     1       5.016  11.239  25.578  1.00  0.00     0.016 C 
BRANCH  30  32
HETATM   32  C2  UNL     1       4.492   8.882  24.843  1.00  0.00     0.082 C 
HETATM   33  C1  UNL     1       3.688   8.902  23.566  1.00  0.00     0.027 C 
HETATM   34 CL1  UNL     1       5.213   7.303  25.171  1.00  0.00    -0.125 Cl
ENDBRANCH  30  32
ENDBRANCH   1  26
BRANCH   2  35
HETATM   35  O1  UNL     1       6.988  14.511  24.811  1.00  0.00    -0.340 OA
ATOM     36  H1  UNL     1       7.313  15.341  24.484  1.00  0.00     0.220 HD
ENDBRANCH   2  35
TORSDOF 7
ENDMDL
MODEL 3
REMARK VINA RESULT: -9.314287019      0.804      1.031
REMARK  7 active torsions:
REMARK  status: ('A' for Active; 'I' for Inactive)
REMARK    1  A    between atoms: C2_2  and  C3_4 
REMARK    2  A    between atoms: C7_8  and  C8_9 
REMARK    3  A    between atoms: C9_10  and  O1_11 
REMARK    4  A    between atoms: C13_18  and  O4_19 
REMARK    5  A    between atoms: O4_19  and  C14_20 
REMARK    6  A    between atoms: C14_20  and  C15_21 
REMARK    7  A    between atoms: C18_24  and  C19_25 
ROOT
HETATM    1  C8  UNL     1       6.273  13.132  26.429  1.00  0.00     0.055 A 
HETATM    2  C9  UNL     1       6.628  14.333  25.830  1.00  0.00     0.194 A 
HETATM    3  O2  UNL     1       6.593  15.436  26.541  1.00  0.00    -0.291 OA
HETATM    4  C10 UNL     1       6.238  15.457  27.795  1.00  0.00     0.069 A 
HETATM    5  C11 UNL     1       5.880  14.278  28.449  1.00  0.00     0.052 A 
HETATM    6  C12 UNL     1       5.890  13.106  27.782  1.00  0.00     0.194 A 
HETATM    7  O3  UNL     1       5.567  12.070  28.398  1.00  0.00    -0.287 OA
HETATM    8  C13 UNL     1       5.568  14.489  29.878  1.00  0.00     0.168 C 
HETATM    9  C22 UNL     1       4.392  15.426  29.887  1.00  0.00     0.046 C 
HETATM   10  C23 UNL     1       4.950  16.793  29.482  1.00  0.00    -0.039 C 
HETATM   11  C24 UNL     1       3.918  17.629  28.779  1.00  0.00     0.015 C 
HETATM   12  C25 UNL     1       5.319  17.550  30.771  1.00  0.00     0.015 C 
HETATM   13  C26 UNL     1       6.170  16.683  28.633  1.00  0.00     0.074 C 
ENDROOT
BRANCH   8  14
HETATM   14  O4  UNL     1       5.511  13.396  30.683  1.00  0.00    -0.352 OA
BRANCH  14  15
HETATM   15  C14 UNL     1       6.723  13.348  31.366  1.00  0.00     0.147 C 
BRANCH  15  16
HETATM   16  C15 UNL     1       6.723  13.242  32.810  1.00  0.00    -0.014 A 
HETATM   17  C16 UNL     1       5.755  13.984  33.504  1.00  0.00     0.014 A 
HETATM   18  C17 UNL     1       5.669  14.030  34.868  1.00  0.00     0.017 A 
HETATM   19  C18 UNL     1       6.551  13.331  35.624  1.00  0.00     0.048 A 
HETATM   20  C20 UNL     1       7.515  12.587  34.996  1.00  0.00     0.017 A 
HETATM   21  C21 UNL     1       7.601  12.542  33.605  1.00  0.00     0.014 A 
BRANCH  19  22
HETATM   22  C19 UNL     1       6.419  13.449  37.113  1.00  0.00     0.417 C 
HETATM   23  F1  UNL     1       5.101  13.839  37.393  1.00  0.00    -0.166 F 
HETATM   24  F2  UNL     1       6.623  12.226  37.729  1.00  0.00    -0.166 F 
HETATM   25  F3  UNL     1       7.235  14.402  37.654  1.00  0.00    -0.166 F 
ENDBRANCH  19  22
ENDBRANCH  15  16
ENDBRANCH  14  15
ENDBRANCH   8  14
BRANCH   1  26
HETATM   26  C7  UNL     1       6.333  11.904  25.652  1.00  0.00     0.032 C 
HETATM   27  C5  UNL     1       7.415  10.914  25.988  1.00  0.00    -0.010 C 
HETATM   28  C4  UNL     1       6.688   9.541  26.006  1.00  0.00     0.011 C 
HETATM   29  C6  UNL     1       8.495  10.793  24.954  1.00  0.00     0.010 C 
HETATM   30  C3  UNL     1       5.628   9.783  24.953  1.00  0.00     0.005 C 
HETATM   31  C27 UNL     1       5.061  11.150  25.422  1.00  0.00     0.016 C 
BRANCH  30  32
HETATM   32  C2  UNL     1       4.581   8.738  24.859  1.00  0.00     0.082 C 
HETATM   33  C1  UNL     1       3.693   8.827  23.641  1.00  0.00     0.027 C 
HETATM   34 CL1  UNL     1       5.332   7.150  25.041  1.00  0.00    -0.125 Cl
ENDBRANCH  30  32
ENDBRANCH   1  26
BRANCH   2  35
HETATM   35  O1  UNL     1       7.013  14.354  24.501  1.00  0.00    -0.340 OA
ATOM     36  H1  UNL     1       7.931  14.273  24.272  1.00  0.00     0.220 HD
ENDBRANCH   2  35
TORSDOF 7
ENDMDL
MODEL 4
REMARK VINA RESULT: -9.149545287      1.128      1.502
REMARK  7 active torsions:
REMARK  status: ('A' for Active; 'I' for Inactive)
REMARK    1  A    between atoms: C2_2  and  C3_4 
REMARK    2  A    between atoms: C7_8  and  C8_9 
REMARK    3  A    between atoms: C9_10  and  O1_11 
REMARK    4  A    between atoms: C13_18  and  O4_19 
REMARK    5  A    between atoms: O4_19  and  C14_20 
REMARK    6  A    between atoms: C14_20  and  C15_21 
REMARK    7  A    between atoms: C18_24  and  C19_25 
ROOT
HETATM    1  C8  UNL     1       6.308  13.042  26.441  1.00  0.00     0.055 A 
HETATM    2  C9  UNL     1       6.704  14.245  25.876  1.00  0.00     0.194 A 
HETATM    3  O2  UNL     1       6.702  15.330  26.616  1.00  0.00    -0.291 OA
HETATM    4  C10 UNL     1       6.342  15.329  27.870  1.00  0.00     0.069 A 
HETATM    5  C11 UNL     1       5.944  14.144  28.490  1.00  0.00     0.052 A 
HETATM    6  C12 UNL     1       5.919  12.991  27.792  1.00  0.00     0.194 A 
HETATM    7  O3  UNL     1       5.561  11.950  28.379  1.00  0.00    -0.287 OA
HETATM    8  C13 UNL     1       5.634  14.328  29.923  1.00  0.00     0.168 C 
HETATM    9  C22 UNL     1       4.488  15.302  29.954  1.00  0.00     0.046 C 
HETATM   10  C23 UNL     1       5.091  16.660  29.587  1.00  0.00    -0.039 C 
HETATM   11  C24 UNL     1       4.089  17.548  28.903  1.00  0.00     0.015 C 
HETATM   12  C25 UNL     1       5.480  17.370  30.897  1.00  0.00     0.015 C 
HETATM   13  C26 UNL     1       6.311  16.534  28.740  1.00  0.00     0.074 C 
ENDROOT
BRANCH   8  14
HETATM   14  O4  UNL     1       5.538  13.216  30.699  1.00  0.00    -0.352 OA
BRANCH  14  15
HETATM   15  C14 UNL     1       5.286  13.662  31.994  1.00  0.00     0.147 C 
BRANCH  15  16
HETATM   16  C15 UNL     1       6.389  13.821  32.918  1.00  0.00    -0.014 A 
HETATM   17  C16 UNL     1       6.582  15.099  33.466  1.00  0.00     0.014 A 
HETATM   18  C17 UNL     1       7.614  15.415  34.305  1.00  0.00     0.017 A 
HETATM   19  C18 UNL     1       8.518  14.467  34.651  1.00  0.00     0.048 A 
HETATM   20  C20 UNL     1       8.374  13.201  34.147  1.00  0.00     0.017 A 
HETATM   21  C21 UNL     1       7.321  12.881  33.290  1.00  0.00     0.014 A 
BRANCH  19  22
HETATM   22  C19 UNL     1       9.641  14.888  35.551  1.00  0.00     0.417 C 
HETATM   23  F1  UNL     1       9.122  15.012  36.849  1.00  0.00    -0.166 F 
HETATM   24  F2  UNL     1      10.631  13.921  35.597  1.00  0.00    -0.166 F 
HETATM   25  F3  UNL     1      10.172  16.103  35.222  1.00  0.00    -0.166 F 
ENDBRANCH  19  22
ENDBRANCH  15  16
ENDBRANCH  14  15
ENDBRANCH   8  14
BRANCH   1  26
HETATM   26  C7  UNL     1       6.331  11.833  25.632  1.00  0.00     0.032 C 
HETATM   27  C5  UNL     1       7.397  10.812  25.927  1.00  0.00    -0.010 C 
HETATM   28  C4  UNL     1       6.640   9.455  25.919  1.00  0.00     0.011 C 
HETATM   29  C6  UNL     1       8.461  10.695  24.876  1.00  0.00     0.010 C 
HETATM   30  C3  UNL     1       5.573   9.747  24.887  1.00  0.00     0.005 C 
HETATM   31  C27 UNL     1       5.041  11.113  25.399  1.00  0.00     0.016 C 
BRANCH  30  32
HETATM   32  C2  UNL     1       4.502   8.727  24.780  1.00  0.00     0.082 C 
HETATM   33  C1  UNL     1       3.669   8.801  23.524  1.00  0.00     0.027 C 
HETATM   34 CL1  UNL     1       5.201   7.126  25.041  1.00  0.00    -0.125 Cl
ENDBRANCH  30  32
ENDBRANCH   1  26
BRANCH   2  35
HETATM   35  O1  UNL     1       7.095  14.290  24.549  1.00  0.00    -0.340 OA
ATOM     36  H1  UNL     1       8.013  14.388  24.329  1.00  0.00     0.220 HD
ENDBRANCH   2  35
TORSDOF 7
ENDMDL
MODEL 5
REMARK VINA RESULT: -9.053431371      0.976      1.494
REMARK  7 active torsions:
REMARK  status: ('A' for Active; 'I' for Inactive)
REMARK    1  A    between atoms: C2_2  and  C3_4 
REMARK    2  A    between atoms: C7_8  and  C8_9 
REMARK    3  A    between atoms: C9_10  and  O1_11 
REMARK    4  A    between atoms: C13_18  and  O4_19 
REMARK    5  A    between atoms: O4_19  and  C14_20 
REMARK    6  A    between atoms: C14_20  and  C15_21 
REMARK    7  A    between atoms: C18_24  and  C19_25 
ROOT
HETATM    1  C8  UNL     1       6.295  13.071  26.624  1.00  0.00     0.055 A 
HETATM    2  C9  UNL     1       6.695  14.310  26.145  1.00  0.00     0.194 A 
HETATM    3  O2  UNL     1       6.754  15.327  26.974  1.00  0.00    -0.291 OA
HETATM    4  C10 UNL     1       6.451  15.226  28.238  1.00  0.00     0.069 A 
HETATM    5  C11 UNL     1       6.051  14.001  28.774  1.00  0.00     0.052 A 
HETATM    6  C12 UNL     1       5.966  12.913  27.982  1.00  0.00     0.194 A 
HETATM    7  O3  UNL     1       5.608  11.833  28.494  1.00  0.00    -0.287 OA
HETATM    8  C13 UNL     1       5.811  14.066  30.230  1.00  0.00     0.168 C 
HETATM    9  C22 UNL     1       4.693  15.058  30.398  1.00  0.00     0.046 C 
HETATM   10  C23 UNL     1       5.313  16.430  30.120  1.00  0.00    -0.039 C 
HETATM   11  C24 UNL     1       4.304  17.395  29.562  1.00  0.00     0.015 C 
HETATM   12  C25 UNL     1       5.778  17.016  31.466  1.00  0.00     0.015 C 
HETATM   13  C26 UNL     1       6.489  16.352  29.208  1.00  0.00     0.074 C 
ENDROOT
BRANCH   8  14
HETATM   14  O4  UNL     1       5.722  12.894  30.912  1.00  0.00    -0.352 OA
BRANCH  14  15
HETATM   15  C14 UNL     1       6.823  12.851  31.763  1.00  0.00     0.147 C 
BRANCH  15  16
HETATM   16  C15 UNL     1       6.901  13.775  32.875  1.00  0.00    -0.014 A 
HETATM   17  C16 UNL     1       8.068  14.548  32.981  1.00  0.00     0.014 A 
HETATM   18  C17 UNL     1       8.309  15.419  34.007  1.00  0.00     0.017 A 
HETATM   19  C18 UNL     1       7.391  15.571  34.994  1.00  0.00     0.048 A 
HETATM   20  C20 UNL     1       6.233  14.842  34.936  1.00  0.00     0.017 A 
HETATM   21  C21 UNL     1       5.990  13.954  33.889  1.00  0.00     0.014 A 
BRANCH  19  22
HETATM   22  C19 UNL     1       7.732  16.519  36.104  1.00  0.00     0.417 C 
HETATM   23  F1  UNL     1       8.233  17.693  35.521  1.00  0.00    -0.166 F 
HETATM   24  F2  UNL     1       6.601  16.870  36.822  1.00  0.00    -0.166 F 
HETATM   25  F3  UNL     1       8.705  16.048  36.939  1.00  0.00    -0.166 F 
ENDBRANCH  19  22
ENDBRANCH  15  16
ENDBRANCH  14  15
ENDBRANCH   8  14
BRANCH   1  26
HETATM   26  C7  UNL     1       6.251  11.937  25.714  1.00  0.00     0.032 C 
HETATM   27  C5  UNL     1       7.378  10.941  25.780  1.00  0.00    -0.010 C 
HETATM   28  C4  UNL     1       6.670   9.558  25.748  1.00  0.00     0.011 C 
HETATM   29  C6  UNL     1       8.299  10.959  24.597  1.00  0.00     0.010 C 
HETATM   30  C3  UNL     1       5.469   9.889  24.890  1.00  0.00     0.005 C 
HETATM   31  C27 UNL     1       4.965  11.184  25.584  1.00  0.00     0.016 C 
BRANCH  30  32
HETATM   32  C2  UNL     1       4.426   8.837  24.830  1.00  0.00     0.082 C 
HETATM   33  C1  UNL     1       3.533   8.888  23.615  1.00  0.00     0.027 C 
HETATM   34 CL1  UNL     1       5.186   7.258  25.052  1.00  0.00    -0.125 Cl
ENDBRANCH  30  32
ENDBRANCH   1  26
BRANCH   2  35
HETATM   35  O1  UNL     1       7.026  14.461  24.810  1.00  0.00    -0.340 OA
ATOM     36  H1  UNL     1       7.625  15.149  24.545  1.00  0.00     0.220 HD
ENDBRANCH   2  35
TORSDOF 7
ENDMDL
