MODEL 1
REMARK VINA RESULT: -9.435034869      0.000      0.000
REMARK  6 active torsions:
REMARK  status: ('A' for Active; 'I' for Inactive)
REMARK    1  A    between atoms: C1_2  and  C2_3 
REMARK    2  A    between atoms: C1_2  and  C13_19 
REMARK    3  A    between atoms: C5_7  and  C6_8 
REMARK    4  A    between atoms: C8_10  and  C9_11 
REMARK    5  A    between atoms: C14_20  and  N1_21 
REMARK       I    between atoms: N1_21  and  C15_23 
REMARK    6  A    between atoms: C15_23  and  C16_25 
ROOT
HETATM    1  C13 UNL     1       6.275  13.430  26.697  1.00  0.00     0.058 A 
HETATM    2  C14 UNL     1       5.696  14.450  27.420  1.00  0.00     0.092 A 
HETATM    3  S1  UNL     1       6.082  15.873  26.502  1.00  0.00    -0.075 SA
HETATM    4  C21 UNL     1       6.942  15.145  25.262  1.00  0.00    -0.008 A 
HETATM    5  C22 UNL     1       6.925  13.796  25.566  1.00  0.00    -0.028 A 
HETATM    6  C23 UNL     1       7.601  13.029  24.489  1.00  0.00     0.041 C 
HETATM    7  C24 UNL     1       7.260  13.522  23.107  1.00  0.00     0.005 C 
HETATM    8  C25 UNL     1       6.977  14.942  22.910  1.00  0.00     0.005 C 
HETATM    9  C26 UNL     1       7.641  15.693  24.051  1.00  0.00     0.047 C 
ENDROOT
BRANCH   1  10
HETATM   10  C1  UNL     1       6.116  12.063  27.196  1.00  0.00     0.220 C 
HETATM   11  O1  UNL     1       5.327  11.839  28.137  1.00  0.00    -0.284 OA
BRANCH  10  12
HETATM   12  C2  UNL     1       6.838  10.913  26.692  1.00  0.00     0.137 A 
HETATM   13  O2  UNL     1       8.083  10.603  27.141  1.00  0.00    -0.318 OA
HETATM   14  C3  UNL     1       8.549   9.566  26.589  1.00  0.00     0.143 A 
HETATM   15  C4  UNL     1       7.643   9.068  25.696  1.00  0.00     0.040 A 
HETATM   16  C5  UNL     1       6.523   9.968  25.778  1.00  0.00     0.017 A 
BRANCH  16  17
HETATM   17  C6  UNL     1       5.378   9.746  24.917  1.00  0.00     0.016 A 
HETATM   18  C7  UNL     1       5.067  10.715  23.928  1.00  0.00     0.031 A 
HETATM   19  C8  UNL     1       4.054  10.544  23.026  1.00  0.00     0.048 A 
HETATM   20  C10 UNL     1       3.270   9.400  23.039  1.00  0.00     0.019 A 
HETATM   21  C11 UNL     1       3.553   8.447  23.998  1.00  0.00     0.044 A 
HETATM   22  C12 UNL     1       4.599   8.636  24.914  1.00  0.00     0.127 A 
HETATM   23  F4  UNL     1       4.832   7.631  25.781  1.00  0.00    -0.205 F 
BRANCH  19  24
HETATM   24  C9  UNL     1       3.773  11.554  21.951  1.00  0.00     0.417 C 
HETATM   25  F1  UNL     1       4.014  11.023  20.717  1.00  0.00    -0.166 F 
HETATM   26  F2  UNL     1       4.664  12.603  22.155  1.00  0.00    -0.166 F 
HETATM   27  F3  UNL     1       2.462  12.020  22.040  1.00  0.00    -0.166 F 
ENDBRANCH  19  24
ENDBRANCH  16  17
ENDBRANCH  10  12
ENDBRANCH   1  10
BRANCH   2  28
HETATM   28  N1  UNL     1       4.948  14.497  28.625  1.00  0.00    -0.320 N 
HETATM   29  C15 UNL     1       5.620  14.852  29.866  1.00  0.00     0.226 C 
HETATM   30  O3  UNL     1       6.848  15.098  29.801  1.00  0.00    -0.273 OA
ATOM     31  H1  UNL     1       3.950  14.283  28.621  1.00  0.00     0.169 HD
BRANCH  29  32
HETATM   32  C16 UNL     1       4.978  14.939  31.163  1.00  0.00     0.078 C 
HETATM   33  C17 UNL     1       5.673  14.209  32.277  1.00  0.00     0.014 C 
HETATM   34  C18 UNL     1       5.310  15.049  33.499  1.00  0.00     0.001 C 
HETATM   35  C19 UNL     1       5.416  16.480  32.992  1.00  0.00     0.001 C 
HETATM   36  C20 UNL     1       4.883  16.402  31.561  1.00  0.00     0.014 C 
ENDBRANCH  29  32
ENDBRANCH   2  28
TORSDOF 6
ENDMDL
MODEL 2
REMARK VINA RESULT: -9.353592070      2.625      4.095
REMARK  6 active torsions:
REMARK  status: ('A' for Active; 'I' for Inactive)
REMARK    1  A    between atoms: C1_2  and  C2_3 
REMARK    2  A    between atoms: C1_2  and  C13_19 
REMARK    3  A    between atoms: C5_7  and  C6_8 
REMARK    4  A    between atoms: C8_10  and  C9_11 
REMARK    5  A    between atoms: C14_20  and  N1_21 
REMARK       I    between atoms: N1_21  and  C15_23 
REMARK    6  A    between atoms: C15_23  and  C16_25 
ROOT
HETATM    1  C13 UNL     1       5.897  15.857  27.930  1.00  0.00     0.058 A 
HETATM    2  C14 UNL     1       6.433  15.883  29.199  1.00  0.00     0.092 A 
HETATM    3  S1  UNL     1       6.037  17.472  29.778  1.00  0.00    -0.075 SA
HETATM    4  C21 UNL     1       5.225  18.036  28.426  1.00  0.00    -0.008 A 
HETATM    5  C22 UNL     1       5.264  16.985  27.528  1.00  0.00    -0.028 A 
HETATM    6  C23 UNL     1       4.504  17.342  26.302  1.00  0.00     0.041 C 
HETATM    7  C24 UNL     1       3.220  18.075  26.594  1.00  0.00     0.005 C 
HETATM    8  C25 UNL     1       3.151  18.947  27.764  1.00  0.00     0.005 C 
HETATM    9  C26 UNL     1       4.574  19.351  28.105  1.00  0.00     0.047 C 
ENDROOT
BRANCH   1  10
HETATM   10  C1  UNL     1       6.038  14.624  27.153  1.00  0.00     0.220 C 
HETATM   11  O1  UNL     1       5.642  13.544  27.636  1.00  0.00    -0.284 OA
BRANCH  10  12
HETATM   12  C2  UNL     1       6.639  14.542  25.839  1.00  0.00     0.137 A 
HETATM   13  O2  UNL     1       7.099  15.649  25.197  1.00  0.00    -0.318 OA
HETATM   14  C3  UNL     1       7.592  15.379  24.064  1.00  0.00     0.143 A 
HETATM   15  C4  UNL     1       7.511  14.036  23.831  1.00  0.00     0.040 A 
HETATM   16  C5  UNL     1       6.881  13.501  25.010  1.00  0.00     0.017 A 
BRANCH  16  17
HETATM   17  C6  UNL     1       6.606  12.080  25.077  1.00  0.00     0.016 A 
HETATM   18  C7  UNL     1       5.322  11.612  24.695  1.00  0.00     0.031 A 
HETATM   19  C8  UNL     1       5.008  10.283  24.653  1.00  0.00     0.048 A 
HETATM   20  C10 UNL     1       5.942   9.315  24.993  1.00  0.00     0.019 A 
HETATM   21  C11 UNL     1       7.197   9.751  25.373  1.00  0.00     0.044 A 
HETATM   22  C12 UNL     1       7.504  11.119  25.406  1.00  0.00     0.127 A 
HETATM   23  F4  UNL     1       8.767  11.447  25.743  1.00  0.00    -0.205 F 
BRANCH  19  24
HETATM   24  C9  UNL     1       3.661   9.802  24.193  1.00  0.00     0.417 C 
HETATM   25  F1  UNL     1       3.136   8.917  25.090  1.00  0.00    -0.166 F 
HETATM   26  F2  UNL     1       3.871   9.133  22.992  1.00  0.00    -0.166 F 
HETATM   27  F3  UNL     1       2.794  10.875  23.994  1.00  0.00    -0.166 F 
ENDBRANCH  19  24
ENDBRANCH  16  17
ENDBRANCH  10  12
ENDBRANCH   1  10
BRANCH   2  28
HETATM   28  N1  UNL     1       7.153  14.942  29.978  1.00  0.00    -0.320 N 
HETATM   29  C15 UNL     1       6.472  14.240  31.056  1.00  0.00     0.226 C 
HETATM   30  O3  UNL     1       5.262  14.515  31.242  1.00  0.00    -0.273 OA
ATOM     31  H1  UNL     1       8.138  14.759  29.785  1.00  0.00     0.169 HD
BRANCH  29  32
HETATM   32  C16 UNL     1       7.085  13.255  31.926  1.00  0.00     0.078 C 
HETATM   33  C17 UNL     1       8.084  13.795  32.909  1.00  0.00     0.014 C 
HETATM   34  C18 UNL     1       7.949  12.827  34.082  1.00  0.00     0.001 C 
HETATM   35  C19 UNL     1       6.450  12.586  34.175  1.00  0.00     0.001 C 
HETATM   36  C20 UNL     1       5.992  12.558  32.717  1.00  0.00     0.014 C 
ENDBRANCH  29  32
ENDBRANCH   2  28
TORSDOF 6
ENDMDL
MODEL 3
REMARK VINA RESULT: -9.246117320      3.889      7.163
REMARK  6 active torsions:
REMARK  status: ('A' for Active; 'I' for Inactive)
REMARK    1  A    between atoms: C1_2  and  C2_3 
REMARK    2  A    between atoms: C1_2  and  C13_19 
REMARK    3  A    between atoms: C5_7  and  C6_8 
REMARK    4  A    between atoms: C8_10  and  C9_11 
REMARK    5  A    between atoms: C14_20  and  N1_21 
REMARK       I    between atoms: N1_21  and  C15_23 
REMARK    6  A    between atoms: C15_23  and  C16_25 
ROOT
HETATM    1  C13 UNL     1       5.732   9.961  24.728  1.00  0.00     0.058 A 
HETATM    2  C14 UNL     1       5.236   8.690  24.919  1.00  0.00     0.092 A 
HETATM    3  S1  UNL     1       3.756   8.687  24.009  1.00  0.00    -0.075 SA
HETATM    4  C21 UNL     1       3.815  10.257  23.430  1.00  0.00    -0.008 A 
HETATM    5  C22 UNL     1       4.988  10.779  23.946  1.00  0.00    -0.028 A 
HETATM    6  C23 UNL     1       5.191  12.160  23.438  1.00  0.00     0.041 C 
HETATM    7  C24 UNL     1       4.843  12.311  21.979  1.00  0.00     0.005 C 
HETATM    8  C25 UNL     1       3.779  11.485  21.414  1.00  0.00     0.005 C 
HETATM    9  C26 UNL     1       2.885  11.059  22.565  1.00  0.00     0.047 C 
ENDROOT
BRANCH   1  10
HETATM   10  C1  UNL     1       7.011  10.297  25.356  1.00  0.00     0.220 C 
HETATM   11  O1  UNL     1       8.046  10.339  24.661  1.00  0.00    -0.284 OA
BRANCH  10  12
HETATM   12  C2  UNL     1       7.189  10.569  26.767  1.00  0.00     0.137 A 
HETATM   13  O2  UNL     1       7.607   9.605  27.629  1.00  0.00    -0.318 OA
HETATM   14  C3  UNL     1       7.707  10.031  28.816  1.00  0.00     0.143 A 
HETATM   15  C4  UNL     1       7.358  11.351  28.866  1.00  0.00     0.040 A 
HETATM   16  C5  UNL     1       7.021  11.687  27.508  1.00  0.00     0.017 A 
BRANCH  16  17
HETATM   17  C6  UNL     1       6.563  13.030  27.210  1.00  0.00     0.016 A 
HETATM   18  C7  UNL     1       5.717  13.688  28.139  1.00  0.00     0.031 A 
HETATM   19  C8  UNL     1       5.307  14.981  27.971  1.00  0.00     0.048 A 
HETATM   20  C10 UNL     1       5.701  15.718  26.865  1.00  0.00     0.019 A 
HETATM   21  C11 UNL     1       6.520  15.094  25.945  1.00  0.00     0.044 A 
HETATM   22  C12 UNL     1       6.936  13.767  26.134  1.00  0.00     0.127 A 
HETATM   23  F4  UNL     1       7.773  13.258  25.209  1.00  0.00    -0.205 F 
BRANCH  19  24
HETATM   24  C9  UNL     1       4.456  15.680  28.993  1.00  0.00     0.417 C 
HETATM   25  F1  UNL     1       3.198  15.888  28.508  1.00  0.00    -0.166 F 
HETATM   26  F2  UNL     1       5.048  16.920  29.215  1.00  0.00    -0.166 F 
HETATM   27  F3  UNL     1       4.412  14.954  30.182  1.00  0.00    -0.166 F 
ENDBRANCH  19  24
ENDBRANCH  16  17
ENDBRANCH  10  12
ENDBRANCH   1  10
BRANCH   2  28
HETATM   28  N1  UNL     1       5.689   7.559  25.645  1.00  0.00    -0.320 N 
HETATM   29  C15 UNL     1       4.752   6.491  25.958  1.00  0.00     0.226 C 
HETATM   30  O3  UNL     1       3.569   6.634  25.563  1.00  0.00    -0.273 OA
ATOM     31  H1  UNL     1       6.663   7.495  25.945  1.00  0.00     0.169 HD
BRANCH  29  32
HETATM   32  C16 UNL     1       5.081   5.282  26.688  1.00  0.00     0.078 C 
HETATM   33  C17 UNL     1       6.364   5.327  27.466  1.00  0.00     0.014 C 
HETATM   34  C18 UNL     1       6.074   4.391  28.637  1.00  0.00     0.001 C 
HETATM   35  C19 UNL     1       4.639   4.724  29.012  1.00  0.00     0.001 C 
HETATM   36  C20 UNL     1       3.959   4.986  27.668  1.00  0.00     0.014 C 
ENDBRANCH  29  32
ENDBRANCH   2  28
TORSDOF 6
ENDMDL
MODEL 4
REMARK VINA RESULT: -9.221375284      2.779      4.972
REMARK  6 active torsions:
REMARK  status: ('A' for Active; 'I' for Inactive)
REMARK    1  A    between atoms: C1_2  and  C2_3 
REMARK    2  A    between atoms: C1_2  and  C13_19 
REMARK    3  A    between atoms: C5_7  and  C6_8 
REMARK    4  A    between atoms: C8_10  and  C9_11 
REMARK    5  A    between atoms: C14_20  and  N1_21 
REMARK       I    between atoms: N1_21  and  C15_23 
REMARK    6  A    between atoms: C15_23  and  C16_25 
ROOT
HETATM    1  C13 UNL     1       5.831  15.855  28.072  1.00  0.00     0.058 A 
HETATM    2  C14 UNL     1       6.403  15.866  29.325  1.00  0.00     0.092 A 
HETATM    3  S1  UNL     1       6.065  17.464  29.917  1.00  0.00    -0.075 SA
HETATM    4  C21 UNL     1       5.229  18.050  28.589  1.00  0.00    -0.008 A 
HETATM    5  C22 UNL     1       5.215  17.000  27.690  1.00  0.00    -0.028 A 
HETATM    6  C23 UNL     1       4.429  17.378  26.487  1.00  0.00     0.041 C 
HETATM    7  C24 UNL     1       3.173  18.142  26.817  1.00  0.00     0.005 C 
HETATM    8  C25 UNL     1       3.160  19.014  27.989  1.00  0.00     0.005 C 
HETATM    9  C26 UNL     1       4.602  19.381  28.289  1.00  0.00     0.047 C 
ENDROOT
BRANCH   1  10
HETATM   10  C1  UNL     1       5.917  14.620  27.291  1.00  0.00     0.220 C 
HETATM   11  O1  UNL     1       5.414  13.570  27.742  1.00  0.00    -0.284 OA
BRANCH  10  12
HETATM   12  C2  UNL     1       6.581  14.500  26.010  1.00  0.00     0.137 A 
HETATM   13  O2  UNL     1       6.918  15.595  25.279  1.00  0.00    -0.318 OA
HETATM   14  C3  UNL     1       7.492  15.292  24.193  1.00  0.00     0.143 A 
HETATM   15  C4  UNL     1       7.597  13.934  24.088  1.00  0.00     0.040 A 
HETATM   16  C5  UNL     1       6.993  13.430  25.293  1.00  0.00     0.017 A 
BRANCH  16  17
HETATM   17  C6  UNL     1       6.904  11.996  25.488  1.00  0.00     0.016 A 
HETATM   18  C7  UNL     1       7.642  11.402  26.544  1.00  0.00     0.031 A 
HETATM   19  C8  UNL     1       7.550  10.071  26.844  1.00  0.00     0.048 A 
HETATM   20  C10 UNL     1       6.723   9.228  26.116  1.00  0.00     0.019 A 
HETATM   21  C11 UNL     1       6.000   9.787  25.081  1.00  0.00     0.044 A 
HETATM   22  C12 UNL     1       6.102  11.156  24.788  1.00  0.00     0.127 A 
HETATM   23  F4  UNL     1       5.323  11.621  23.792  1.00  0.00    -0.205 F 
BRANCH  19  24
HETATM   24  C9  UNL     1       8.297   9.468  28.000  1.00  0.00     0.417 C 
HETATM   25  F1  UNL     1       8.147   8.111  28.012  1.00  0.00    -0.166 F 
HETATM   26  F2  UNL     1       7.715   9.981  29.155  1.00  0.00    -0.166 F 
HETATM   27  F3  UNL     1       9.646   9.815  27.953  1.00  0.00    -0.166 F 
ENDBRANCH  19  24
ENDBRANCH  16  17
ENDBRANCH  10  12
ENDBRANCH   1  10
BRANCH   2  28
HETATM   28  N1  UNL     1       7.122  14.906  30.083  1.00  0.00    -0.320 N 
HETATM   29  C15 UNL     1       6.464  14.240  31.197  1.00  0.00     0.226 C 
HETATM   30  O3  UNL     1       5.274  14.562  31.432  1.00  0.00    -0.273 OA
ATOM     31  H1  UNL     1       8.091  14.684  29.849  1.00  0.00     0.169 HD
BRANCH  29  32
HETATM   32  C16 UNL     1       7.078  13.241  32.050  1.00  0.00     0.078 C 
HETATM   33  C17 UNL     1       8.107  13.759  33.013  1.00  0.00     0.014 C 
HETATM   34  C18 UNL     1       7.981  12.789  34.185  1.00  0.00     0.001 C 
HETATM   35  C19 UNL     1       6.480  12.575  34.310  1.00  0.00     0.001 C 
HETATM   36  C20 UNL     1       5.990  12.561  32.862  1.00  0.00     0.014 C 
ENDBRANCH  29  32
ENDBRANCH   2  28
TORSDOF 6
ENDMDL
MODEL 5
REMARK VINA RESULT: -8.925595169      4.445      7.558
REMARK  6 active torsions:
REMARK  status: ('A' for Active; 'I' for Inactive)
REMARK    1  A    between atoms: C1_2  and  C2_3 
REMARK    2  A    between atoms: C1_2  and  C13_19 
REMARK    3  A    between atoms: C5_7  and  C6_8 
REMARK    4  A    between atoms: C8_10  and  C9_11 
REMARK    5  A    between atoms: C14_20  and  N1_21 
REMARK       I    between atoms: N1_21  and  C15_23 
REMARK    6  A    between atoms: C15_23  and  C16_25 
ROOT
HETATM    1  C13 UNL     1       6.109  14.381  27.875  1.00  0.00     0.058 A 
HETATM    2  C14 UNL     1       5.789  13.478  28.865  1.00  0.00     0.092 A 
HETATM    3  S1  UNL     1       5.769  11.951  28.036  1.00  0.00    -0.075 SA
HETATM    4  C21 UNL     1       6.159  12.495  26.501  1.00  0.00    -0.008 A 
HETATM    5  C22 UNL     1       6.304  13.863  26.638  1.00  0.00    -0.028 A 
HETATM    6  C23 UNL     1       6.726  14.457  25.343  1.00  0.00     0.041 C 
HETATM    7  C24 UNL     1       7.758  13.630  24.621  1.00  0.00     0.005 C 
HETATM    8  C25 UNL     1       7.736  12.177  24.774  1.00  0.00     0.005 C 
HETATM    9  C26 UNL     1       6.326  11.792  25.185  1.00  0.00     0.047 C 
ENDROOT
BRANCH   1  10
HETATM   10  C1  UNL     1       6.232  15.791  28.249  1.00  0.00     0.220 C 
HETATM   11  O1  UNL     1       7.293  16.202  28.760  1.00  0.00    -0.284 OA
BRANCH  10  12
HETATM   12  C2  UNL     1       5.183  16.778  28.097  1.00  0.00     0.137 A 
HETATM   13  O2  UNL     1       4.908  17.342  26.891  1.00  0.00    -0.318 OA
HETATM   14  C3  UNL     1       3.960  18.177  26.955  1.00  0.00     0.143 A 
HETATM   15  C4  UNL     1       3.497  18.255  28.238  1.00  0.00     0.040 A 
HETATM   16  C5  UNL     1       4.314  17.327  28.975  1.00  0.00     0.017 A 
BRANCH  16  17
HETATM   17  C6  UNL     1       4.106  17.187  30.403  1.00  0.00     0.016 A 
HETATM   18  C7  UNL     1       2.808  16.873  30.879  1.00  0.00     0.031 A 
HETATM   19  C8  UNL     1       2.546  16.646  32.201  1.00  0.00     0.048 A 
HETATM   20  C10 UNL     1       3.552  16.720  33.153  1.00  0.00     0.019 A 
HETATM   21  C11 UNL     1       4.823  17.031  32.710  1.00  0.00     0.044 A 
HETATM   22  C12 UNL     1       5.076  17.256  31.349  1.00  0.00     0.127 A 
HETATM   23  F4  UNL     1       6.354  17.506  31.004  1.00  0.00    -0.205 F 
BRANCH  19  24
HETATM   24  C9  UNL     1       1.176  16.260  32.682  1.00  0.00     0.417 C 
HETATM   25  F1  UNL     1       0.791  15.072  32.131  1.00  0.00    -0.166 F 
HETATM   26  F2  UNL     1       0.308  17.250  32.232  1.00  0.00    -0.166 F 
HETATM   27  F3  UNL     1       1.140  16.193  34.073  1.00  0.00    -0.166 F 
ENDBRANCH  19  24
ENDBRANCH  16  17
ENDBRANCH  10  12
ENDBRANCH   1  10
BRANCH   2  28
HETATM   28  N1  UNL     1       5.512  13.600  30.251  1.00  0.00    -0.320 N 
HETATM   29  C15 UNL     1       6.616  13.593  31.200  1.00  0.00     0.226 C 
HETATM   30  O3  UNL     1       7.773  13.474  30.730  1.00  0.00    -0.273 OA
ATOM     31  H1  UNL     1       4.550  13.691  30.579  1.00  0.00     0.169 HD
BRANCH  29  32
HETATM   32  C16 UNL     1       6.477  13.711  32.638  1.00  0.00     0.078 C 
HETATM   33  C17 UNL     1       6.410  12.412  33.390  1.00  0.00     0.014 C 
HETATM   34  C18 UNL     1       7.034  12.776  34.735  1.00  0.00     0.001 C 
HETATM   35  C19 UNL     1       8.197  13.679  34.355  1.00  0.00     0.001 C 
HETATM   36  C20 UNL     1       7.661  14.494  33.179  1.00  0.00     0.014 C 
ENDBRANCH  29  32
ENDBRANCH   2  28
TORSDOF 6
ENDMDL
