MODEL 1
REMARK VINA RESULT: -6.752632275      0.000      0.000
REMARK  7 active torsions:
REMARK  status: ('A' for Active; 'I' for Inactive)
REMARK    1  A    between atoms: N2_5  and  C3_6 
REMARK    2  A    between atoms: C3_6  and  C4_7 
REMARK    3  A    between atoms: C4_7  and  C5_8 
REMARK    4  A    between atoms: N4_12  and  C7_14 
REMARK    5  A    between atoms: C8_16  and  C9_17 
REMARK    6  A    between atoms: C9_17  and  C10_18 
REMARK    7  A    between atoms: C11_19  and  O3_20 
ROOT
HETATM    1  C1  UNL     1      -9.847  11.946  20.516  1.00  0.00     0.045 C 
HETATM    2  C2  UNL     1      -9.161  13.073  20.319  1.00  0.00     0.053 A 
HETATM    3  N1  UNL     1      -7.820  13.073  20.122  1.00  0.00    -0.297 N 
ATOM      4  H1  UNL     1      -7.220  12.248  20.106  1.00  0.00     0.187 HD
HETATM    5  N2  UNL     1      -7.415  14.342  19.954  1.00  0.00    -0.275 N 
HETATM    6  C6  UNL     1      -8.495  15.149  20.043  1.00  0.00     0.137 A 
HETATM    7  N4  UNL     1      -8.520  16.411  19.936  1.00  0.00    -0.319 N 
ATOM      8  H4  UNL     1      -9.447  16.825  20.038  1.00  0.00     0.169 HD
HETATM    9  C8  UNL     1      -9.632  14.357  20.278  1.00  0.00     0.038 A 
ENDROOT
BRANCH   9  10
HETATM   10  C9  UNL     1     -10.878  14.732  20.429  1.00  0.00     0.039 C 
BRANCH  10  11
HETATM   11  C10 UNL     1     -11.317  15.742  21.368  1.00  0.00     0.086 A 
HETATM   12  C11 UNL     1     -11.356  17.103  21.213  1.00  0.00     0.171 A 
HETATM   13  N5  UNL     1     -11.840  17.654  22.356  1.00  0.00    -0.276 N 
HETATM   14  N6  UNL     1     -12.106  16.687  23.219  1.00  0.00    -0.264 N 
ATOM     15  H5  UNL     1     -11.976  18.651  22.522  1.00  0.00     0.189 HD
HETATM   16  C12 UNL     1     -11.789  15.498  22.629  1.00  0.00     0.274 A 
ATOM     17  H6  UNL     1     -12.482  16.809  24.159  1.00  0.00     0.190 HD
HETATM   18  O4  UNL     1     -11.927  14.389  23.193  1.00  0.00    -0.266 OA
BRANCH  12  19
HETATM   19  O3  UNL     1     -10.969  17.808  20.086  1.00  0.00    -0.344 OA
ATOM     20  H3  UNL     1     -11.406  18.570  19.726  1.00  0.00     0.219 HD
ENDBRANCH  12  19
ENDBRANCH  10  11
ENDBRANCH   9  10
BRANCH   5  21
HETATM   21  C3  UNL     1      -6.027  14.642  19.724  1.00  0.00     0.159 C 
BRANCH  21  22
HETATM   22  C4  UNL     1      -5.656  14.545  18.258  1.00  0.00     0.121 C 
BRANCH  22  23
HETATM   23  C5  UNL     1      -4.295  15.096  18.046  1.00  0.00     0.232 C 
HETATM   24  N3  UNL     1      -4.009  16.450  18.411  1.00  0.00    -0.062 NA
HETATM   25  O1  UNL     1      -3.422  14.352  17.545  1.00  0.00    -0.277 OA
ENDBRANCH  22  23
ENDBRANCH  21  22
ENDBRANCH   5  21
BRANCH   7  26
HETATM   26  C7  UNL     1      -7.505  17.328  19.704  1.00  0.00     0.354 C 
HETATM   27  O2  UNL     1      -7.155  17.592  18.507  1.00  0.00    -0.283 OA
ENDBRANCH   7  26
TORSDOF 7
ENDMDL
MODEL 2
REMARK VINA RESULT: -6.646694221      1.553      2.822
REMARK  7 active torsions:
REMARK  status: ('A' for Active; 'I' for Inactive)
REMARK    1  A    between atoms: N2_5  and  C3_6 
REMARK    2  A    between atoms: C3_6  and  C4_7 
REMARK    3  A    between atoms: C4_7  and  C5_8 
REMARK    4  A    between atoms: N4_12  and  C7_14 
REMARK    5  A    between atoms: C8_16  and  C9_17 
REMARK    6  A    between atoms: C9_17  and  C10_18 
REMARK    7  A    between atoms: C11_19  and  O3_20 
ROOT
HETATM    1  C1  UNL     1      -8.372  18.506  20.536  1.00  0.00     0.045 C 
HETATM    2  C2  UNL     1      -8.286  17.190  20.333  1.00  0.00     0.053 A 
HETATM    3  N1  UNL     1      -7.103  16.576  20.086  1.00  0.00    -0.297 N 
ATOM      4  H1  UNL     1      -6.194  17.035  20.031  1.00  0.00     0.187 HD
HETATM    5  N2  UNL     1      -7.330  15.263  19.925  1.00  0.00    -0.275 N 
HETATM    6  C6  UNL     1      -8.656  15.040  20.070  1.00  0.00     0.137 A 
HETATM    7  N4  UNL     1      -9.259  13.928  19.991  1.00  0.00    -0.319 N 
ATOM      8  H4  UNL     1     -10.268  13.985  20.132  1.00  0.00     0.169 HD
HETATM    9  C8  UNL     1      -9.293  16.264  20.332  1.00  0.00     0.038 A 
ENDROOT
BRANCH   9  10
HETATM   10  C9  UNL     1     -10.566  16.501  20.537  1.00  0.00     0.039 C 
BRANCH  10  11
HETATM   11  C10 UNL     1     -11.234  16.320  21.808  1.00  0.00     0.086 A 
HETATM   12  C11 UNL     1     -11.640  17.269  22.709  1.00  0.00     0.171 A 
HETATM   13  N5  UNL     1     -12.224  16.641  23.763  1.00  0.00    -0.276 N 
HETATM   14  N6  UNL     1     -12.198  15.336  23.552  1.00  0.00    -0.264 N 
ATOM     15  H5  UNL     1     -12.617  17.102  24.583  1.00  0.00     0.189 HD
HETATM   16  C12 UNL     1     -11.591  15.116  22.350  1.00  0.00     0.274 A 
ATOM     17  H6  UNL     1     -12.569  14.620  24.177  1.00  0.00     0.190 HD
HETATM   18  O4  UNL     1     -11.413  13.975  21.865  1.00  0.00    -0.266 OA
BRANCH  12  19
HETATM   19  O3  UNL     1     -11.485  18.638  22.579  1.00  0.00    -0.344 OA
ATOM     20  H3  UNL     1     -12.159  19.293  22.717  1.00  0.00     0.219 HD
ENDBRANCH  12  19
ENDBRANCH  10  11
ENDBRANCH   9  10
BRANCH   5  21
HETATM   21  C3  UNL     1      -6.245  14.360  19.650  1.00  0.00     0.159 C 
BRANCH  21  22
HETATM   22  C4  UNL     1      -5.804  14.421  18.202  1.00  0.00     0.121 C 
BRANCH  22  23
HETATM   23  C5  UNL     1      -4.476  15.076  18.107  1.00  0.00     0.232 C 
HETATM   24  N3  UNL     1      -4.280  16.375  18.675  1.00  0.00    -0.062 NA
HETATM   25  O1  UNL     1      -3.551  14.467  17.524  1.00  0.00    -0.277 OA
ENDBRANCH  22  23
ENDBRANCH  21  22
ENDBRANCH   5  21
BRANCH   7  26
HETATM   26  C7  UNL     1      -8.786  12.647  19.746  1.00  0.00     0.354 C 
HETATM   27  O2  UNL     1      -9.486  11.639  20.090  1.00  0.00    -0.283 OA
ENDBRANCH   7  26
TORSDOF 7
ENDMDL
MODEL 3
REMARK VINA RESULT: -6.519248896      2.382      6.484
REMARK  7 active torsions:
REMARK  status: ('A' for Active; 'I' for Inactive)
REMARK    1  A    between atoms: N2_5  and  C3_6 
REMARK    2  A    between atoms: C3_6  and  C4_7 
REMARK    3  A    between atoms: C4_7  and  C5_8 
REMARK    4  A    between atoms: N4_12  and  C7_14 
REMARK    5  A    between atoms: C8_16  and  C9_17 
REMARK    6  A    between atoms: C9_17  and  C10_18 
REMARK    7  A    between atoms: C11_19  and  O3_20 
ROOT
HETATM    1  C1  UNL     1      -8.253  17.266  18.785  1.00  0.00     0.045 C 
HETATM    2  C2  UNL     1      -8.455  16.718  19.984  1.00  0.00     0.053 A 
HETATM    3  N1  UNL     1      -9.665  16.748  20.594  1.00  0.00    -0.297 N 
ATOM      4  H1  UNL     1     -10.512  17.173  20.216  1.00  0.00     0.187 HD
HETATM    5  N2  UNL     1      -9.561  16.123  21.778  1.00  0.00    -0.275 N 
HETATM    6  C6  UNL     1      -8.286  15.697  21.923  1.00  0.00     0.137 A 
HETATM    7  N4  UNL     1      -7.797  15.064  22.905  1.00  0.00    -0.319 N 
ATOM      8  H4  UNL     1      -6.806  14.839  22.811  1.00  0.00     0.169 HD
HETATM    9  C8  UNL     1      -7.554  16.068  20.783  1.00  0.00     0.038 A 
ENDROOT
BRANCH   9  10
HETATM   10  C9  UNL     1      -6.290  15.854  20.513  1.00  0.00     0.039 C 
BRANCH  10  11
HETATM   11  C10 UNL     1      -5.815  15.163  19.333  1.00  0.00     0.086 A 
HETATM   12  C11 UNL     1      -6.263  13.991  18.782  1.00  0.00     0.171 A 
HETATM   13  N5  UNL     1      -5.520  13.721  17.678  1.00  0.00    -0.276 N 
HETATM   14  N6  UNL     1      -4.624  14.681  17.519  1.00  0.00    -0.264 N 
ATOM     15  H5  UNL     1      -5.634  12.910  17.071  1.00  0.00     0.189 HD
HETATM   16  C12 UNL     1      -4.788  15.582  18.531  1.00  0.00     0.274 A 
ATOM     17  H6  UNL     1      -3.933  14.739  16.770  1.00  0.00     0.190 HD
HETATM   18  O4  UNL     1      -4.086  16.610  18.660  1.00  0.00    -0.266 OA
BRANCH  12  19
HETATM   19  O3  UNL     1      -7.299  13.207  19.261  1.00  0.00    -0.344 OA
ATOM     20  H3  UNL     1      -7.327  12.258  19.263  1.00  0.00     0.219 HD
ENDBRANCH  12  19
ENDBRANCH  10  11
ENDBRANCH   9  10
BRANCH   5  21
HETATM   21  C3  UNL     1     -10.702  16.002  22.644  1.00  0.00     0.159 C 
BRANCH  21  22
HETATM   22  C4  UNL     1     -11.860  15.295  21.971  1.00  0.00     0.121 C 
BRANCH  22  23
HETATM   23  C5  UNL     1     -11.384  14.043  21.334  1.00  0.00     0.232 C 
HETATM   24  N3  UNL     1     -11.259  13.971  19.909  1.00  0.00    -0.062 NA
HETATM   25  O1  UNL     1     -11.101  13.070  22.068  1.00  0.00    -0.277 OA
ENDBRANCH  22  23
ENDBRANCH  21  22
ENDBRANCH   5  21
BRANCH   7  26
HETATM   26  C7  UNL     1      -8.375  14.624  24.088  1.00  0.00     0.354 C 
HETATM   27  O2  UNL     1      -7.695  14.636  25.166  1.00  0.00    -0.283 OA
ENDBRANCH   7  26
TORSDOF 7
ENDMDL
MODEL 4
REMARK VINA RESULT: -6.475790657      0.487      1.639
REMARK  7 active torsions:
REMARK  status: ('A' for Active; 'I' for Inactive)
REMARK    1  A    between atoms: N2_5  and  C3_6 
REMARK    2  A    between atoms: C3_6  and  C4_7 
REMARK    3  A    between atoms: C4_7  and  C5_8 
REMARK    4  A    between atoms: N4_12  and  C7_14 
REMARK    5  A    between atoms: C8_16  and  C9_17 
REMARK    6  A    between atoms: C9_17  and  C10_18 
REMARK    7  A    between atoms: C11_19  and  O3_20 
ROOT
HETATM    1  C1  UNL     1      -9.814  11.864  20.523  1.00  0.00     0.045 C 
HETATM    2  C2  UNL     1      -9.132  13.002  20.382  1.00  0.00     0.053 A 
HETATM    3  N1  UNL     1      -7.804  13.015  20.111  1.00  0.00    -0.297 N 
ATOM      4  H1  UNL     1      -7.212  12.193  19.993  1.00  0.00     0.187 HD
HETATM    5  N2  UNL     1      -7.399  14.293  20.027  1.00  0.00    -0.275 N 
HETATM    6  C6  UNL     1      -8.468  15.093  20.243  1.00  0.00     0.137 A 
HETATM    7  N4  UNL     1      -8.490  16.359  20.242  1.00  0.00    -0.319 N 
ATOM      8  H4  UNL     1      -9.406  16.766  20.431  1.00  0.00     0.169 HD
HETATM    9  C8  UNL     1      -9.595  14.286  20.475  1.00  0.00     0.038 A 
ENDROOT
BRANCH   9  10
HETATM   10  C9  UNL     1     -10.828  14.651  20.725  1.00  0.00     0.039 C 
BRANCH  10  11
HETATM   11  C10 UNL     1     -11.204  15.947  21.249  1.00  0.00     0.086 A 
HETATM   12  C11 UNL     1     -11.615  16.278  22.513  1.00  0.00     0.171 A 
HETATM   13  N5  UNL     1     -11.863  17.613  22.551  1.00  0.00    -0.276 N 
HETATM   14  N6  UNL     1     -11.621  18.127  21.356  1.00  0.00    -0.264 N 
ATOM     15  H5  UNL     1     -12.184  18.134  23.366  1.00  0.00     0.189 HD
HETATM   16  C12 UNL     1     -11.213  17.115  20.537  1.00  0.00     0.274 A 
ATOM     17  H6  UNL     1     -11.720  19.108  21.094  1.00  0.00     0.190 HD
HETATM   18  O4  UNL     1     -10.908  17.281  19.334  1.00  0.00    -0.266 OA
BRANCH  12  19
HETATM   19  O3  UNL     1     -11.758  15.408  23.580  1.00  0.00    -0.344 OA
ATOM     20  H3  UNL     1     -11.069  14.884  23.972  1.00  0.00     0.219 HD
ENDBRANCH  12  19
ENDBRANCH  10  11
ENDBRANCH   9  10
BRANCH   5  21
HETATM   21  C3  UNL     1      -6.025  14.608  19.745  1.00  0.00     0.159 C 
BRANCH  21  22
HETATM   22  C4  UNL     1      -5.717  14.553  18.263  1.00  0.00     0.121 C 
BRANCH  22  23
HETATM   23  C5  UNL     1      -4.350  15.071  18.012  1.00  0.00     0.232 C 
HETATM   24  N3  UNL     1      -4.019  16.416  18.375  1.00  0.00    -0.062 NA
HETATM   25  O1  UNL     1      -3.510  14.308  17.483  1.00  0.00    -0.277 OA
ENDBRANCH  22  23
ENDBRANCH  21  22
ENDBRANCH   5  21
BRANCH   7  26
HETATM   26  C7  UNL     1      -7.483  17.290  20.031  1.00  0.00     0.354 C 
HETATM   27  O2  UNL     1      -7.171  17.623  18.840  1.00  0.00    -0.283 OA
ENDBRANCH   7  26
TORSDOF 7
ENDMDL
MODEL 5
REMARK VINA RESULT: -6.434454748      2.003      6.715
REMARK  7 active torsions:
REMARK  status: ('A' for Active; 'I' for Inactive)
REMARK    1  A    between atoms: N2_5  and  C3_6 
REMARK    2  A    between atoms: C3_6  and  C4_7 
REMARK    3  A    between atoms: C4_7  and  C5_8 
REMARK    4  A    between atoms: N4_12  and  C7_14 
REMARK    5  A    between atoms: C8_16  and  C9_17 
REMARK    6  A    between atoms: C9_17  and  C10_18 
REMARK    7  A    between atoms: C11_19  and  O3_20 
ROOT
HETATM    1  C1  UNL     1      -7.104  18.502  21.007  1.00  0.00     0.045 C 
HETATM    2  C2  UNL     1      -8.031  17.544  20.954  1.00  0.00     0.053 A 
HETATM    3  N1  UNL     1      -9.355  17.821  21.034  1.00  0.00    -0.297 N 
ATOM      4  H1  UNL     1      -9.764  18.749  21.139  1.00  0.00     0.187 HD
HETATM    5  N2  UNL     1     -10.037  16.667  20.953  1.00  0.00    -0.275 N 
HETATM    6  C6  UNL     1      -9.149  15.656  20.822  1.00  0.00     0.137 A 
HETATM    7  N4  UNL     1      -9.404  14.420  20.714  1.00  0.00    -0.319 N 
ATOM      8  H4  UNL     1      -8.581  13.825  20.626  1.00  0.00     0.169 HD
HETATM    9  C8  UNL     1      -7.851  16.195  20.821  1.00  0.00     0.038 A 
ENDROOT
BRANCH   9  10
HETATM   10  C9  UNL     1      -6.703  15.571  20.715  1.00  0.00     0.039 C 
BRANCH  10  11
HETATM   11  C10 UNL     1      -6.198  14.996  19.486  1.00  0.00     0.086 A 
HETATM   12  C11 UNL     1      -6.547  13.818  18.880  1.00  0.00     0.171 A 
HETATM   13  N5  UNL     1      -5.814  13.683  17.744  1.00  0.00    -0.276 N 
HETATM   14  N6  UNL     1      -5.022  14.735  17.619  1.00  0.00    -0.264 N 
ATOM     15  H5  UNL     1      -5.867  12.900  17.095  1.00  0.00     0.189 HD
HETATM   16  C12 UNL     1      -5.242  15.558  18.685  1.00  0.00     0.274 A 
ATOM     17  H6  UNL     1      -4.362  14.901  16.859  1.00  0.00     0.190 HD
HETATM   18  O4  UNL     1      -4.640  16.643  18.856  1.00  0.00    -0.266 OA
BRANCH  12  19
HETATM   19  O3  UNL     1      -7.486  12.911  19.339  1.00  0.00    -0.344 OA
ATOM     20  H3  UNL     1      -7.857  12.190  18.843  1.00  0.00     0.219 HD
ENDBRANCH  12  19
ENDBRANCH  10  11
ENDBRANCH   9  10
BRANCH   5  21
HETATM   21  C3  UNL     1     -11.474  16.660  21.010  1.00  0.00     0.159 C 
BRANCH  21  22
HETATM   22  C4  UNL     1     -11.996  17.131  22.352  1.00  0.00     0.121 C 
BRANCH  22  23
HETATM   23  C5  UNL     1     -11.962  16.013  23.327  1.00  0.00     0.232 C 
HETATM   24  N3  UNL     1     -12.052  16.287  24.729  1.00  0.00    -0.062 NA
HETATM   25  O1  UNL     1     -11.854  14.845  22.891  1.00  0.00    -0.277 OA
ENDBRANCH  22  23
ENDBRANCH  21  22
ENDBRANCH   5  21
BRANCH   7  26
HETATM   26  C7  UNL     1     -10.611  13.736  20.694  1.00  0.00     0.354 C 
HETATM   27  O2  UNL     1     -11.232  13.583  19.591  1.00  0.00    -0.283 OA
ENDBRANCH   7  26
TORSDOF 7
ENDMDL
