MODEL 1
REMARK VINA RESULT: -6.542076192      0.000      0.000
REMARK  7 active torsions:
REMARK  status: ('A' for Active; 'I' for Inactive)
REMARK    1  A    between atoms: N1_2  and  C3_4 
REMARK    2  A    between atoms: C3_4  and  C4_5 
REMARK    3  A    between atoms: C6_10  and  C7_11 
REMARK    4  A    between atoms: C7_11  and  C8_12 
REMARK    5  A    between atoms: C8_12  and  C9_13 
REMARK    6  A    between atoms: C9_13  and  C10_14 
REMARK    7  A    between atoms: C10_14  and  N3_15 
REMARK       I    between atoms: C11_17  and  N5_19 
ROOT
HETATM    1  N3  UNL     1      -7.418  17.529  19.471  1.00  0.00    -0.364 N 
ATOM      2  H3  UNL     1      -7.670  17.726  18.503  1.00  0.00     0.162 HD
HETATM    3  C11 UNL     1      -6.914  16.389  19.784  1.00  0.00     0.197 C 
HETATM    4  N4  UNL     1      -6.534  16.022  21.093  1.00  0.00    -0.063 NA
HETATM    5  N5  UNL     1      -6.729  15.443  18.745  1.00  0.00    -0.268 N 
ATOM      6  H5  UNL     1      -7.500  14.860  18.420  1.00  0.00     0.180 HD
HETATM    7  C12 UNL     1      -5.457  15.335  18.183  1.00  0.00     0.184 C 
HETATM    8  N6  UNL     1      -4.401  15.240  17.702  1.00  0.00    -0.172 NA
ENDROOT
BRANCH   1   9
HETATM    9  C10 UNL     1      -7.630  18.539  20.500  1.00  0.00     0.122 C 
BRANCH   9  10
HETATM   10  C9  UNL     1      -8.611  18.060  21.546  1.00  0.00     0.023 C 
BRANCH  10  11
HETATM   11  C8  UNL     1      -9.966  18.677  21.233  1.00  0.00     0.030 C 
BRANCH  11  12
HETATM   12  C7  UNL     1     -11.001  17.639  21.307  1.00  0.00    -0.004 C 
BRANCH  12  13
HETATM   13  C6  UNL     1     -10.790  16.334  21.230  1.00  0.00     0.096 A 
HETATM   14  C5  UNL     1     -10.439  15.732  20.027  1.00  0.00     0.262 A 
HETATM   15  N2  UNL     1     -10.220  14.407  19.921  1.00  0.00    -0.307 N 
HETATM   16  O1  UNL     1     -10.333  16.504  19.022  1.00  0.00    -0.267 OA
HETATM   17  C4  UNL     1     -10.332  13.595  20.983  1.00  0.00     0.126 A 
ATOM     18  H2  UNL     1      -9.965  14.014  19.015  1.00  0.00     0.170 HD
HETATM   19  N7  UNL     1     -10.670  14.144  22.159  1.00  0.00    -0.307 N 
HETATM   20  C13 UNL     1     -10.900  15.482  22.308  1.00  0.00     0.262 A 
ATOM     21  H7  UNL     1     -10.759  13.539  22.976  1.00  0.00     0.170 HD
HETATM   22  O2  UNL     1     -11.213  15.939  23.430  1.00  0.00    -0.267 OA
BRANCH  17  23
HETATM   23  C3  UNL     1     -10.120  12.282  20.899  1.00  0.00     0.133 C 
BRANCH  23  24
HETATM   24  N1  UNL     1      -9.067  11.724  20.147  1.00  0.00    -0.395 N 
HETATM   25  C1  UNL     1      -9.270  10.456  19.500  1.00  0.00     0.148 C 
HETATM   26  C2  UNL     1      -7.815  12.405  20.031  1.00  0.00     0.148 C 
ENDBRANCH  23  24
ENDBRANCH  17  23
ENDBRANCH  12  13
ENDBRANCH  11  12
ENDBRANCH  10  11
ENDBRANCH   9  10
ENDBRANCH   1   9
TORSDOF 7
ENDMDL
MODEL 2
REMARK VINA RESULT: -6.382797693      0.066      1.687
REMARK  7 active torsions:
REMARK  status: ('A' for Active; 'I' for Inactive)
REMARK    1  A    between atoms: N1_2  and  C3_4 
REMARK    2  A    between atoms: C3_4  and  C4_5 
REMARK    3  A    between atoms: C6_10  and  C7_11 
REMARK    4  A    between atoms: C7_11  and  C8_12 
REMARK    5  A    between atoms: C8_12  and  C9_13 
REMARK    6  A    between atoms: C9_13  and  C10_14 
REMARK    7  A    between atoms: C10_14  and  N3_15 
REMARK       I    between atoms: C11_17  and  N5_19 
ROOT
HETATM    1  N3  UNL     1      -7.406  17.549  19.490  1.00  0.00    -0.364 N 
ATOM      2  H3  UNL     1      -7.673  17.733  18.523  1.00  0.00     0.162 HD
HETATM    3  C11 UNL     1      -6.867  16.426  19.805  1.00  0.00     0.197 C 
HETATM    4  N4  UNL     1      -6.462  16.079  21.112  1.00  0.00    -0.063 NA
HETATM    5  N5  UNL     1      -6.668  15.478  18.771  1.00  0.00    -0.268 N 
ATOM      6  H5  UNL     1      -7.426  14.872  18.458  1.00  0.00     0.180 HD
HETATM    7  C12 UNL     1      -5.400  15.401  18.195  1.00  0.00     0.184 C 
HETATM    8  N6  UNL     1      -4.347  15.331  17.702  1.00  0.00    -0.172 NA
ENDROOT
BRANCH   1   9
HETATM    9  C10 UNL     1      -7.633  18.561  20.514  1.00  0.00     0.122 C 
BRANCH   9  10
HETATM   10  C9  UNL     1      -8.594  18.065  21.571  1.00  0.00     0.023 C 
BRANCH  10  11
HETATM   11  C8  UNL     1      -9.958  18.676  21.285  1.00  0.00     0.030 C 
BRANCH  11  12
HETATM   12  C7  UNL     1     -10.987  17.634  21.388  1.00  0.00    -0.004 C 
BRANCH  12  13
HETATM   13  C6  UNL     1     -10.786  16.334  21.233  1.00  0.00     0.096 A 
HETATM   14  C5  UNL     1     -10.942  15.451  22.295  1.00  0.00     0.262 A 
HETATM   15  N2  UNL     1     -10.742  14.125  22.164  1.00  0.00    -0.307 N 
HETATM   16  O1  UNL     1     -11.287  15.962  23.406  1.00  0.00    -0.267 OA
HETATM   17  C4  UNL     1     -10.378  13.588  20.991  1.00  0.00     0.126 A 
ATOM     18  H2  UNL     1     -10.870  13.518  22.974  1.00  0.00     0.170 HD
HETATM   19  N7  UNL     1     -10.219  14.413  19.945  1.00  0.00    -0.307 N 
HETATM   20  C13 UNL     1     -10.412  15.762  20.037  1.00  0.00     0.262 A 
ATOM     21  H7  UNL     1      -9.942  14.018  19.046  1.00  0.00     0.170 HD
HETATM   22  O2  UNL     1     -10.247  16.483  19.028  1.00  0.00    -0.267 OA
BRANCH  17  23
HETATM   23  C3  UNL     1     -10.176  12.279  20.840  1.00  0.00     0.133 C 
BRANCH  23  24
HETATM   24  N1  UNL     1      -9.080  11.752  20.127  1.00  0.00    -0.395 N 
HETATM   25  C1  UNL     1      -9.234  10.498  19.441  1.00  0.00     0.148 C 
HETATM   26  C2  UNL     1      -7.834  12.451  20.087  1.00  0.00     0.148 C 
ENDBRANCH  23  24
ENDBRANCH  17  23
ENDBRANCH  12  13
ENDBRANCH  11  12
ENDBRANCH  10  11
ENDBRANCH   9  10
ENDBRANCH   1   9
TORSDOF 7
ENDMDL
MODEL 3
REMARK VINA RESULT: -5.703241122      1.083      1.107
REMARK  7 active torsions:
REMARK  status: ('A' for Active; 'I' for Inactive)
REMARK    1  A    between atoms: N1_2  and  C3_4 
REMARK    2  A    between atoms: C3_4  and  C4_5 
REMARK    3  A    between atoms: C6_10  and  C7_11 
REMARK    4  A    between atoms: C7_11  and  C8_12 
REMARK    5  A    between atoms: C8_12  and  C9_13 
REMARK    6  A    between atoms: C9_13  and  C10_14 
REMARK    7  A    between atoms: C10_14  and  N3_15 
REMARK       I    between atoms: C11_17  and  N5_19 
ROOT
HETATM    1  N3  UNL     1      -6.523  16.957  19.802  1.00  0.00    -0.364 N 
ATOM      2  H3  UNL     1      -6.242  17.701  19.164  1.00  0.00     0.162 HD
HETATM    3  C11 UNL     1      -6.531  15.736  19.401  1.00  0.00     0.197 C 
HETATM    4  N4  UNL     1      -6.901  14.638  20.207  1.00  0.00    -0.063 NA
HETATM    5  N5  UNL     1      -6.141  15.480  18.063  1.00  0.00    -0.268 N 
ATOM      6  H5  UNL     1      -6.798  15.595  17.291  1.00  0.00     0.180 HD
HETATM    7  C12 UNL     1      -4.829  15.064  17.835  1.00  0.00     0.184 C 
HETATM    8  N6  UNL     1      -3.734  14.722  17.633  1.00  0.00    -0.172 NA
ENDROOT
BRANCH   1   9
HETATM    9  C10 UNL     1      -6.914  17.277  21.169  1.00  0.00     0.122 C 
BRANCH   9  10
HETATM   10  C9  UNL     1      -7.645  18.599  21.235  1.00  0.00     0.023 C 
BRANCH  10  11
HETATM   11  C8  UNL     1      -9.077  18.363  20.776  1.00  0.00     0.030 C 
BRANCH  11  12
HETATM   12  C7  UNL     1      -9.711  17.372  21.654  1.00  0.00    -0.004 C 
BRANCH  12  13
HETATM   13  C6  UNL     1      -9.768  16.068  21.429  1.00  0.00     0.096 A 
HETATM   14  C5  UNL     1     -10.292  15.565  20.244  1.00  0.00     0.262 A 
HETATM   15  N2  UNL     1     -10.364  14.244  19.991  1.00  0.00    -0.307 N 
HETATM   16  O1  UNL     1     -10.704  16.424  19.402  1.00  0.00    -0.267 OA
HETATM   17  C4  UNL     1      -9.928  13.340  20.880  1.00  0.00     0.126 A 
ATOM     18  H2  UNL     1     -10.757  13.926  19.105  1.00  0.00     0.170 HD
HETATM   19  N7  UNL     1      -9.416  13.792  22.035  1.00  0.00    -0.307 N 
HETATM   20  C13 UNL     1      -9.326  15.123  22.329  1.00  0.00     0.262 A 
ATOM     21  H7  UNL     1      -9.080  13.116  22.721  1.00  0.00     0.170 HD
HETATM   22  O2  UNL     1      -8.840  15.487  23.423  1.00  0.00    -0.267 OA
BRANCH  17  23
HETATM   23  C3  UNL     1      -9.989  12.029  20.650  1.00  0.00     0.133 C 
BRANCH  23  24
HETATM   24  N1  UNL     1      -9.104  11.363  19.778  1.00  0.00    -0.395 N 
HETATM   25  C1  UNL     1      -9.544  10.162  19.121  1.00  0.00     0.148 C 
HETATM   26  C2  UNL     1      -7.787  11.872  19.550  1.00  0.00     0.148 C 
ENDBRANCH  23  24
ENDBRANCH  17  23
ENDBRANCH  12  13
ENDBRANCH  11  12
ENDBRANCH  10  11
ENDBRANCH   9  10
ENDBRANCH   1   9
TORSDOF 7
ENDMDL
MODEL 4
REMARK VINA RESULT: -5.612178896      1.066      2.021
REMARK  7 active torsions:
REMARK  status: ('A' for Active; 'I' for Inactive)
REMARK    1  A    between atoms: N1_2  and  C3_4 
REMARK    2  A    between atoms: C3_4  and  C4_5 
REMARK    3  A    between atoms: C6_10  and  C7_11 
REMARK    4  A    between atoms: C7_11  and  C8_12 
REMARK    5  A    between atoms: C8_12  and  C9_13 
REMARK    6  A    between atoms: C9_13  and  C10_14 
REMARK    7  A    between atoms: C10_14  and  N3_15 
REMARK       I    between atoms: C11_17  and  N5_19 
ROOT
HETATM    1  N3  UNL     1      -6.531  16.964  19.777  1.00  0.00    -0.364 N 
ATOM      2  H3  UNL     1      -6.245  17.706  19.139  1.00  0.00     0.162 HD
HETATM    3  C11 UNL     1      -6.508  15.739  19.390  1.00  0.00     0.197 C 
HETATM    4  N4  UNL     1      -6.883  14.644  20.199  1.00  0.00    -0.063 NA
HETATM    5  N5  UNL     1      -6.076  15.474  18.067  1.00  0.00    -0.268 N 
ATOM      6  H5  UNL     1      -6.712  15.570  17.276  1.00  0.00     0.180 HD
HETATM    7  C12 UNL     1      -4.752  15.078  17.882  1.00  0.00     0.184 C 
HETATM    8  N6  UNL     1      -3.646  14.751  17.715  1.00  0.00    -0.172 NA
ENDROOT
BRANCH   1   9
HETATM    9  C10 UNL     1      -6.967  17.293  21.129  1.00  0.00     0.122 C 
BRANCH   9  10
HETATM   10  C9  UNL     1      -7.697  18.617  21.163  1.00  0.00     0.023 C 
BRANCH  10  11
HETATM   11  C8  UNL     1      -9.145  18.361  20.769  1.00  0.00     0.030 C 
BRANCH  11  12
HETATM   12  C7  UNL     1      -9.715  17.339  21.656  1.00  0.00    -0.004 C 
BRANCH  12  13
HETATM   13  C6  UNL     1      -9.802  16.046  21.385  1.00  0.00     0.096 A 
HETATM   14  C5  UNL     1      -9.388  15.089  22.305  1.00  0.00     0.262 A 
HETATM   15  N2  UNL     1      -9.464  13.768  22.055  1.00  0.00    -0.307 N 
HETATM   16  O1  UNL     1      -8.928  15.530  23.406  1.00  0.00    -0.267 OA
HETATM   17  C4  UNL     1      -9.949  13.306  20.893  1.00  0.00     0.126 A 
ATOM     18  H2  UNL     1      -9.147  13.106  22.763  1.00  0.00     0.170 HD
HETATM   19  N7  UNL     1     -10.359  14.203  19.983  1.00  0.00    -0.307 N 
HETATM   20  C13 UNL     1     -10.297  15.550  20.199  1.00  0.00     0.262 A 
ATOM     21  H7  UNL     1     -10.730  13.866  19.094  1.00  0.00     0.170 HD
HETATM   22  O2  UNL     1     -10.693  16.341  19.313  1.00  0.00    -0.267 OA
BRANCH  17  23
HETATM   23  C3  UNL     1     -10.034  12.004  20.625  1.00  0.00     0.133 C 
BRANCH  23  24
HETATM   24  N1  UNL     1      -9.123  11.335  19.782  1.00  0.00    -0.395 N 
HETATM   25  C1  UNL     1      -7.805  11.881  19.609  1.00  0.00     0.148 C 
HETATM   26  C2  UNL     1      -9.505  10.133  19.107  1.00  0.00     0.148 C 
ENDBRANCH  23  24
ENDBRANCH  17  23
ENDBRANCH  12  13
ENDBRANCH  11  12
ENDBRANCH  10  11
ENDBRANCH   9  10
ENDBRANCH   1   9
TORSDOF 7
ENDMDL
MODEL 5
REMARK VINA RESULT: -5.467703981      1.463      4.586
REMARK  7 active torsions:
REMARK  status: ('A' for Active; 'I' for Inactive)
REMARK    1  A    between atoms: N1_2  and  C3_4 
REMARK    2  A    between atoms: C3_4  and  C4_5 
REMARK    3  A    between atoms: C6_10  and  C7_11 
REMARK    4  A    between atoms: C7_11  and  C8_12 
REMARK    5  A    between atoms: C8_12  and  C9_13 
REMARK    6  A    between atoms: C9_13  and  C10_14 
REMARK    7  A    between atoms: C10_14  and  N3_15 
REMARK       I    between atoms: C11_17  and  N5_19 
ROOT
HETATM    1  N3  UNL     1     -10.838  13.134  21.947  1.00  0.00    -0.364 N 
ATOM      2  H3  UNL     1     -10.302  12.616  22.643  1.00  0.00     0.162 HD
HETATM    3  C11 UNL     1     -10.385  13.258  20.751  1.00  0.00     0.197 C 
HETATM    4  N4  UNL     1     -11.050  13.954  19.718  1.00  0.00    -0.063 NA
HETATM    5  N5  UNL     1      -9.137  12.657  20.453  1.00  0.00    -0.268 N 
ATOM      6  H5  UNL     1      -8.259  13.120  20.689  1.00  0.00     0.180 HD
HETATM    7  C12 UNL     1      -9.148  11.410  19.827  1.00  0.00     0.184 C 
HETATM    8  N6  UNL     1      -9.146  10.367  19.309  1.00  0.00    -0.172 NA
ENDROOT
BRANCH   1   9
HETATM    9  C10 UNL     1     -12.117  13.732  22.307  1.00  0.00     0.122 C 
BRANCH   9  10
HETATM   10  C9  UNL     1     -11.923  15.029  23.060  1.00  0.00     0.023 C 
BRANCH  10  11
HETATM   11  C8  UNL     1     -11.674  16.129  22.038  1.00  0.00     0.030 C 
BRANCH  11  12
HETATM   12  C7  UNL     1     -10.415  16.813  22.359  1.00  0.00    -0.004 C 
BRANCH  12  13
HETATM   13  C6  UNL     1      -9.271  16.667  21.708  1.00  0.00     0.096 A 
HETATM   14  C5  UNL     1      -8.973  17.444  20.595  1.00  0.00     0.262 A 
HETATM   15  N2  UNL     1      -7.818  17.315  19.915  1.00  0.00    -0.307 N 
HETATM   16  O1  UNL     1      -9.855  18.292  20.249  1.00  0.00    -0.267 OA
HETATM   17  C4  UNL     1      -6.889  16.420  20.282  1.00  0.00     0.126 A 
ATOM     18  H2  UNL     1      -7.646  17.910  19.104  1.00  0.00     0.170 HD
HETATM   19  N7  UNL     1      -7.145  15.654  21.353  1.00  0.00    -0.307 N 
HETATM   20  C13 UNL     1      -8.304  15.755  22.069  1.00  0.00     0.262 A 
ATOM     21  H7  UNL     1      -6.447  14.969  21.644  1.00  0.00     0.170 HD
HETATM   22  O2  UNL     1      -8.489  15.013  23.060  1.00  0.00    -0.267 OA
BRANCH  17  23
HETATM   23  C3  UNL     1      -5.740  16.277  19.623  1.00  0.00     0.133 C 
BRANCH  23  24
HETATM   24  N1  UNL     1      -5.478  15.185  18.770  1.00  0.00    -0.395 N 
HETATM   25  C1  UNL     1      -4.277  15.190  17.980  1.00  0.00     0.148 C 
HETATM   26  C2  UNL     1      -6.394  14.090  18.689  1.00  0.00     0.148 C 
ENDBRANCH  23  24
ENDBRANCH  17  23
ENDBRANCH  12  13
ENDBRANCH  11  12
ENDBRANCH  10  11
ENDBRANCH   9  10
ENDBRANCH   1   9
TORSDOF 7
ENDMDL
