MODEL 1
REMARK VINA RESULT: -9.006836249      0.000      0.000
REMARK  4 active torsions:
REMARK  status: ('A' for Active; 'I' for Inactive)
REMARK    1  A    between atoms: N3_10  and  S1_12 
REMARK    2  A    between atoms: S1_12  and  N4_15 
REMARK    3  A    between atoms: N4_15  and  C4_17 
REMARK    4  A    between atoms: C4_17  and  C5_18 
ROOT
HETATM    1  S1  UNL     1      -8.614  12.433  19.979  1.00  0.00     0.320 S 
HETATM    2  O3  UNL     1      -8.369  12.688  21.444  1.00  0.00    -0.182 OA
HETATM    3  O4  UNL     1      -9.011  10.974  19.848  1.00  0.00    -0.182 OA
ENDROOT
BRANCH   1   4
HETATM    4  N3  UNL     1      -7.271  12.739  19.057  1.00  0.00    -0.248 N 
HETATM    5  C3  UNL     1      -6.525  13.745  19.031  1.00  0.00     0.191 A 
HETATM    6  C2  UNL     1      -6.603  14.897  19.764  1.00  0.00     0.304 A 
HETATM    7  N8  UNL     1      -5.460  13.710  18.141  1.00  0.00    -0.288 N 
HETATM    8  N2  UNL     1      -5.707  15.919  19.627  1.00  0.00    -0.259 N 
HETATM    9  O2  UNL     1      -7.541  15.020  20.602  1.00  0.00    -0.263 OA
HETATM   10  N1  UNL     1      -4.716  15.846  18.775  1.00  0.00    -0.248 N 
ATOM     11  H2  UNL     1      -5.813  16.756  20.200  1.00  0.00     0.190 HD
HETATM   12  C1  UNL     1      -4.610  14.729  18.040  1.00  0.00     0.340 A 
ATOM     13  H1  UNL     1      -4.048  16.611  18.675  1.00  0.00     0.192 HD
HETATM   14  O1  UNL     1      -3.635  14.697  17.225  1.00  0.00    -0.245 OA
ATOM     15  H8  UNL     1      -5.326  12.887  17.554  1.00  0.00     0.172 HD
ATOM     16  H3  UNL     1      -7.011  11.992  18.412  1.00  0.00     0.182 HD
ENDBRANCH   1   4
BRANCH   1  17
HETATM   17  N4  UNL     1     -10.016  13.317  19.476  1.00  0.00    -0.297 N 
ATOM     18  H4  UNL     1     -10.241  13.522  18.502  1.00  0.00     0.174 HD
BRANCH  17  19
HETATM   19  C4  UNL     1     -10.830  13.730  20.592  1.00  0.00     0.193 C 
BRANCH  19  20
HETATM   20  C5  UNL     1     -10.772  15.201  20.699  1.00  0.00     0.062 A 
HETATM   21  C6  UNL     1     -11.240  15.994  21.733  1.00  0.00     0.136 A 
HETATM   22  N5  UNL     1     -10.991  17.286  21.439  1.00  0.00    -0.296 N 
HETATM   23  N6  UNL     1     -10.395  17.269  20.267  1.00  0.00    -0.243 N 
ATOM     24  H5  UNL     1     -11.218  18.104  22.005  1.00  0.00     0.187 HD
HETATM   25  N7  UNL     1     -10.250  16.063  19.803  1.00  0.00    -0.287 N 
ATOM     26  H6  UNL     1     -10.082  18.107  19.776  1.00  0.00     0.208 HD
ATOM     27  H7  UNL     1      -9.816  15.811  18.915  1.00  0.00     0.188 HD
ENDBRANCH  19  20
ENDBRANCH  17  19
ENDBRANCH   1  17
TORSDOF 4
ENDMDL
MODEL 2
REMARK VINA RESULT: -8.139832674      1.681      3.232
REMARK  4 active torsions:
REMARK  status: ('A' for Active; 'I' for Inactive)
REMARK    1  A    between atoms: N3_10  and  S1_12 
REMARK    2  A    between atoms: S1_12  and  N4_15 
REMARK    3  A    between atoms: N4_15  and  C4_17 
REMARK    4  A    between atoms: C4_17  and  C5_18 
ROOT
HETATM    1  S1  UNL     1      -8.354  16.923  20.544  1.00  0.00     0.320 S 
HETATM    2  O3  UNL     1      -8.558  18.333  21.036  1.00  0.00    -0.182 OA
HETATM    3  O4  UNL     1      -8.287  16.035  21.773  1.00  0.00    -0.182 OA
ENDROOT
BRANCH   1   4
HETATM    4  N3  UNL     1      -6.964  16.765  19.655  1.00  0.00    -0.248 N 
HETATM    5  C3  UNL     1      -6.428  15.739  19.174  1.00  0.00     0.191 A 
HETATM    6  C2  UNL     1      -6.840  14.437  19.243  1.00  0.00     0.304 A 
HETATM    7  N8  UNL     1      -5.250  15.926  18.465  1.00  0.00    -0.288 N 
HETATM    8  N2  UNL     1      -6.146  13.414  18.663  1.00  0.00    -0.259 N 
HETATM    9  O2  UNL     1      -7.905  14.170  19.870  1.00  0.00    -0.263 OA
HETATM   10  N1  UNL     1      -5.037  13.632  18.001  1.00  0.00    -0.248 N 
ATOM     11  H2  UNL     1      -6.499  12.460  18.746  1.00  0.00     0.190 HD
HETATM   12  C1  UNL     1      -4.605  14.900  17.914  1.00  0.00     0.340 A 
ATOM     13  H1  UNL     1      -4.521  12.866  17.569  1.00  0.00     0.192 HD
HETATM   14  O1  UNL     1      -3.526  15.070  17.265  1.00  0.00    -0.245 OA
ATOM     15  H8  UNL     1      -4.870  16.866  18.363  1.00  0.00     0.172 HD
ATOM     16  H3  UNL     1      -6.469  17.638  19.471  1.00  0.00     0.182 HD
ENDBRANCH   1   4
BRANCH   1  17
HETATM   17  N4  UNL     1      -9.778  16.405  19.704  1.00  0.00    -0.297 N 
ATOM     18  H4  UNL     1      -9.881  16.431  18.689  1.00  0.00     0.174 HD
BRANCH  17  19
HETATM   19  C4  UNL     1     -10.801  15.931  20.603  1.00  0.00     0.193 C 
BRANCH  19  20
HETATM   20  C5  UNL     1     -10.755  14.457  20.634  1.00  0.00     0.062 A 
HETATM   21  C6  UNL     1     -10.890  13.629  21.736  1.00  0.00     0.136 A 
HETATM   22  N5  UNL     1     -10.787  12.346  21.332  1.00  0.00    -0.296 N 
HETATM   23  N6  UNL     1     -10.596  12.402  20.032  1.00  0.00    -0.243 N 
ATOM     24  H5  UNL     1     -10.844  11.508  21.912  1.00  0.00     0.187 HD
HETATM   25  N7  UNL     1     -10.572  13.625  19.589  1.00  0.00    -0.287 N 
ATOM     26  H6  UNL     1     -10.480  11.581  19.439  1.00  0.00     0.208 HD
ATOM     27  H7  UNL     1     -10.438  13.906  18.618  1.00  0.00     0.188 HD
ENDBRANCH  19  20
ENDBRANCH  17  19
ENDBRANCH   1  17
TORSDOF 4
ENDMDL
MODEL 3
REMARK VINA RESULT: -8.026594221      2.479      5.012
REMARK  4 active torsions:
REMARK  status: ('A' for Active; 'I' for Inactive)
REMARK    1  A    between atoms: N3_10  and  S1_12 
REMARK    2  A    between atoms: S1_12  and  N4_15 
REMARK    3  A    between atoms: N4_15  and  C4_17 
REMARK    4  A    between atoms: C4_17  and  C5_18 
ROOT
HETATM    1  S1  UNL     1      -9.996  16.051  20.759  1.00  0.00     0.320 S 
HETATM    2  O3  UNL     1     -10.761  16.145  22.055  1.00  0.00    -0.182 OA
HETATM    3  O4  UNL     1     -10.448  17.215  19.897  1.00  0.00    -0.182 OA
ENDROOT
BRANCH   1   4
HETATM    4  N3  UNL     1     -10.275  14.620  19.971  1.00  0.00    -0.248 N 
HETATM    5  C3  UNL     1      -9.648  13.536  20.024  1.00  0.00     0.191 A 
HETATM    6  C2  UNL     1      -8.540  13.215  20.758  1.00  0.00     0.304 A 
HETATM    7  N8  UNL     1     -10.129  12.498  19.238  1.00  0.00    -0.288 N 
HETATM    8  N2  UNL     1      -7.962  11.978  20.716  1.00  0.00    -0.259 N 
HETATM    9  O2  UNL     1      -8.031  14.098  21.506  1.00  0.00    -0.263 OA
HETATM   10  N1  UNL     1      -8.447  11.025  19.960  1.00  0.00    -0.248 N 
ATOM     11  H2  UNL     1      -7.136  11.793  21.285  1.00  0.00     0.190 HD
HETATM   12  C1  UNL     1      -9.535  11.308  19.226  1.00  0.00     0.340 A 
ATOM     13  H1  UNL     1      -8.013  10.103  19.929  1.00  0.00     0.192 HD
HETATM   14  O1  UNL     1      -9.974  10.357  18.506  1.00  0.00    -0.245 OA
ATOM     15  H8  UNL     1     -10.954  12.651  18.658  1.00  0.00     0.172 HD
ATOM     16  H3  UNL     1     -11.081  14.623  19.346  1.00  0.00     0.182 HD
ENDBRANCH   1   4
BRANCH   1  17
HETATM   17  N4  UNL     1      -8.319  16.358  21.068  1.00  0.00    -0.297 N 
ATOM     18  H4  UNL     1      -7.822  16.023  21.894  1.00  0.00     0.174 HD
BRANCH  17  19
HETATM   19  C4  UNL     1      -7.706  17.140  20.024  1.00  0.00     0.193 C 
BRANCH  19  20
HETATM   20  C5  UNL     1      -6.787  16.272  19.262  1.00  0.00     0.062 A 
HETATM   21  C6  UNL     1      -5.502  15.891  19.605  1.00  0.00     0.136 A 
HETATM   22  N5  UNL     1      -5.009  15.094  18.635  1.00  0.00    -0.296 N 
HETATM   23  N6  UNL     1      -5.967  15.001  17.739  1.00  0.00    -0.243 N 
ATOM     24  H5  UNL     1      -4.088  14.657  18.602  1.00  0.00     0.187 HD
HETATM   25  N7  UNL     1      -7.025  15.680  18.074  1.00  0.00    -0.287 N 
ATOM     26  H6  UNL     1      -5.889  14.459  16.878  1.00  0.00     0.208 HD
ATOM     27  H7  UNL     1      -7.886  15.751  17.532  1.00  0.00     0.188 HD
ENDBRANCH  19  20
ENDBRANCH  17  19
ENDBRANCH   1  17
TORSDOF 4
ENDMDL
MODEL 4
REMARK VINA RESULT: -7.959264555      2.580      5.345
REMARK  4 active torsions:
REMARK  status: ('A' for Active; 'I' for Inactive)
REMARK    1  A    between atoms: N3_10  and  S1_12 
REMARK    2  A    between atoms: S1_12  and  N4_15 
REMARK    3  A    between atoms: N4_15  and  C4_17 
REMARK    4  A    between atoms: C4_17  and  C5_18 
ROOT
HETATM    1  S1  UNL     1      -9.587  15.258  20.928  1.00  0.00     0.320 S 
HETATM    2  O3  UNL     1      -9.664  14.878  22.384  1.00  0.00    -0.182 OA
HETATM    3  O4  UNL     1     -10.347  16.563  20.774  1.00  0.00    -0.182 OA
ENDROOT
BRANCH   1   4
HETATM    4  N3  UNL     1     -10.246  14.099  19.944  1.00  0.00    -0.248 N 
HETATM    5  C3  UNL     1      -9.850  12.937  19.691  1.00  0.00     0.191 A 
HETATM    6  C2  UNL     1      -8.746  12.280  20.160  1.00  0.00     0.304 A 
HETATM    7  N8  UNL     1     -10.626  12.191  18.815  1.00  0.00    -0.288 N 
HETATM    8  N2  UNL     1      -8.440  11.001  19.793  1.00  0.00    -0.259 N 
HETATM    9  O2  UNL     1      -7.979  12.882  20.964  1.00  0.00    -0.263 OA
HETATM   10  N1  UNL     1      -9.198  10.330  18.963  1.00  0.00    -0.248 N 
ATOM     11  H2  UNL     1      -7.603  10.559  20.174  1.00  0.00     0.190 HD
HETATM   12  C1  UNL     1     -10.291  10.946  18.484  1.00  0.00     0.340 A 
ATOM     13  H1  UNL     1      -8.968   9.375  18.691  1.00  0.00     0.192 HD
HETATM   14  O1  UNL     1     -11.000  10.262  17.682  1.00  0.00    -0.245 OA
ATOM     15  H8  UNL     1     -11.469  12.603  18.417  1.00  0.00     0.172 HD
ATOM     16  H3  UNL     1     -11.107  14.374  19.471  1.00  0.00     0.182 HD
ENDBRANCH   1   4
BRANCH   1  17
HETATM   17  N4  UNL     1      -7.948  15.654  20.531  1.00  0.00    -0.297 N 
ATOM     18  H4  UNL     1      -7.184  15.659  21.208  1.00  0.00     0.174 HD
BRANCH  17  19
HETATM   19  C4  UNL     1      -7.786  15.977  19.135  1.00  0.00     0.193 C 
BRANCH  19  20
HETATM   20  C5  UNL     1      -6.464  15.495  18.690  1.00  0.00     0.062 A 
HETATM   21  C6  UNL     1      -5.219  15.913  19.126  1.00  0.00     0.136 A 
HETATM   22  N5  UNL     1      -4.270  15.220  18.465  1.00  0.00    -0.296 N 
HETATM   23  N6  UNL     1      -4.924  14.413  17.658  1.00  0.00    -0.243 N 
ATOM     24  H5  UNL     1      -3.258  15.304  18.568  1.00  0.00     0.187 HD
HETATM   25  N7  UNL     1      -6.213  14.548  17.763  1.00  0.00    -0.287 N 
ATOM     26  H6  UNL     1      -4.472  13.757  17.021  1.00  0.00     0.208 HD
ATOM     27  H7  UNL     1      -6.914  14.027  17.236  1.00  0.00     0.188 HD
ENDBRANCH  19  20
ENDBRANCH  17  19
ENDBRANCH   1  17
TORSDOF 4
ENDMDL
MODEL 5
REMARK VINA RESULT: -7.943716919      2.302      3.402
REMARK  4 active torsions:
REMARK  status: ('A' for Active; 'I' for Inactive)
REMARK    1  A    between atoms: N3_10  and  S1_12 
REMARK    2  A    between atoms: S1_12  and  N4_15 
REMARK    3  A    between atoms: N4_15  and  C4_17 
REMARK    4  A    between atoms: C4_17  and  C5_18 
ROOT
HETATM    1  S1  UNL     1      -9.401  15.687  20.061  1.00  0.00     0.320 S 
HETATM    2  O3  UNL     1     -10.763  15.418  19.476  1.00  0.00    -0.182 OA
HETATM    3  O4  UNL     1      -9.352  17.166  20.398  1.00  0.00    -0.182 OA
ENDROOT
BRANCH   1   4
HETATM    4  N3  UNL     1      -8.181  15.307  19.005  1.00  0.00    -0.248 N 
HETATM    5  C3  UNL     1      -6.943  15.468  19.114  1.00  0.00     0.191 A 
HETATM    6  C2  UNL     1      -6.230  16.010  20.148  1.00  0.00     0.304 A 
HETATM    7  N8  UNL     1      -6.162  15.042  18.048  1.00  0.00    -0.288 N 
HETATM    8  N2  UNL     1      -4.869  16.120  20.126  1.00  0.00    -0.259 N 
HETATM    9  O2  UNL     1      -6.857  16.426  21.164  1.00  0.00    -0.263 OA
HETATM   10  N1  UNL     1      -4.169  15.706  19.100  1.00  0.00    -0.248 N 
ATOM     11  H2  UNL     1      -4.388  16.533  20.925  1.00  0.00     0.190 HD
HETATM   12  C1  UNL     1      -4.837  15.168  18.068  1.00  0.00     0.340 A 
ATOM     13  H1  UNL     1      -3.152  15.789  19.086  1.00  0.00     0.192 HD
HETATM   14  O1  UNL     1      -4.122  14.779  17.092  1.00  0.00    -0.245 OA
ATOM     15  H8  UNL     1      -6.612  14.625  17.234  1.00  0.00     0.172 HD
ATOM     16  H3  UNL     1      -8.485  14.875  18.133  1.00  0.00     0.182 HD
ENDBRANCH   1   4
BRANCH   1  17
HETATM   17  N4  UNL     1      -9.271  14.883  21.590  1.00  0.00    -0.297 N 
ATOM     18  H4  UNL     1      -8.692  15.216  22.360  1.00  0.00     0.174 HD
BRANCH  17  19
HETATM   19  C4  UNL     1     -10.077  13.689  21.648  1.00  0.00     0.193 C 
BRANCH  19  20
HETATM   20  C5  UNL     1      -9.677  12.795  20.544  1.00  0.00     0.062 A 
HETATM   21  C6  UNL     1      -8.457  12.167  20.363  1.00  0.00     0.136 A 
HETATM   22  N5  UNL     1      -8.505  11.440  19.227  1.00  0.00    -0.296 N 
HETATM   23  N6  UNL     1      -9.714  11.627  18.743  1.00  0.00    -0.243 N 
ATOM     24  H5  UNL     1      -7.761  10.867  18.828  1.00  0.00     0.187 HD
HETATM   25  N7  UNL     1     -10.428  12.417  19.490  1.00  0.00    -0.287 N 
ATOM     26  H6  UNL     1     -10.052  11.202  17.880  1.00  0.00     0.208 HD
ATOM     27  H7  UNL     1     -11.391  12.701  19.309  1.00  0.00     0.188 HD
ENDBRANCH  19  20
ENDBRANCH  17  19
ENDBRANCH   1  17
TORSDOF 4
ENDMDL
