MODEL 1
REMARK VINA RESULT: -8.367337276      0.000      0.000
REMARK  5 active torsions:
REMARK  status: ('A' for Active; 'I' for Inactive)
REMARK    1  A    between atoms: N3_4  and  N4_6 
REMARK    2  A    between atoms: N4_6  and  S1_8 
REMARK    3  A    between atoms: S1_8  and  C2_11 
REMARK    4  A    between atoms: C6_15  and  S2_16 
REMARK    5  A    between atoms: S2_16  and  N5_17 
ROOT
HETATM    1  C2  UNL     1      -8.619  16.425  20.224  1.00  0.00     0.082 A 
HETATM    2  C3  UNL     1      -9.532  17.253  20.847  1.00  0.00     0.025 A 
HETATM    3  C4  UNL     1     -10.716  16.762  21.356  1.00  0.00     0.003 A 
HETATM    4  C5  UNL     1     -10.968  15.428  21.228  1.00  0.00     0.025 A 
HETATM    5  C6  UNL     1     -10.102  14.547  20.618  1.00  0.00     0.080 A 
HETATM    6  C7  UNL     1      -8.910  15.065  20.111  1.00  0.00     0.050 A 
ENDROOT
BRANCH   1   7
HETATM    7  S1  UNL     1      -7.106  17.032  19.570  1.00  0.00     0.276 S 
HETATM    8  O1  UNL     1      -7.220  17.099  18.077  1.00  0.00    -0.199 OA
HETATM    9  O2  UNL     1      -6.944  18.433  20.086  1.00  0.00    -0.199 OA
BRANCH   7  10
HETATM   10  N4  UNL     1      -5.773  16.060  20.000  1.00  0.00    -0.221 N 
ATOM     11  H4  UNL     1      -5.692  15.698  20.950  1.00  0.00     0.200 HD
BRANCH  10  12
HETATM   12  N3  UNL     1      -4.797  15.760  19.055  1.00  0.00    -0.266 N 
HETATM   13  C1  UNL     1      -4.824  14.720  18.296  1.00  0.00     0.216 C 
HETATM   14  N1  UNL     1      -3.761  14.537  17.376  1.00  0.00    -0.065 NA
HETATM   15  N2  UNL     1      -5.912  13.821  18.426  1.00  0.00    -0.065 NA
ATOM     16  H3  UNL     1      -4.012  16.404  18.957  1.00  0.00     0.190 HD
ENDBRANCH  10  12
ENDBRANCH   7  10
ENDBRANCH   1   7
BRANCH   5  17
HETATM   17  S2  UNL     1     -10.452  12.854  20.471  1.00  0.00     0.256 S 
HETATM   18  O3  UNL     1     -11.346  12.584  19.285  1.00  0.00    -0.201 OA
HETATM   19  O4  UNL     1      -9.183  12.088  20.267  1.00  0.00    -0.201 OA
BRANCH  17  20
HETATM   20  N5  UNL     1     -11.307  12.331  21.873  1.00  0.00    -0.324 N 
ATOM     21  H52 UNL     1     -11.930  12.920  22.425  1.00  0.00     0.169 HD
ATOM     22  H51 UNL     1     -11.087  11.352  22.052  1.00  0.00     0.169 HD
ENDBRANCH  17  20
ENDBRANCH   5  17
TORSDOF 5
ENDMDL
MODEL 2
REMARK VINA RESULT: -8.225751908      0.857      1.035
REMARK  5 active torsions:
REMARK  status: ('A' for Active; 'I' for Inactive)
REMARK    1  A    between atoms: N3_4  and  N4_6 
REMARK    2  A    between atoms: N4_6  and  S1_8 
REMARK    3  A    between atoms: S1_8  and  C2_11 
REMARK    4  A    between atoms: C6_15  and  S2_16 
REMARK    5  A    between atoms: S2_16  and  N5_17 
ROOT
HETATM    1  C2  UNL     1      -8.651  16.499  20.273  1.00  0.00     0.082 A 
HETATM    2  C3  UNL     1      -9.536  17.361  20.890  1.00  0.00     0.025 A 
HETATM    3  C4  UNL     1     -10.735  16.912  21.404  1.00  0.00     0.003 A 
HETATM    4  C5  UNL     1     -11.029  15.586  21.288  1.00  0.00     0.025 A 
HETATM    5  C6  UNL     1     -10.192  14.673  20.685  1.00  0.00     0.080 A 
HETATM    6  C7  UNL     1      -8.985  15.148  20.172  1.00  0.00     0.050 A 
ENDROOT
BRANCH   1   7
HETATM    7  S1  UNL     1      -7.120  17.052  19.612  1.00  0.00     0.276 S 
HETATM    8  O1  UNL     1      -7.231  17.101  18.118  1.00  0.00    -0.199 OA
HETATM    9  O2  UNL     1      -6.917  18.455  20.109  1.00  0.00    -0.199 OA
BRANCH   7  10
HETATM   10  N4  UNL     1      -5.817  16.047  20.057  1.00  0.00    -0.221 N 
ATOM     11  H4  UNL     1      -5.767  15.666  21.002  1.00  0.00     0.200 HD
BRANCH  10  12
HETATM   12  N3  UNL     1      -4.822  15.746  19.131  1.00  0.00    -0.266 N 
HETATM   13  C1  UNL     1      -4.859  14.732  18.338  1.00  0.00     0.216 C 
HETATM   14  N1  UNL     1      -3.775  14.545  17.444  1.00  0.00    -0.065 NA
HETATM   15  N2  UNL     1      -5.978  13.865  18.407  1.00  0.00    -0.065 NA
ATOM     16  H3  UNL     1      -4.015  16.366  19.078  1.00  0.00     0.190 HD
ENDBRANCH  10  12
ENDBRANCH   7  10
ENDBRANCH   1   7
BRANCH   5  17
HETATM   17  S2  UNL     1     -10.596  12.991  20.553  1.00  0.00     0.256 S 
HETATM   18  O3  UNL     1     -11.389  12.525  21.751  1.00  0.00    -0.201 OA
HETATM   19  O4  UNL     1     -11.436  12.762  19.336  1.00  0.00    -0.201 OA
BRANCH  17  20
HETATM   20  N5  UNL     1      -9.143  12.063  20.522  1.00  0.00    -0.324 N 
ATOM     21  H52 UNL     1      -9.102  11.054  20.385  1.00  0.00     0.169 HD
ATOM     22  H51 UNL     1      -8.347  12.686  20.663  1.00  0.00     0.169 HD
ENDBRANCH  17  20
ENDBRANCH   5  17
TORSDOF 5
ENDMDL
MODEL 3
REMARK VINA RESULT: -8.142229542      0.940      1.157
REMARK  5 active torsions:
REMARK  status: ('A' for Active; 'I' for Inactive)
REMARK    1  A    between atoms: N3_4  and  N4_6 
REMARK    2  A    between atoms: N4_6  and  S1_8 
REMARK    3  A    between atoms: S1_8  and  C2_11 
REMARK    4  A    between atoms: C6_15  and  S2_16 
REMARK    5  A    between atoms: S2_16  and  N5_17 
ROOT
HETATM    1  C2  UNL     1      -8.568  16.277  20.163  1.00  0.00     0.082 A 
HETATM    2  C3  UNL     1      -9.571  17.035  20.733  1.00  0.00     0.025 A 
HETATM    3  C4  UNL     1     -10.733  16.456  21.199  1.00  0.00     0.003 A 
HETATM    4  C5  UNL     1     -10.869  15.105  21.083  1.00  0.00     0.025 A 
HETATM    5  C6  UNL     1      -9.909  14.289  20.526  1.00  0.00     0.080 A 
HETATM    6  C7  UNL     1      -8.742  14.896  20.062  1.00  0.00     0.050 A 
ENDROOT
BRANCH   1   7
HETATM    7  S1  UNL     1      -7.081  16.996  19.564  1.00  0.00     0.276 S 
HETATM    8  O1  UNL     1      -7.171  17.116  18.073  1.00  0.00    -0.199 OA
HETATM    9  O2  UNL     1      -7.012  18.383  20.138  1.00  0.00    -0.199 OA
BRANCH   7  10
HETATM   10  N4  UNL     1      -5.702  16.087  19.984  1.00  0.00    -0.221 N 
ATOM     11  H4  UNL     1      -5.582  15.755  20.941  1.00  0.00     0.200 HD
BRANCH  10  12
HETATM   12  N3  UNL     1      -4.739  15.798  19.021  1.00  0.00    -0.266 N 
HETATM   13  C1  UNL     1      -4.761  14.751  18.272  1.00  0.00     0.216 C 
HETATM   14  N1  UNL     1      -3.714  14.581  17.331  1.00  0.00    -0.065 NA
HETATM   15  N2  UNL     1      -5.828  13.832  18.433  1.00  0.00    -0.065 NA
ATOM     16  H3  UNL     1      -3.969  16.456  18.901  1.00  0.00     0.190 HD
ENDBRANCH  10  12
ENDBRANCH   7  10
ENDBRANCH   1   7
BRANCH   5  17
HETATM   17  S2  UNL     1     -10.114  12.571  20.393  1.00  0.00     0.256 S 
HETATM   18  O3  UNL     1      -8.799  11.851  20.571  1.00  0.00    -0.201 OA
HETATM   19  O4  UNL     1     -11.045  12.086  21.458  1.00  0.00    -0.201 OA
BRANCH  17  20
HETATM   20  N5  UNL     1     -10.683  12.193  18.811  1.00  0.00    -0.324 N 
ATOM     21  H52 UNL     1     -10.912  12.884  18.096  1.00  0.00     0.169 HD
ATOM     22  H51 UNL     1     -10.751  11.180  18.714  1.00  0.00     0.169 HD
ENDBRANCH  17  20
ENDBRANCH   5  17
TORSDOF 5
ENDMDL
MODEL 4
REMARK VINA RESULT: -7.778548559      0.943      1.280
REMARK  5 active torsions:
REMARK  status: ('A' for Active; 'I' for Inactive)
REMARK    1  A    between atoms: N3_4  and  N4_6 
REMARK    2  A    between atoms: N4_6  and  S1_8 
REMARK    3  A    between atoms: S1_8  and  C2_11 
REMARK    4  A    between atoms: C6_15  and  S2_16 
REMARK    5  A    between atoms: S2_16  and  N5_17 
ROOT
HETATM    1  C2  UNL     1      -8.597  16.440  20.488  1.00  0.00     0.082 A 
HETATM    2  C3  UNL     1      -9.593  17.269  20.966  1.00  0.00     0.025 A 
HETATM    3  C4  UNL     1     -10.839  16.779  21.296  1.00  0.00     0.003 A 
HETATM    4  C5  UNL     1     -11.068  15.444  21.138  1.00  0.00     0.025 A 
HETATM    5  C6  UNL     1     -10.121  14.562  20.667  1.00  0.00     0.080 A 
HETATM    6  C7  UNL     1      -8.868  15.079  20.339  1.00  0.00     0.050 A 
ENDROOT
BRANCH   1   7
HETATM    7  S1  UNL     1      -7.004  17.046  20.063  1.00  0.00     0.276 S 
HETATM    8  O1  UNL     1      -6.993  18.534  20.241  1.00  0.00    -0.199 OA
HETATM    9  O2  UNL     1      -6.039  16.453  21.049  1.00  0.00    -0.199 OA
BRANCH   7  10
HETATM   10  N4  UNL     1      -6.565  16.657  18.462  1.00  0.00    -0.221 N 
ATOM     11  H4  UNL     1      -6.575  17.378  17.741  1.00  0.00     0.200 HD
BRANCH  10  12
HETATM   12  N3  UNL     1      -6.193  15.355  18.139  1.00  0.00    -0.266 N 
HETATM   13  C1  UNL     1      -4.972  14.958  18.044  1.00  0.00     0.216 C 
HETATM   14  N1  UNL     1      -4.737  13.601  17.706  1.00  0.00    -0.065 NA
HETATM   15  N2  UNL     1      -3.938  15.898  18.279  1.00  0.00    -0.065 NA
ATOM     16  H3  UNL     1      -6.933  14.675  17.969  1.00  0.00     0.190 HD
ENDBRANCH  10  12
ENDBRANCH   7  10
ENDBRANCH   1   7
BRANCH   5  17
HETATM   17  S2  UNL     1     -10.445  12.868  20.476  1.00  0.00     0.256 S 
HETATM   18  O3  UNL     1     -11.319  12.613  19.272  1.00  0.00    -0.201 OA
HETATM   19  O4  UNL     1      -9.163  12.125  20.273  1.00  0.00    -0.201 OA
BRANCH  17  20
HETATM   20  N5  UNL     1     -11.311  12.302  21.855  1.00  0.00    -0.324 N 
ATOM     21  H52 UNL     1     -11.742  12.904  22.557  1.00  0.00     0.169 HD
ATOM     22  H51 UNL     1     -11.319  11.282  21.848  1.00  0.00     0.169 HD
ENDBRANCH  17  20
ENDBRANCH   5  17
TORSDOF 5
ENDMDL
MODEL 5
REMARK VINA RESULT: -7.661150623      1.296      1.658
REMARK  5 active torsions:
REMARK  status: ('A' for Active; 'I' for Inactive)
REMARK    1  A    between atoms: N3_4  and  N4_6 
REMARK    2  A    between atoms: N4_6  and  S1_8 
REMARK    3  A    between atoms: S1_8  and  C2_11 
REMARK    4  A    between atoms: C6_15  and  S2_16 
REMARK    5  A    between atoms: S2_16  and  N5_17 
ROOT
HETATM    1  C2  UNL     1      -8.628  16.505  20.493  1.00  0.00     0.082 A 
HETATM    2  C3  UNL     1      -9.600  17.360  20.972  1.00  0.00     0.025 A 
HETATM    3  C4  UNL     1     -10.860  16.905  21.300  1.00  0.00     0.003 A 
HETATM    4  C5  UNL     1     -11.126  15.578  21.138  1.00  0.00     0.025 A 
HETATM    5  C6  UNL     1     -10.204  14.670  20.665  1.00  0.00     0.080 A 
HETATM    6  C7  UNL     1      -8.936  15.152  20.340  1.00  0.00     0.050 A 
ENDROOT
BRANCH   1   7
HETATM    7  S1  UNL     1      -7.017  17.067  20.070  1.00  0.00     0.276 S 
HETATM    8  O1  UNL     1      -6.963  18.553  20.256  1.00  0.00    -0.199 OA
HETATM    9  O2  UNL     1      -6.071  16.441  21.053  1.00  0.00    -0.199 OA
BRANCH   7  10
HETATM   10  N4  UNL     1      -6.590  16.673  18.468  1.00  0.00    -0.221 N 
ATOM     11  H4  UNL     1      -6.598  17.394  17.746  1.00  0.00     0.200 HD
BRANCH  10  12
HETATM   12  N3  UNL     1      -6.228  15.369  18.145  1.00  0.00    -0.266 N 
HETATM   13  C1  UNL     1      -5.010  14.962  18.046  1.00  0.00     0.216 C 
HETATM   14  N1  UNL     1      -4.786  13.603  17.709  1.00  0.00    -0.065 NA
HETATM   15  N2  UNL     1      -3.969  15.894  18.280  1.00  0.00    -0.065 NA
ATOM     16  H3  UNL     1      -6.973  14.693  17.975  1.00  0.00     0.190 HD
ENDBRANCH  10  12
ENDBRANCH   7  10
ENDBRANCH   1   7
BRANCH   5  17
HETATM   17  S2  UNL     1     -10.575  12.986  20.471  1.00  0.00     0.256 S 
HETATM   18  O3  UNL     1     -11.311  12.448  21.674  1.00  0.00    -0.201 OA
HETATM   19  O4  UNL     1     -11.454  12.793  19.276  1.00  0.00    -0.201 OA
BRANCH  17  20
HETATM   20  N5  UNL     1      -9.104  12.097  20.344  1.00  0.00    -0.324 N 
ATOM     21  H52 UNL     1      -8.782  11.408  21.023  1.00  0.00     0.169 HD
ATOM     22  H51 UNL     1      -8.619  12.373  19.490  1.00  0.00     0.169 HD
ENDBRANCH  17  20
ENDBRANCH   5  17
TORSDOF 5
ENDMDL
