MODEL 1
REMARK VINA RESULT: -8.321569490      0.000      0.000
REMARK  6 active torsions:
REMARK  status: ('A' for Active; 'I' for Inactive)
REMARK    1  A    between atoms: N1_3  and  S1_5 
REMARK    2  A    between atoms: S1_5  and  C3_8 
REMARK    3  A    between atoms: C3_8  and  C4_9 
REMARK    4  A    between atoms: C5_12  and  N3_13 
REMARK    5  A    between atoms: C7_19  and  C8_20 
REMARK    6  A    between atoms: N5_21  and  N6_23 
ROOT
HETATM    1  C1  UNL     1     -11.774  16.386  22.145  1.00  0.00     0.124 C 
HETATM    2  C2  UNL     1     -10.800  16.905  21.620  1.00  0.00    -0.065 C 
HETATM    3  N1  UNL     1      -9.684  17.512  21.038  1.00  0.00    -0.253 N 
ATOM      4  H1  UNL     1      -9.553  18.518  21.151  1.00  0.00     0.188 HD
ENDROOT
BRANCH   3   5
HETATM    5  S1  UNL     1      -8.521  16.612  20.137  1.00  0.00     0.242 S 
HETATM    6  O1  UNL     1      -9.206  15.857  19.007  1.00  0.00    -0.205 OA
HETATM    7  O2  UNL     1      -7.438  17.484  19.630  1.00  0.00    -0.205 OA
BRANCH   5   8
HETATM    8  C3  UNL     1      -7.870  15.362  21.233  1.00  0.00     0.222 C 
BRANCH   8   9
HETATM    9  C4  UNL     1      -8.562  14.070  21.002  1.00  0.00     0.055 A 
HETATM   10  N2  UNL     1      -9.775  13.851  21.575  1.00  0.00    -0.194 N 
HETATM   11  C5  UNL     1     -10.460  12.712  21.404  1.00  0.00     0.675 A 
ATOM     12  H2  UNL     1     -10.180  14.582  22.158  1.00  0.00     0.184 HD
HETATM   13  N4  UNL     1      -9.937  11.738  20.637  1.00  0.00    -0.201 N 
HETATM   14  C6  UNL     1      -8.755  11.937  20.072  1.00  0.00     0.121 A 
ATOM     15  H4  UNL     1     -10.441  10.863  20.493  1.00  0.00     0.183 HD
HETATM   16  C7  UNL     1      -7.996  13.105  20.216  1.00  0.00     0.021 A 
BRANCH  11  17
HETATM   17  N3  UNL     1     -11.624  12.524  21.965  1.00  0.00    -0.234 N 
ATOM     18  H32 UNL     1     -11.742  12.748  22.953  1.00  0.00     0.174 HD
ATOM     19  H31 UNL     1     -12.418  12.159  21.438  1.00  0.00     0.174 HD
ENDBRANCH  11  17
BRANCH  16  20
HETATM   20  C8  UNL     1      -6.705  13.242  19.569  1.00  0.00     0.122 C 
HETATM   21  N5  UNL     1      -6.466  13.761  18.442  1.00  0.00    -0.309 N 
ATOM     22  H5  UNL     1      -7.242  14.135  17.896  1.00  0.00     0.186 HD
BRANCH  21  23
HETATM   23  N6  UNL     1      -5.183  13.836  17.927  1.00  0.00    -0.276 N 
HETATM   24  C9  UNL     1      -4.376  14.815  18.078  1.00  0.00     0.215 C 
HETATM   25  N7  UNL     1      -4.771  15.953  18.831  1.00  0.00    -0.065 NA
HETATM   26  N8  UNL     1      -3.099  14.729  17.483  1.00  0.00    -0.065 NA
ATOM     27  H6  UNL     1      -4.854  13.041  17.378  1.00  0.00     0.189 HD
ENDBRANCH  21  23
ENDBRANCH  16  20
ENDBRANCH   8   9
ENDBRANCH   5   8
ENDBRANCH   3   5
TORSDOF 6
ENDMDL
MODEL 2
REMARK VINA RESULT: -7.897003715      1.550      1.924
REMARK  6 active torsions:
REMARK  status: ('A' for Active; 'I' for Inactive)
REMARK    1  A    between atoms: N1_3  and  S1_5 
REMARK    2  A    between atoms: S1_5  and  C3_8 
REMARK    3  A    between atoms: C3_8  and  C4_9 
REMARK    4  A    between atoms: C5_12  and  N3_13 
REMARK    5  A    between atoms: C7_19  and  C8_20 
REMARK    6  A    between atoms: N5_21  and  N6_23 
ROOT
HETATM    1  C1  UNL     1      -7.084  18.986  20.737  1.00  0.00     0.124 C 
HETATM    2  C2  UNL     1      -8.267  18.683  20.734  1.00  0.00    -0.065 C 
HETATM    3  N1  UNL     1      -9.625  18.353  20.716  1.00  0.00    -0.253 N 
ATOM      4  H1  UNL     1     -10.316  19.103  20.722  1.00  0.00     0.188 HD
ENDROOT
BRANCH   3   5
HETATM    5  S1  UNL     1     -10.167  16.716  20.684  1.00  0.00     0.242 S 
HETATM    6  O1  UNL     1     -11.267  16.509  21.716  1.00  0.00    -0.205 OA
HETATM    7  O2  UNL     1     -10.611  16.320  19.329  1.00  0.00    -0.205 OA
BRANCH   5   8
HETATM    8  C3  UNL     1      -8.798  15.706  21.225  1.00  0.00     0.222 C 
BRANCH   8   9
HETATM    9  C4  UNL     1      -9.130  14.269  21.069  1.00  0.00     0.055 A 
HETATM   10  N2  UNL     1     -10.292  13.792  21.587  1.00  0.00    -0.194 N 
HETATM   11  C5  UNL     1     -10.661  12.508  21.477  1.00  0.00     0.675 A 
ATOM     12  H2  UNL     1     -10.909  14.437  22.080  1.00  0.00     0.184 HD
HETATM   13  N4  UNL     1      -9.855  11.646  20.830  1.00  0.00    -0.201 N 
HETATM   14  C6  UNL     1      -8.719  12.095  20.319  1.00  0.00     0.121 A 
ATOM     15  H4  UNL     1     -10.116  10.664  20.734  1.00  0.00     0.183 HD
HETATM   16  C7  UNL     1      -8.285  13.424  20.405  1.00  0.00     0.021 A 
BRANCH  11  17
HETATM   17  N3  UNL     1     -11.783  12.073  21.984  1.00  0.00    -0.234 N 
ATOM     18  H32 UNL     1     -12.125  12.478  22.855  1.00  0.00     0.174 HD
ATOM     19  H31 UNL     1     -12.326  11.339  21.528  1.00  0.00     0.174 HD
ENDBRANCH  11  17
BRANCH  16  20
HETATM   20  C8  UNL     1      -7.020  13.836  19.824  1.00  0.00     0.122 C 
HETATM   21  N5  UNL     1      -6.554  13.508  18.696  1.00  0.00    -0.309 N 
ATOM     22  H5  UNL     1      -7.098  12.885  18.099  1.00  0.00     0.186 HD
BRANCH  21  23
HETATM   23  N6  UNL     1      -5.328  13.968  18.247  1.00  0.00    -0.276 N 
HETATM   24  C9  UNL     1      -4.930  15.182  18.283  1.00  0.00     0.215 C 
HETATM   25  N7  UNL     1      -5.773  16.192  18.818  1.00  0.00    -0.065 NA
HETATM   26  N8  UNL     1      -3.645  15.481  17.782  1.00  0.00    -0.065 NA
ATOM     27  H6  UNL     1      -4.687  13.279  17.854  1.00  0.00     0.189 HD
ENDBRANCH  21  23
ENDBRANCH  16  20
ENDBRANCH   8   9
ENDBRANCH   5   8
ENDBRANCH   3   5
TORSDOF 6
ENDMDL
MODEL 3
REMARK VINA RESULT: -7.464857460      2.161      4.194
REMARK  6 active torsions:
REMARK  status: ('A' for Active; 'I' for Inactive)
REMARK    1  A    between atoms: N1_3  and  S1_5 
REMARK    2  A    between atoms: S1_5  and  C3_8 
REMARK    3  A    between atoms: C3_8  and  C4_9 
REMARK    4  A    between atoms: C5_12  and  N3_13 
REMARK    5  A    between atoms: C7_19  and  C8_20 
REMARK    6  A    between atoms: N5_21  and  N6_23 
ROOT
HETATM    1  C1  UNL     1      -8.831  10.755  19.164  1.00  0.00     0.124 C 
HETATM    2  C2  UNL     1      -9.476  11.324  20.031  1.00  0.00    -0.065 C 
HETATM    3  N1  UNL     1     -10.211  11.957  21.037  1.00  0.00    -0.253 N 
ATOM      4  H1  UNL     1     -10.837  11.400  21.618  1.00  0.00     0.188 HD
ENDROOT
BRANCH   3   5
HETATM    5  S1  UNL     1     -10.091  13.653  21.326  1.00  0.00     0.242 S 
HETATM    6  O1  UNL     1     -11.479  14.276  21.370  1.00  0.00    -0.205 OA
HETATM    7  O2  UNL     1      -9.328  13.939  22.561  1.00  0.00    -0.205 OA
BRANCH   5   8
HETATM    8  C3  UNL     1      -9.284  14.366  19.901  1.00  0.00     0.222 C 
BRANCH   8   9
HETATM    9  C4  UNL     1      -8.944  15.786  20.164  1.00  0.00     0.055 A 
HETATM   10  N2  UNL     1      -9.903  16.627  20.632  1.00  0.00    -0.194 N 
HETATM   11  C5  UNL     1      -9.665  17.918  20.898  1.00  0.00     0.675 A 
ATOM     12  H2  UNL     1     -10.842  16.260  20.786  1.00  0.00     0.184 HD
HETATM   13  N4  UNL     1      -8.430  18.415  20.698  1.00  0.00    -0.201 N 
HETATM   14  C6  UNL     1      -7.484  17.608  20.242  1.00  0.00     0.121 A 
ATOM     15  H4  UNL     1      -8.227  19.395  20.895  1.00  0.00     0.183 HD
HETATM   16  C7  UNL     1      -7.677  16.252  19.947  1.00  0.00     0.021 A 
BRANCH  11  17
HETATM   17  N3  UNL     1     -10.603  18.708  21.348  1.00  0.00    -0.234 N 
ATOM     18  H32 UNL     1     -11.099  18.454  22.202  1.00  0.00     0.174 HD
ATOM     19  H31 UNL     1     -10.852  19.572  20.865  1.00  0.00     0.174 HD
ENDBRANCH  11  17
BRANCH  16  20
HETATM   20  C8  UNL     1      -6.589  15.435  19.442  1.00  0.00     0.122 C 
HETATM   21  N5  UNL     1      -6.323  15.180  18.234  1.00  0.00    -0.309 N 
ATOM     22  H5  UNL     1      -6.916  15.572  17.503  1.00  0.00     0.186 HD
BRANCH  21  23
HETATM   23  N6  UNL     1      -5.249  14.383  17.872  1.00  0.00    -0.276 N 
HETATM   24  C9  UNL     1      -4.019  14.727  17.911  1.00  0.00     0.215 C 
HETATM   25  N7  UNL     1      -3.658  16.027  18.355  1.00  0.00    -0.065 NA
HETATM   26  N8  UNL     1      -3.047  13.788  17.506  1.00  0.00    -0.065 NA
ATOM     27  H6  UNL     1      -5.459  13.439  17.547  1.00  0.00     0.189 HD
ENDBRANCH  21  23
ENDBRANCH  16  20
ENDBRANCH   8   9
ENDBRANCH   5   8
ENDBRANCH   3   5
TORSDOF 6
ENDMDL
MODEL 4
REMARK VINA RESULT: -7.230899395      2.351      3.821
REMARK  6 active torsions:
REMARK  status: ('A' for Active; 'I' for Inactive)
REMARK    1  A    between atoms: N1_3  and  S1_5 
REMARK    2  A    between atoms: S1_5  and  C3_8 
REMARK    3  A    between atoms: C3_8  and  C4_9 
REMARK    4  A    between atoms: C5_12  and  N3_13 
REMARK    5  A    between atoms: C7_19  and  C8_20 
REMARK    6  A    between atoms: N5_21  and  N6_23 
ROOT
HETATM    1  C1  UNL     1      -7.340  14.520  23.729  1.00  0.00     0.124 C 
HETATM    2  C2  UNL     1      -8.309  14.175  23.070  1.00  0.00    -0.065 C 
HETATM    3  N1  UNL     1      -9.428  13.800  22.321  1.00  0.00    -0.253 N 
ATOM      4  H1  UNL     1     -10.358  14.031  22.672  1.00  0.00     0.188 HD
ENDROOT
BRANCH   3   5
HETATM    5  S1  UNL     1      -9.283  12.958  20.823  1.00  0.00     0.242 S 
HETATM    6  O1  UNL     1      -7.853  12.474  20.631  1.00  0.00    -0.205 OA
HETATM    7  O2  UNL     1     -10.252  11.843  20.734  1.00  0.00    -0.205 OA
BRANCH   5   8
HETATM    8  C3  UNL     1      -9.569  14.153  19.528  1.00  0.00     0.222 C 
BRANCH   8   9
HETATM    9  C4  UNL     1      -9.220  15.515  20.002  1.00  0.00     0.055 A 
HETATM   10  N2  UNL     1     -10.188  16.303  20.539  1.00  0.00    -0.194 N 
HETATM   11  C5  UNL     1      -9.944  17.540  20.994  1.00  0.00     0.675 A 
ATOM     12  H2  UNL     1     -11.139  15.940  20.597  1.00  0.00     0.184 HD
HETATM   13  N4  UNL     1      -8.694  18.032  20.923  1.00  0.00    -0.201 N 
HETATM   14  C6  UNL     1      -7.739  17.275  20.403  1.00  0.00     0.121 A 
ATOM     15  H4  UNL     1      -8.485  18.970  21.264  1.00  0.00     0.183 HD
HETATM   16  C7  UNL     1      -7.937  15.979  19.912  1.00  0.00     0.021 A 
BRANCH  11  17
HETATM   17  N3  UNL     1     -10.891  18.279  21.506  1.00  0.00    -0.234 N 
ATOM     18  H32 UNL     1     -10.702  19.262  21.703  1.00  0.00     0.174 HD
ATOM     19  H31 UNL     1     -11.814  17.897  21.712  1.00  0.00     0.174 HD
ENDBRANCH  11  17
BRANCH  16  20
HETATM   20  C8  UNL     1      -6.838  15.217  19.348  1.00  0.00     0.122 C 
HETATM   21  N5  UNL     1      -6.391  15.279  18.168  1.00  0.00    -0.309 N 
ATOM     22  H5  UNL     1      -6.826  15.925  17.508  1.00  0.00     0.186 HD
BRANCH  21  23
HETATM   23  N6  UNL     1      -5.330  14.498  17.744  1.00  0.00    -0.276 N 
HETATM   24  C9  UNL     1      -4.092  14.799  17.854  1.00  0.00     0.215 C 
HETATM   25  N7  UNL     1      -3.710  16.028  18.455  1.00  0.00    -0.065 NA
HETATM   26  N8  UNL     1      -3.135  13.884  17.367  1.00  0.00    -0.065 NA
ATOM     27  H6  UNL     1      -5.555  13.605  17.306  1.00  0.00     0.189 HD
ENDBRANCH  21  23
ENDBRANCH  16  20
ENDBRANCH   8   9
ENDBRANCH   5   8
ENDBRANCH   3   5
TORSDOF 6
ENDMDL
MODEL 5
REMARK VINA RESULT: -7.155125692      2.057      4.137
REMARK  6 active torsions:
REMARK  status: ('A' for Active; 'I' for Inactive)
REMARK    1  A    between atoms: N1_3  and  S1_5 
REMARK    2  A    between atoms: S1_5  and  C3_8 
REMARK    3  A    between atoms: C3_8  and  C4_9 
REMARK    4  A    between atoms: C5_12  and  N3_13 
REMARK    5  A    between atoms: C7_19  and  C8_20 
REMARK    6  A    between atoms: N5_21  and  N6_23 
ROOT
HETATM    1  C1  UNL     1      -7.338  11.392  19.187  1.00  0.00     0.124 C 
HETATM    2  C2  UNL     1      -8.512  11.530  19.497  1.00  0.00    -0.065 C 
HETATM    3  N1  UNL     1      -9.856  11.666  19.855  1.00  0.00    -0.253 N 
ATOM      4  H1  UNL     1     -10.515  10.934  19.591  1.00  0.00     0.188 HD
ENDROOT
BRANCH   3   5
HETATM    5  S1  UNL     1     -10.433  13.034  20.733  1.00  0.00     0.242 S 
HETATM    6  O1  UNL     1     -11.062  14.039  19.779  1.00  0.00    -0.205 OA
HETATM    7  O2  UNL     1     -11.377  12.633  21.800  1.00  0.00    -0.205 OA
BRANCH   5   8
HETATM    8  C3  UNL     1      -9.003  13.848  21.423  1.00  0.00     0.222 C 
BRANCH   8   9
HETATM    9  C4  UNL     1      -9.032  15.296  21.098  1.00  0.00     0.055 A 
HETATM   10  N2  UNL     1     -10.026  16.073  21.603  1.00  0.00    -0.194 N 
HETATM   11  C5  UNL     1     -10.111  17.387  21.358  1.00  0.00     0.675 A 
ATOM     12  H2  UNL     1     -10.736  15.638  22.192  1.00  0.00     0.184 HD
HETATM   13  N4  UNL     1      -9.181  17.974  20.582  1.00  0.00    -0.201 N 
HETATM   14  C6  UNL     1      -8.206  17.229  20.082  1.00  0.00     0.121 A 
ATOM     15  H4  UNL     1      -9.226  18.973  20.382  1.00  0.00     0.183 HD
HETATM   16  C7  UNL     1      -8.069  15.854  20.305  1.00  0.00     0.021 A 
BRANCH  11  17
HETATM   17  N3  UNL     1     -11.076  18.114  21.854  1.00  0.00    -0.234 N 
ATOM     18  H32 UNL     1     -10.975  19.129  21.873  1.00  0.00     0.174 HD
ATOM     19  H31 UNL     1     -11.928  17.691  22.223  1.00  0.00     0.174 HD
ENDBRANCH  11  17
BRANCH  16  20
HETATM   20  C8  UNL     1      -6.974  15.106  19.714  1.00  0.00     0.122 C 
HETATM   21  N5  UNL     1      -6.594  15.133  18.509  1.00  0.00    -0.309 N 
ATOM     22  H5  UNL     1      -7.087  15.734  17.848  1.00  0.00     0.186 HD
BRANCH  21  23
HETATM   23  N6  UNL     1      -5.528  14.372  18.059  1.00  0.00    -0.276 N 
HETATM   24  C9  UNL     1      -4.311  14.757  17.995  1.00  0.00     0.215 C 
HETATM   25  N7  UNL     1      -3.959  16.070  18.408  1.00  0.00    -0.065 NA
HETATM   26  N8  UNL     1      -3.346  13.850  17.511  1.00  0.00    -0.065 NA
ATOM     27  H6  UNL     1      -5.732  13.421  17.752  1.00  0.00     0.189 HD
ENDBRANCH  21  23
ENDBRANCH  16  20
ENDBRANCH   8   9
ENDBRANCH   5   8
ENDBRANCH   3   5
TORSDOF 6
ENDMDL
