MODEL 1
REMARK VINA RESULT: -7.178084319      0.000      0.000
REMARK  9 active torsions:
REMARK  status: ('A' for Active; 'I' for Inactive)
REMARK    1  A    between atoms: N1_2  and  N2_3 
REMARK       I    between atoms: N1_2  and  C9_26 
REMARK    2  A    between atoms: N2_3  and  C2_5 
REMARK    3  A    between atoms: C3_8  and  N4_9 
REMARK    4  A    between atoms: N4_9  and  C4_11 
REMARK    5  A    between atoms: C4_11  and  C5_12 
REMARK    6  A    between atoms: C5_12  and  C6_13 
REMARK    7  A    between atoms: C6_13  and  N5_14 
REMARK    8  A    between atoms: N5_14  and  C7_16 
REMARK    9  A    between atoms: C8_20  and  N7_21 
ROOT
HETATM    1  C2  UNL     1      -7.332  12.727  19.577  1.00  0.00     0.726 A 
HETATM    2  N3  UNL     1      -7.952  13.370  20.582  1.00  0.00    -0.020 N 
ATOM      3  H3  UNL     1      -7.475  14.150  21.035  1.00  0.00     0.203 HD
HETATM    4  C3  UNL     1      -9.194  13.018  21.017  1.00  0.00     0.707 A 
HETATM    5  N6  UNL     1      -9.775  11.977  20.375  1.00  0.00    -0.022 N 
ATOM      6  H6  UNL     1     -10.706  11.687  20.674  1.00  0.00     0.203 HD
HETATM    7  C8  UNL     1      -9.200  11.310  19.375  1.00  0.00     0.705 A 
HETATM    8  N8  UNL     1      -7.974  11.701  18.989  1.00  0.00    -0.020 N 
ATOM      9  H8  UNL     1      -7.515  11.205  18.225  1.00  0.00     0.203 HD
ENDROOT
BRANCH   1  10
HETATM   10  N2  UNL     1      -6.148  13.077  19.177  1.00  0.00    -0.127 N 
ATOM     11  H2  UNL     1      -5.396  12.386  19.192  1.00  0.00     0.206 HD
BRANCH  10  12
HETATM   12  N1  UNL     1      -5.869  14.369  18.726  1.00  0.00    -0.255 N 
HETATM   13  C1  UNL     1      -6.894  15.407  18.807  1.00  0.00     0.181 C 
HETATM   14  C9  UNL     1      -4.620  14.752  18.178  1.00  0.00     0.203 C 
HETATM   15  N9  UNL     1      -4.027  13.942  17.377  1.00  0.00    -0.372 N 
HETATM   16  N10 UNL     1      -3.979  15.983  18.459  1.00  0.00    -0.062 NA
ATOM     17  H92 UNL     1      -4.489  13.055  17.174  1.00  0.00     0.158 HD
ATOM     18  H91 UNL     1      -3.127  14.218  16.982  1.00  0.00     0.158 HD
ENDBRANCH  10  12
ENDBRANCH   1  10
BRANCH   4  19
HETATM   19  N4  UNL     1      -9.781  13.635  21.975  1.00  0.00    -0.225 N 
ATOM     20  H4  UNL     1      -9.311  13.769  22.871  1.00  0.00     0.177 HD
BRANCH  19  21
HETATM   21  C4  UNL     1     -11.105  14.135  21.765  1.00  0.00     0.139 C 
BRANCH  21  22
HETATM   22  C5  UNL     1     -11.166  15.648  21.781  1.00  0.00     0.040 C 
BRANCH  22  23
HETATM   23  C6  UNL     1     -10.729  16.226  20.456  1.00  0.00     0.121 C 
BRANCH  23  24
HETATM   24  N5  UNL     1     -10.174  17.541  20.670  1.00  0.00    -0.390 N 
ATOM     25  H5  UNL     1     -10.811  18.332  20.769  1.00  0.00     0.159 HD
BRANCH  24  26
HETATM   26  C7  UNL     1      -8.920  17.753  20.741  1.00  0.00     0.165 C 
HETATM   27  S1  UNL     1      -7.418  18.375  20.772  1.00  0.00    -0.075 SA
ENDBRANCH  24  26
ENDBRANCH  23  24
ENDBRANCH  22  23
ENDBRANCH  21  22
ENDBRANCH  19  21
ENDBRANCH   4  19
BRANCH   7  28
HETATM   28  N7  UNL     1      -9.801  10.328  18.803  1.00  0.00    -0.234 N 
ATOM     29  H72 UNL     1      -9.551  10.029  17.860  1.00  0.00     0.174 HD
ATOM     30  H71 UNL     1     -10.546   9.818  19.279  1.00  0.00     0.174 HD
ENDBRANCH   7  28
TORSDOF 9
ENDMDL
MODEL 2
REMARK VINA RESULT: -6.960883289      1.770      4.673
REMARK  9 active torsions:
REMARK  status: ('A' for Active; 'I' for Inactive)
REMARK    1  A    between atoms: N1_2  and  N2_3 
REMARK       I    between atoms: N1_2  and  C9_26 
REMARK    2  A    between atoms: N2_3  and  C2_5 
REMARK    3  A    between atoms: C3_8  and  N4_9 
REMARK    4  A    between atoms: N4_9  and  C4_11 
REMARK    5  A    between atoms: C4_11  and  C5_12 
REMARK    6  A    between atoms: C5_12  and  C6_13 
REMARK    7  A    between atoms: C6_13  and  N5_14 
REMARK    8  A    between atoms: N5_14  and  C7_16 
REMARK    9  A    between atoms: C8_20  and  N7_21 
ROOT
HETATM    1  C2  UNL     1      -7.014  13.668  19.495  1.00  0.00     0.726 A 
HETATM    2  N3  UNL     1      -7.393  14.945  19.681  1.00  0.00    -0.020 N 
ATOM      3  H3  UNL     1      -8.223  15.134  20.244  1.00  0.00     0.203 HD
HETATM    4  C3  UNL     1      -6.710  15.994  19.144  1.00  0.00     0.707 A 
HETATM    5  N6  UNL     1      -5.619  15.678  18.409  1.00  0.00    -0.022 N 
ATOM      6  H6  UNL     1      -5.082  16.440  17.993  1.00  0.00     0.203 HD
HETATM    7  C8  UNL     1      -5.204  14.430  18.198  1.00  0.00     0.705 A 
HETATM    8  N8  UNL     1      -5.917  13.434  18.751  1.00  0.00    -0.020 N 
ATOM      9  H8  UNL     1      -5.618  12.471  18.603  1.00  0.00     0.203 HD
ENDROOT
BRANCH   1  10
HETATM   10  N2  UNL     1      -7.678  12.681  20.014  1.00  0.00    -0.127 N 
ATOM     11  H2  UNL     1      -7.214  11.780  20.132  1.00  0.00     0.206 HD
BRANCH  10  12
HETATM   12  N1  UNL     1      -9.009  12.813  20.416  1.00  0.00    -0.255 N 
HETATM   13  C1  UNL     1      -9.320  13.284  21.765  1.00  0.00     0.181 C 
HETATM   14  C9  UNL     1     -10.112  12.509  19.581  1.00  0.00     0.203 C 
HETATM   15  N9  UNL     1     -10.049  11.463  18.838  1.00  0.00    -0.372 N 
HETATM   16  N10 UNL     1     -11.289  13.292  19.511  1.00  0.00    -0.062 NA
ATOM     17  H92 UNL     1      -9.200  10.898  18.888  1.00  0.00     0.158 HD
ATOM     18  H91 UNL     1     -10.843  11.245  18.236  1.00  0.00     0.158 HD
ENDBRANCH  10  12
ENDBRANCH   1  10
BRANCH   4  19
HETATM   19  N4  UNL     1      -7.076  17.209  19.325  1.00  0.00    -0.225 N 
ATOM     20  H4  UNL     1      -7.129  17.859  18.540  1.00  0.00     0.177 HD
BRANCH  19  21
HETATM   21  C4  UNL     1      -7.410  17.639  20.649  1.00  0.00     0.139 C 
BRANCH  21  22
HETATM   22  C5  UNL     1      -8.221  18.918  20.659  1.00  0.00     0.040 C 
BRANCH  22  23
HETATM   23  C6  UNL     1      -9.659  18.650  21.035  1.00  0.00     0.121 C 
BRANCH  23  24
HETATM   24  N5  UNL     1     -10.049  17.353  20.538  1.00  0.00    -0.390 N 
ATOM     25  H5  UNL     1      -9.702  17.054  19.626  1.00  0.00     0.159 HD
BRANCH  24  26
HETATM   26  C7  UNL     1     -10.808  16.567  21.191  1.00  0.00     0.165 C 
HETATM   27  S1  UNL     1     -11.694  15.785  22.309  1.00  0.00    -0.075 SA
ENDBRANCH  24  26
ENDBRANCH  23  24
ENDBRANCH  22  23
ENDBRANCH  21  22
ENDBRANCH  19  21
ENDBRANCH   4  19
BRANCH   7  28
HETATM   28  N7  UNL     1      -4.158  14.191  17.489  1.00  0.00    -0.234 N 
ATOM     29  H72 UNL     1      -4.117  14.443  16.502  1.00  0.00     0.174 HD
ATOM     30  H71 UNL     1      -3.338  13.741  17.898  1.00  0.00     0.174 HD
ENDBRANCH   7  28
TORSDOF 9
ENDMDL
MODEL 3
REMARK VINA RESULT: -6.842960133      1.741      4.795
REMARK  9 active torsions:
REMARK  status: ('A' for Active; 'I' for Inactive)
REMARK    1  A    between atoms: N1_2  and  N2_3 
REMARK       I    between atoms: N1_2  and  C9_26 
REMARK    2  A    between atoms: N2_3  and  C2_5 
REMARK    3  A    between atoms: C3_8  and  N4_9 
REMARK    4  A    between atoms: N4_9  and  C4_11 
REMARK    5  A    between atoms: C4_11  and  C5_12 
REMARK    6  A    between atoms: C5_12  and  C6_13 
REMARK    7  A    between atoms: C6_13  and  N5_14 
REMARK    8  A    between atoms: N5_14  and  C7_16 
REMARK    9  A    between atoms: C8_20  and  N7_21 
ROOT
HETATM    1  C2  UNL     1      -7.301  15.657  18.904  1.00  0.00     0.726 A 
HETATM    2  N3  UNL     1      -7.711  14.488  19.426  1.00  0.00    -0.020 N 
ATOM      3  H3  UNL     1      -8.615  14.449  19.897  1.00  0.00     0.203 HD
HETATM    4  C3  UNL     1      -6.962  13.352  19.349  1.00  0.00     0.707 A 
HETATM    5  N6  UNL     1      -5.774  13.466  18.712  1.00  0.00    -0.022 N 
ATOM      6  H6  UNL     1      -5.188  12.635  18.635  1.00  0.00     0.203 HD
HETATM    7  C8  UNL     1      -5.326  14.602  18.179  1.00  0.00     0.705 A 
HETATM    8  N8  UNL     1      -6.107  15.691  18.285  1.00  0.00    -0.020 N 
ATOM      9  H8  UNL     1      -5.784  16.571  17.884  1.00  0.00     0.203 HD
ENDROOT
BRANCH   1  10
HETATM   10  N2  UNL     1      -8.029  16.729  18.987  1.00  0.00    -0.127 N 
ATOM     11  H2  UNL     1      -8.365  17.166  18.129  1.00  0.00     0.206 HD
BRANCH  10  12
HETATM   12  N1  UNL     1      -8.366  17.303  20.215  1.00  0.00    -0.255 N 
HETATM   13  C1  UNL     1      -7.315  17.812  21.095  1.00  0.00     0.181 C 
HETATM   14  C9  UNL     1      -9.698  17.428  20.679  1.00  0.00     0.203 C 
HETATM   15  N9  UNL     1     -10.508  16.448  20.491  1.00  0.00    -0.372 N 
HETATM   16  N10 UNL     1     -10.198  18.573  21.344  1.00  0.00    -0.062 NA
ATOM     17  H92 UNL     1     -10.147  15.622  20.012  1.00  0.00     0.158 HD
ATOM     18  H91 UNL     1     -11.467  16.539  20.825  1.00  0.00     0.158 HD
ENDBRANCH  10  12
ENDBRANCH   1  10
BRANCH   4  19
HETATM   19  N4  UNL     1      -7.359  12.240  19.849  1.00  0.00    -0.225 N 
ATOM     20  H4  UNL     1      -6.871  11.823  20.642  1.00  0.00     0.177 HD
BRANCH  19  21
HETATM   21  C4  UNL     1      -8.498  11.593  19.274  1.00  0.00     0.139 C 
BRANCH  21  22
HETATM   22  C5  UNL     1      -9.656  11.482  20.243  1.00  0.00     0.040 C 
BRANCH  22  23
HETATM   23  C6  UNL     1     -10.401  12.791  20.357  1.00  0.00     0.121 C 
BRANCH  23  24
HETATM   24  N5  UNL     1     -10.485  13.173  21.747  1.00  0.00    -0.390 N 
ATOM     25  H5  UNL     1     -11.306  12.893  22.283  1.00  0.00     0.159 HD
BRANCH  24  26
HETATM   26  C7  UNL     1      -9.573  13.844  22.329  1.00  0.00     0.165 C 
HETATM   27  S1  UNL     1      -8.184  14.499  22.864  1.00  0.00    -0.075 SA
ENDBRANCH  24  26
ENDBRANCH  23  24
ENDBRANCH  22  23
ENDBRANCH  21  22
ENDBRANCH  19  21
ENDBRANCH   4  19
BRANCH   7  28
HETATM   28  N7  UNL     1      -4.187  14.651  17.584  1.00  0.00    -0.234 N 
ATOM     29  H72 UNL     1      -3.324  14.405  18.070  1.00  0.00     0.174 HD
ATOM     30  H71 UNL     1      -4.116  14.937  16.608  1.00  0.00     0.174 HD
ENDBRANCH   7  28
TORSDOF 9
ENDMDL
MODEL 4
REMARK VINA RESULT: -6.809373301      1.823      4.880
REMARK  9 active torsions:
REMARK  status: ('A' for Active; 'I' for Inactive)
REMARK    1  A    between atoms: N1_2  and  N2_3 
REMARK       I    between atoms: N1_2  and  C9_26 
REMARK    2  A    between atoms: N2_3  and  C2_5 
REMARK    3  A    between atoms: C3_8  and  N4_9 
REMARK    4  A    between atoms: N4_9  and  C4_11 
REMARK    5  A    between atoms: C4_11  and  C5_12 
REMARK    6  A    between atoms: C5_12  and  C6_13 
REMARK    7  A    between atoms: C6_13  and  N5_14 
REMARK    8  A    between atoms: N5_14  and  C7_16 
REMARK    9  A    between atoms: C8_20  and  N7_21 
ROOT
HETATM    1  C2  UNL     1      -6.852  15.305  19.926  1.00  0.00     0.726 A 
HETATM    2  N3  UNL     1      -7.329  14.051  19.837  1.00  0.00    -0.020 N 
ATOM      3  H3  UNL     1      -8.128  13.787  20.412  1.00  0.00     0.203 HD
HETATM    4  C3  UNL     1      -6.782  13.120  19.005  1.00  0.00     0.707 A 
HETATM    5  N6  UNL     1      -5.725  13.532  18.267  1.00  0.00    -0.022 N 
ATOM      6  H6  UNL     1      -5.291  12.861  17.633  1.00  0.00     0.203 HD
HETATM    7  C8  UNL     1      -5.218  14.763  18.321  1.00  0.00     0.705 A 
HETATM    8  N8  UNL     1      -5.798  15.639  19.159  1.00  0.00    -0.020 N 
ATOM      9  H8  UNL     1      -5.427  16.587  19.217  1.00  0.00     0.203 HD
ENDROOT
BRANCH   1  10
HETATM   10  N2  UNL     1      -7.387  16.178  20.724  1.00  0.00    -0.127 N 
ATOM     11  H2  UNL     1      -6.952  16.349  21.632  1.00  0.00     0.206 HD
BRANCH  10  12
HETATM   12  N1  UNL     1      -8.537  16.891  20.381  1.00  0.00    -0.255 N 
HETATM   13  C1  UNL     1      -9.557  16.269  19.538  1.00  0.00     0.181 C 
HETATM   14  C9  UNL     1      -8.790  18.218  20.807  1.00  0.00     0.203 C 
HETATM   15  N9  UNL     1      -7.817  19.058  20.808  1.00  0.00    -0.372 N 
HETATM   16  N10 UNL     1     -10.057  18.683  21.235  1.00  0.00    -0.062 NA
ATOM     17  H92 UNL     1      -6.904  18.723  20.499  1.00  0.00     0.158 HD
ATOM     18  H91 UNL     1      -7.999  20.014  21.115  1.00  0.00     0.158 HD
ENDBRANCH  10  12
ENDBRANCH   1  10
BRANCH   4  19
HETATM   19  N4  UNL     1      -7.241  11.926  18.924  1.00  0.00    -0.225 N 
ATOM     20  H4  UNL     1      -6.899  11.285  18.207  1.00  0.00     0.177 HD
BRANCH  19  21
HETATM   21  C4  UNL     1      -8.242  11.507  19.857  1.00  0.00     0.139 C 
BRANCH  21  22
HETATM   22  C5  UNL     1      -9.621  11.433  19.237  1.00  0.00     0.040 C 
BRANCH  22  23
HETATM   23  C6  UNL     1     -10.487  12.585  19.690  1.00  0.00     0.121 C 
BRANCH  23  24
HETATM   24  N5  UNL     1     -10.454  12.669  21.130  1.00  0.00    -0.390 N 
ATOM     25  H5  UNL     1     -10.077  11.881  21.658  1.00  0.00     0.159 HD
BRANCH  24  26
HETATM   26  C7  UNL     1     -10.875  13.687  21.768  1.00  0.00     0.165 C 
HETATM   27  S1  UNL     1     -11.342  15.163  22.266  1.00  0.00    -0.075 SA
ENDBRANCH  24  26
ENDBRANCH  23  24
ENDBRANCH  22  23
ENDBRANCH  21  22
ENDBRANCH  19  21
ENDBRANCH   4  19
BRANCH   7  28
HETATM   28  N7  UNL     1      -4.211  15.097  17.595  1.00  0.00    -0.234 N 
ATOM     29  H72 UNL     1      -4.323  15.335  16.609  1.00  0.00     0.174 HD
ATOM     30  H71 UNL     1      -3.270  15.134  17.987  1.00  0.00     0.174 HD
ENDBRANCH   7  28
TORSDOF 9
ENDMDL
MODEL 5
REMARK VINA RESULT: -6.656438164      2.298      4.389
REMARK  9 active torsions:
REMARK  status: ('A' for Active; 'I' for Inactive)
REMARK    1  A    between atoms: N1_2  and  N2_3 
REMARK       I    between atoms: N1_2  and  C9_26 
REMARK    2  A    between atoms: N2_3  and  C2_5 
REMARK    3  A    between atoms: C3_8  and  N4_9 
REMARK    4  A    between atoms: N4_9  and  C4_11 
REMARK    5  A    between atoms: C4_11  and  C5_12 
REMARK    6  A    between atoms: C5_12  and  C6_13 
REMARK    7  A    between atoms: C6_13  and  N5_14 
REMARK    8  A    between atoms: N5_14  and  C7_16 
REMARK    9  A    between atoms: C8_20  and  N7_21 
ROOT
HETATM    1  C2  UNL     1      -7.519  16.209  18.836  1.00  0.00     0.726 A 
HETATM    2  N3  UNL     1      -8.757  15.770  19.128  1.00  0.00    -0.020 N 
ATOM      3  H3  UNL     1      -9.117  14.951  18.637  1.00  0.00     0.203 HD
HETATM    4  C3  UNL     1      -9.547  16.380  20.055  1.00  0.00     0.707 A 
HETATM    5  N6  UNL     1      -9.013  17.459  20.672  1.00  0.00    -0.022 N 
ATOM      6  H6  UNL     1      -9.576  17.940  21.373  1.00  0.00     0.203 HD
HETATM    7  C8  UNL     1      -7.793  17.931  20.417  1.00  0.00     0.705 A 
HETATM    8  N8  UNL     1      -7.058  17.289  19.492  1.00  0.00    -0.020 N 
ATOM      9  H8  UNL     1      -6.121  17.632  19.280  1.00  0.00     0.203 HD
ENDROOT
BRANCH   1  10
HETATM   10  N2  UNL     1      -6.782  15.614  17.948  1.00  0.00    -0.127 N 
ATOM     11  H2  UNL     1      -6.916  15.840  16.962  1.00  0.00     0.206 HD
BRANCH  10  12
HETATM   12  N1  UNL     1      -5.810  14.675  18.300  1.00  0.00    -0.255 N 
HETATM   13  C1  UNL     1      -6.208  13.405  18.904  1.00  0.00     0.181 C 
HETATM   14  C9  UNL     1      -4.421  14.877  18.106  1.00  0.00     0.203 C 
HETATM   15  N9  UNL     1      -3.929  16.037  18.360  1.00  0.00    -0.372 N 
HETATM   16  N10 UNL     1      -3.534  13.875  17.646  1.00  0.00    -0.062 NA
ATOM     17  H92 UNL     1      -4.568  16.759  18.692  1.00  0.00     0.158 HD
ATOM     18  H91 UNL     1      -2.929  16.182  18.220  1.00  0.00     0.158 HD
ENDBRANCH  10  12
ENDBRANCH   1  10
BRANCH   4  19
HETATM   19  N4  UNL     1     -10.725  15.957  20.330  1.00  0.00    -0.225 N 
ATOM     20  H4  UNL     1     -11.313  15.548  19.603  1.00  0.00     0.177 HD
BRANCH  19  21
HETATM   21  C4  UNL     1     -11.202  16.068  21.675  1.00  0.00     0.139 C 
BRANCH  21  22
HETATM   22  C5  UNL     1     -11.002  14.795  22.470  1.00  0.00     0.040 C 
BRANCH  22  23
HETATM   23  C6  UNL     1     -11.054  13.578  21.577  1.00  0.00     0.121 C 
BRANCH  23  24
HETATM   24  N5  UNL     1      -9.740  12.987  21.500  1.00  0.00    -0.390 N 
ATOM     25  H5  UNL     1      -9.076  13.169  22.252  1.00  0.00     0.159 HD
BRANCH  24  26
HETATM   26  C7  UNL     1      -9.377  12.246  20.530  1.00  0.00     0.165 C 
HETATM   27  S1  UNL     1      -8.941  11.030  19.542  1.00  0.00    -0.075 SA
ENDBRANCH  24  26
ENDBRANCH  23  24
ENDBRANCH  22  23
ENDBRANCH  21  22
ENDBRANCH  19  21
ENDBRANCH   4  19
BRANCH   7  28
HETATM   28  N7  UNL     1      -7.338  18.962  21.035  1.00  0.00    -0.234 N 
ATOM     29  H72 UNL     1      -6.502  18.906  21.618  1.00  0.00     0.174 HD
ATOM     30  H71 UNL     1      -7.803  19.867  20.960  1.00  0.00     0.174 HD
ENDBRANCH   7  28
TORSDOF 9
ENDMDL
