MODEL 1
REMARK VINA RESULT: -7.919425908      0.000      0.000
REMARK  6 active torsions:
REMARK  status: ('A' for Active; 'I' for Inactive)
REMARK    1  A    between atoms: N2_5  and  C4_6 
REMARK    2  A    between atoms: C4_6  and  C5_7 
REMARK    3  A    between atoms: C6_10  and  N4_11 
REMARK    4  A    between atoms: N4_11  and  C7_13 
REMARK    5  A    between atoms: C7_13  and  C8_14 
REMARK    6  A    between atoms: C8_14  and  O1_15 
ROOT
HETATM    1  C5  UNL     1      -9.496  14.015  20.329  1.00  0.00     0.112 C 
HETATM    2  N3  UNL     1      -8.280  14.088  19.704  1.00  0.00    -0.188 N 
ATOM      3  H3  UNL     1      -7.925  15.026  19.519  1.00  0.00     0.184 HD
HETATM    4  C6  UNL     1      -7.485  13.052  19.298  1.00  0.00     0.682 C 
HETATM    5  N5  UNL     1      -7.907  11.784  19.090  1.00  0.00    -0.141 N 
ATOM      6  H5  UNL     1      -7.281  11.212  18.524  1.00  0.00     0.189 HD
HETATM    7  C9  UNL     1      -9.025  11.154  19.512  1.00  0.00     0.341 C 
HETATM    8  O2  UNL     1      -9.318  10.027  19.037  1.00  0.00    -0.246 OA
HETATM    9  N6  UNL     1      -9.915  11.621  20.437  1.00  0.00    -0.273 N 
ATOM     10  H6  UNL     1     -10.554  10.932  20.833  1.00  0.00     0.173 HD
HETATM   11  C10 UNL     1     -10.049  12.885  20.889  1.00  0.00     0.274 C 
HETATM   12  O3  UNL     1     -10.750  13.020  21.925  1.00  0.00    -0.266 OA
ENDROOT
BRANCH   1  13
HETATM   13  C4  UNL     1     -10.315  15.230  20.424  1.00  0.00     0.191 C 
BRANCH  13  14
HETATM   14  N2  UNL     1      -9.500  16.452  20.519  1.00  0.00    -0.361 N 
HETATM   15  C3  UNL     1      -9.997  17.636  20.860  1.00  0.00     0.092 A 
HETATM   16  C2  UNL     1      -9.216  18.756  20.934  1.00  0.00     0.043 A 
HETATM   17  C1  UNL     1      -7.873  18.685  20.655  1.00  0.00     0.049 A 
HETATM   18  N1  UNL     1      -7.058  19.868  20.732  1.00  0.00    -0.102 NA
HETATM   19  C12 UNL     1      -7.337  17.464  20.300  1.00  0.00     0.043 A 
HETATM   20  C11 UNL     1      -8.178  16.378  20.243  1.00  0.00     0.092 A 
ENDBRANCH  13  14
ENDBRANCH   1  13
BRANCH   4  21
HETATM   21  N4  UNL     1      -6.252  13.266  19.088  1.00  0.00    -0.224 N 
ATOM     22  H4  UNL     1      -5.596  12.736  19.662  1.00  0.00     0.177 HD
BRANCH  21  23
HETATM   23  C7  UNL     1      -5.683  14.162  18.141  1.00  0.00     0.164 C 
BRANCH  23  24
HETATM   24  C8  UNL     1      -4.909  15.288  18.762  1.00  0.00     0.184 C 
BRANCH  24  25
HETATM   25  O1  UNL     1      -3.804  15.676  18.012  1.00  0.00    -0.399 OA
ATOM     26  H1  UNL     1      -3.305  16.377  18.413  1.00  0.00     0.209 HD
ENDBRANCH  24  25
ENDBRANCH  23  24
ENDBRANCH  21  23
ENDBRANCH   4  21
TORSDOF 6
ENDMDL
MODEL 2
REMARK VINA RESULT: -7.222674731      2.166      4.632
REMARK  6 active torsions:
REMARK  status: ('A' for Active; 'I' for Inactive)
REMARK    1  A    between atoms: N2_5  and  C4_6 
REMARK    2  A    between atoms: C4_6  and  C5_7 
REMARK    3  A    between atoms: C6_10  and  N4_11 
REMARK    4  A    between atoms: N4_11  and  C7_13 
REMARK    5  A    between atoms: C7_13  and  C8_14 
REMARK    6  A    between atoms: C8_14  and  O1_15 
ROOT
HETATM    1  C5  UNL     1      -9.282  14.117  20.774  1.00  0.00     0.112 C 
HETATM    2  N3  UNL     1      -9.156  15.466  20.571  1.00  0.00    -0.188 N 
ATOM      3  H3  UNL     1      -8.300  15.773  20.109  1.00  0.00     0.184 HD
HETATM    4  C6  UNL     1     -10.042  16.449  20.913  1.00  0.00     0.682 C 
HETATM    5  N5  UNL     1     -11.017  16.328  21.843  1.00  0.00    -0.141 N 
ATOM      6  H5  UNL     1     -11.394  17.211  22.187  1.00  0.00     0.189 HD
HETATM    7  C9  UNL     1     -11.571  15.224  22.389  1.00  0.00     0.341 C 
HETATM    8  O2  UNL     1     -12.329  15.340  23.387  1.00  0.00    -0.246 OA
HETATM    9  N6  UNL     1     -11.396  13.938  21.967  1.00  0.00    -0.273 N 
ATOM     10  H6  UNL     1     -12.071  13.255  22.311  1.00  0.00     0.173 HD
HETATM   11  C10 UNL     1     -10.434  13.462  21.147  1.00  0.00     0.274 C 
HETATM   12  O3  UNL     1     -10.633  12.307  20.691  1.00  0.00    -0.266 OA
ENDROOT
BRANCH   1  13
HETATM   13  C4  UNL     1      -8.103  13.262  20.594  1.00  0.00     0.191 C 
BRANCH  13  14
HETATM   14  N2  UNL     1      -6.984  13.976  19.956  1.00  0.00    -0.361 N 
HETATM   15  C3  UNL     1      -6.473  15.105  20.432  1.00  0.00     0.092 A 
HETATM   16  C2  UNL     1      -5.436  15.750  19.814  1.00  0.00     0.043 A 
HETATM   17  C1  UNL     1      -4.886  15.236  18.666  1.00  0.00     0.049 A 
HETATM   18  N1  UNL     1      -3.798  15.920  18.019  1.00  0.00    -0.102 NA
HETATM   19  C12 UNL     1      -5.402  14.063  18.155  1.00  0.00     0.043 A 
HETATM   20  C11 UNL     1      -6.445  13.466  18.825  1.00  0.00     0.092 A 
ENDBRANCH  13  14
ENDBRANCH   1  13
BRANCH   4  21
HETATM   21  N4  UNL     1      -9.967  17.576  20.335  1.00  0.00    -0.224 N 
ATOM     22  H4  UNL     1     -10.479  17.670  19.458  1.00  0.00     0.177 HD
BRANCH  21  23
HETATM   23  C7  UNL     1      -9.249  18.722  20.774  1.00  0.00     0.164 C 
BRANCH  23  24
HETATM   24  C8  UNL     1      -7.759  18.582  20.663  1.00  0.00     0.184 C 
BRANCH  24  25
HETATM   25  O1  UNL     1      -7.096  19.801  20.573  1.00  0.00    -0.399 OA
ATOM     26  H1  UNL     1      -6.308  19.763  20.043  1.00  0.00     0.209 HD
ENDBRANCH  24  25
ENDBRANCH  23  24
ENDBRANCH  21  23
ENDBRANCH   4  21
TORSDOF 6
ENDMDL
MODEL 3
REMARK VINA RESULT: -7.220924377      2.125      4.688
REMARK  6 active torsions:
REMARK  status: ('A' for Active; 'I' for Inactive)
REMARK    1  A    between atoms: N2_5  and  C4_6 
REMARK    2  A    between atoms: C4_6  and  C5_7 
REMARK    3  A    between atoms: C6_10  and  N4_11 
REMARK    4  A    between atoms: N4_11  and  C7_13 
REMARK    5  A    between atoms: C7_13  and  C8_14 
REMARK    6  A    between atoms: C8_14  and  O1_15 
ROOT
HETATM    1  C5  UNL     1      -9.231  14.129  20.676  1.00  0.00     0.112 C 
HETATM    2  N3  UNL     1      -9.050  15.475  20.496  1.00  0.00    -0.188 N 
ATOM      3  H3  UNL     1      -8.186  15.754  20.032  1.00  0.00     0.184 HD
HETATM    4  C6  UNL     1      -9.891  16.488  20.865  1.00  0.00     0.682 C 
HETATM    5  N5  UNL     1     -10.862  16.391  21.803  1.00  0.00    -0.141 N 
ATOM      6  H5  UNL     1     -11.197  17.282  22.166  1.00  0.00     0.189 HD
HETATM    7  C9  UNL     1     -11.457  15.301  22.334  1.00  0.00     0.341 C 
HETATM    8  O2  UNL     1     -12.200  15.430  23.340  1.00  0.00    -0.246 OA
HETATM    9  N6  UNL     1     -11.340  14.017  21.886  1.00  0.00    -0.273 N 
ATOM     10  H6  UNL     1     -12.040  13.357  22.224  1.00  0.00     0.173 HD
HETATM   11  C10 UNL     1     -10.407  13.516  21.049  1.00  0.00     0.274 C 
HETATM   12  O3  UNL     1     -10.658  12.379  20.574  1.00  0.00    -0.266 OA
ENDROOT
BRANCH   1  13
HETATM   13  C4  UNL     1      -8.091  13.229  20.469  1.00  0.00     0.191 C 
BRANCH  13  14
HETATM   14  N2  UNL     1      -6.960  13.898  19.804  1.00  0.00    -0.361 N 
HETATM   15  C3  UNL     1      -6.373  13.425  18.710  1.00  0.00     0.092 A 
HETATM   16  C2  UNL     1      -5.319  14.065  18.117  1.00  0.00     0.043 A 
HETATM   17  C1  UNL     1      -4.834  15.236  18.646  1.00  0.00     0.049 A 
HETATM   18  N1  UNL     1      -3.724  15.903  18.019  1.00  0.00    -0.102 NA
HETATM   19  C12 UNL     1      -5.430  15.745  19.781  1.00  0.00     0.043 A 
HETATM   20  C11 UNL     1      -6.485  15.051  20.327  1.00  0.00     0.092 A 
ENDBRANCH  13  14
ENDBRANCH   1  13
BRANCH   4  21
HETATM   21  N4  UNL     1      -9.774  17.621  20.307  1.00  0.00    -0.224 N 
ATOM     22  H4  UNL     1     -10.251  17.737  19.413  1.00  0.00     0.177 HD
BRANCH  21  23
HETATM   23  C7  UNL     1      -9.051  18.748  20.789  1.00  0.00     0.164 C 
BRANCH  23  24
HETATM   24  C8  UNL     1      -7.562  18.612  20.662  1.00  0.00     0.184 C 
BRANCH  24  25
HETATM   25  O1  UNL     1      -6.909  19.831  20.522  1.00  0.00    -0.399 OA
ATOM     26  H1  UNL     1      -6.224  19.967  21.167  1.00  0.00     0.209 HD
ENDBRANCH  24  25
ENDBRANCH  23  24
ENDBRANCH  21  23
ENDBRANCH   4  21
TORSDOF 6
ENDMDL
MODEL 4
REMARK VINA RESULT: -7.135352683      1.904      4.592
REMARK  6 active torsions:
REMARK  status: ('A' for Active; 'I' for Inactive)
REMARK    1  A    between atoms: N2_5  and  C4_6 
REMARK    2  A    between atoms: C4_6  and  C5_7 
REMARK    3  A    between atoms: C6_10  and  N4_11 
REMARK    4  A    between atoms: N4_11  and  C7_13 
REMARK    5  A    between atoms: C7_13  and  C8_14 
REMARK    6  A    between atoms: C8_14  and  O1_15 
ROOT
HETATM    1  C5  UNL     1      -6.873  15.367  19.920  1.00  0.00     0.112 C 
HETATM    2  N3  UNL     1      -7.126  14.020  19.923  1.00  0.00    -0.188 N 
ATOM      3  H3  UNL     1      -7.723  13.677  20.675  1.00  0.00     0.184 HD
HETATM    4  C6  UNL     1      -6.673  13.082  19.038  1.00  0.00     0.682 C 
HETATM    5  N5  UNL     1      -5.599  13.232  18.229  1.00  0.00    -0.141 N 
ATOM      6  H5  UNL     1      -5.222  12.362  17.852  1.00  0.00     0.189 HD
HETATM    7  C9  UNL     1      -4.947  14.349  17.840  1.00  0.00     0.341 C 
HETATM    8  O2  UNL     1      -3.846  14.246  17.240  1.00  0.00    -0.246 OA
HETATM    9  N6  UNL     1      -5.361  15.635  18.033  1.00  0.00    -0.273 N 
ATOM     10  H6  UNL     1      -4.899  16.346  17.465  1.00  0.00     0.173 HD
HETATM   11  C10 UNL     1      -6.309  16.079  18.885  1.00  0.00     0.274 C 
HETATM   12  O3  UNL     1      -6.701  17.258  18.695  1.00  0.00    -0.266 OA
ENDROOT
BRANCH   1  13
HETATM   13  C4  UNL     1      -7.216  16.152  21.111  1.00  0.00     0.191 C 
BRANCH  13  14
HETATM   14  N2  UNL     1      -8.662  16.155  21.387  1.00  0.00    -0.361 N 
HETATM   15  C3  UNL     1      -9.456  17.183  21.109  1.00  0.00     0.092 A 
HETATM   16  C2  UNL     1     -10.797  17.159  21.383  1.00  0.00     0.043 A 
HETATM   17  C1  UNL     1     -11.366  16.051  21.960  1.00  0.00     0.049 A 
HETATM   18  N1  UNL     1     -12.776  16.033  22.248  1.00  0.00    -0.102 NA
HETATM   19  C12 UNL     1     -10.559  14.972  22.256  1.00  0.00     0.043 A 
HETATM   20  C11 UNL     1      -9.220  15.062  21.956  1.00  0.00     0.092 A 
ENDBRANCH  13  14
ENDBRANCH   1  13
BRANCH   4  21
HETATM   21  N4  UNL     1      -7.282  11.973  18.947  1.00  0.00    -0.224 N 
ATOM     22  H4  UNL     1      -7.020  11.374  18.164  1.00  0.00     0.177 HD
BRANCH  21  23
HETATM   23  C7  UNL     1      -8.291  11.472  19.817  1.00  0.00     0.164 C 
BRANCH  23  24
HETATM   24  C8  UNL     1      -9.629  12.125  19.632  1.00  0.00     0.184 C 
BRANCH  24  25
HETATM   25  O1  UNL     1     -10.355  11.600  18.569  1.00  0.00    -0.399 OA
ATOM     26  H1  UNL     1     -10.227  12.073  17.756  1.00  0.00     0.209 HD
ENDBRANCH  24  25
ENDBRANCH  23  24
ENDBRANCH  21  23
ENDBRANCH   4  21
TORSDOF 6
ENDMDL
MODEL 5
REMARK VINA RESULT: -7.118375990      2.364      5.491
REMARK  6 active torsions:
REMARK  status: ('A' for Active; 'I' for Inactive)
REMARK    1  A    between atoms: N2_5  and  C4_6 
REMARK    2  A    between atoms: C4_6  and  C5_7 
REMARK    3  A    between atoms: C6_10  and  N4_11 
REMARK    4  A    between atoms: N4_11  and  C7_13 
REMARK    5  A    between atoms: C7_13  and  C8_14 
REMARK    6  A    between atoms: C8_14  and  O1_15 
ROOT
HETATM    1  C5  UNL     1      -8.979  15.879  20.791  1.00  0.00     0.112 C 
HETATM    2  N3  UNL     1      -7.774  15.678  20.171  1.00  0.00    -0.188 N 
ATOM      3  H3  UNL     1      -7.464  14.710  20.094  1.00  0.00     0.184 HD
HETATM    4  C6  UNL     1      -6.938  16.623  19.643  1.00  0.00     0.682 C 
HETATM    5  N5  UNL     1      -6.949  17.937  19.964  1.00  0.00    -0.141 N 
ATOM      6  H5  UNL     1      -6.099  18.445  19.718  1.00  0.00     0.189 HD
HETATM    7  C9  UNL     1      -7.904  18.684  20.558  1.00  0.00     0.341 C 
HETATM    8  O2  UNL     1      -7.629  19.849  20.943  1.00  0.00    -0.246 OA
HETATM    9  N6  UNL     1      -9.193  18.303  20.801  1.00  0.00    -0.273 N 
ATOM     10  H6  UNL     1      -9.850  19.053  21.015  1.00  0.00     0.173 HD
HETATM   11  C10 UNL     1      -9.700  17.053  20.792  1.00  0.00     0.274 C 
HETATM   12  O3  UNL     1     -10.956  16.976  20.780  1.00  0.00    -0.266 OA
ENDROOT
BRANCH   1  13
HETATM   13  C4  UNL     1      -9.584  14.769  21.536  1.00  0.00     0.191 C 
BRANCH  13  14
HETATM   14  N2  UNL     1      -9.554  13.504  20.783  1.00  0.00    -0.361 N 
HETATM   15  C3  UNL     1      -8.556  12.631  20.863  1.00  0.00     0.092 A 
HETATM   16  C2  UNL     1      -8.552  11.466  20.146  1.00  0.00     0.043 A 
HETATM   17  C1  UNL     1      -9.600  11.162  19.311  1.00  0.00     0.049 A 
HETATM   18  N1  UNL     1      -9.588   9.937  18.558  1.00  0.00    -0.102 NA
HETATM   19  C12 UNL     1     -10.647  12.056  19.215  1.00  0.00     0.043 A 
HETATM   20  C11 UNL     1     -10.587  13.209  19.962  1.00  0.00     0.092 A 
ENDBRANCH  13  14
ENDBRANCH   1  13
BRANCH   4  21
HETATM   21  N4  UNL     1      -6.070  16.270  18.788  1.00  0.00    -0.224 N 
ATOM     22  H4  UNL     1      -5.528  17.018  18.356  1.00  0.00     0.177 HD
BRANCH  21  23
HETATM   23  C7  UNL     1      -5.769  14.945  18.364  1.00  0.00     0.164 C 
BRANCH  23  24
HETATM   24  C8  UNL     1      -4.324  14.733  18.022  1.00  0.00     0.184 C 
BRANCH  24  25
HETATM   25  O1  UNL     1      -3.563  15.893  18.101  1.00  0.00    -0.399 OA
ATOM     26  H1  UNL     1      -4.056  16.647  18.400  1.00  0.00     0.209 HD
ENDBRANCH  24  25
ENDBRANCH  23  24
ENDBRANCH  21  23
ENDBRANCH   4  21
TORSDOF 6
ENDMDL
