MODEL 1
REMARK VINA RESULT: -6.362677995      0.000      0.000
REMARK  6 active torsions:
REMARK  status: ('A' for Active; 'I' for Inactive)
REMARK    1  A    between atoms: N1_5  and  C5_6 
REMARK    2  A    between atoms: C5_6  and  C6_7 
REMARK    3  A    between atoms: C7_12  and  N4_13 
REMARK    4  A    between atoms: N4_13  and  C8_15 
REMARK    5  A    between atoms: C10_23  and  C11_24 
REMARK    6  A    between atoms: N7_25  and  O2_27 
ROOT
HETATM    1  C6  UNL     1     -10.465  13.779  20.793  1.00  0.00     0.113 A 
HETATM    2  N2  UNL     1     -11.310  14.579  21.485  1.00  0.00    -0.283 N 
ATOM      3  H2  UNL     1     -11.277  15.582  21.303  1.00  0.00     0.187 HD
HETATM    4  N3  UNL     1     -12.170  14.141  22.376  1.00  0.00    -0.131 N 
ATOM      5  H3  UNL     1     -12.774  14.808  22.857  1.00  0.00     0.205 HD
HETATM    6  C7  UNL     1     -12.270  12.834  22.669  1.00  0.00     0.700 A 
HETATM    7  N6  UNL     1     -11.461  12.000  22.017  1.00  0.00    -0.153 N 
ATOM      8  H6  UNL     1     -11.514  11.001  22.217  1.00  0.00     0.187 HD
HETATM    9  C9  UNL     1     -10.561  12.443  21.089  1.00  0.00     0.285 A 
HETATM   10  O1  UNL     1      -9.864  11.551  20.558  1.00  0.00    -0.265 OA
ENDROOT
BRANCH   1  11
HETATM   11  C5  UNL     1      -9.524  14.311  19.776  1.00  0.00     0.193 C 
BRANCH  11  12
HETATM   12  N1  UNL     1      -8.935  15.585  20.093  1.00  0.00    -0.350 N 
HETATM   13  C4  UNL     1      -9.715  16.646  20.352  1.00  0.00     0.092 A 
HETATM   14  C3  UNL     1      -9.231  17.910  20.691  1.00  0.00     0.024 A 
HETATM   15  C2  UNL     1      -7.879  18.090  20.765  1.00  0.00    -0.059 A 
HETATM   16  C1  UNL     1      -7.276  19.411  21.127  1.00  0.00     0.048 C 
HETATM   17  C12 UNL     1      -7.077  16.983  20.491  1.00  0.00     0.038 A 
HETATM   18  C10 UNL     1      -7.575  15.741  20.158  1.00  0.00     0.052 A 
BRANCH  18  19
HETATM   19  C11 UNL     1      -6.670  14.653  19.829  1.00  0.00     0.143 C 
HETATM   20  N7  UNL     1      -6.055  14.443  18.752  1.00  0.00    -0.278 N 
ATOM     21  H7  UNL     1      -5.484  13.598  18.799  1.00  0.00     0.193 HD
BRANCH  20  22
HETATM   22  O2  UNL     1      -5.958  15.034  17.577  1.00  0.00    -0.290 OA
ATOM     23  H2  UNL     1      -6.068  14.780  16.668  1.00  0.00     0.244 HD
ENDBRANCH  20  22
ENDBRANCH  18  19
ENDBRANCH  11  12
ENDBRANCH   1  11
BRANCH   6  24
HETATM   24  N4  UNL     1     -13.134  12.475  23.547  1.00  0.00    -0.187 N 
ATOM     25  H4  UNL     1     -13.614  13.166  24.124  1.00  0.00     0.185 HD
BRANCH  24  26
HETATM   26  C8  UNL     1     -13.400  11.092  23.693  1.00  0.00     0.191 C 
HETATM   27  N5  UNL     1     -12.931  10.446  24.696  1.00  0.00    -0.395 N 
ATOM     28  H52 UNL     1     -12.365  10.945  25.383  1.00  0.00     0.156 HD
ATOM     29  H51 UNL     1     -13.122   9.450  24.802  1.00  0.00     0.156 HD
ENDBRANCH  24  26
ENDBRANCH   6  24
TORSDOF 6
ENDMDL
MODEL 2
REMARK VINA RESULT: -6.304805410      0.944      1.155
REMARK  6 active torsions:
REMARK  status: ('A' for Active; 'I' for Inactive)
REMARK    1  A    between atoms: N1_5  and  C5_6 
REMARK    2  A    between atoms: C5_6  and  C6_7 
REMARK    3  A    between atoms: C7_12  and  N4_13 
REMARK    4  A    between atoms: N4_13  and  C8_15 
REMARK    5  A    between atoms: C10_23  and  C11_24 
REMARK    6  A    between atoms: N7_25  and  O2_27 
ROOT
HETATM    1  C6  UNL     1     -10.736  14.016  20.864  1.00  0.00     0.113 A 
HETATM    2  N2  UNL     1     -11.615  14.693  21.640  1.00  0.00    -0.283 N 
ATOM      3  H2  UNL     1     -11.674  15.704  21.527  1.00  0.00     0.187 HD
HETATM    4  N3  UNL     1     -12.397  14.124  22.529  1.00  0.00    -0.131 N 
ATOM      5  H3  UNL     1     -13.034  14.703  23.077  1.00  0.00     0.205 HD
HETATM    6  C7  UNL     1     -12.376  12.797  22.734  1.00  0.00     0.700 A 
HETATM    7  N6  UNL     1     -11.528  12.080  21.997  1.00  0.00    -0.153 N 
ATOM      8  H6  UNL     1     -11.490  11.069  22.129  1.00  0.00     0.187 HD
HETATM    9  C9  UNL     1     -10.709  12.660  21.070  1.00  0.00     0.285 A 
HETATM   10  O1  UNL     1      -9.962  11.867  20.453  1.00  0.00    -0.265 OA
ENDROOT
BRANCH   1  11
HETATM   11  C5  UNL     1      -9.887  14.693  19.853  1.00  0.00     0.193 C 
BRANCH  11  12
HETATM   12  N1  UNL     1      -8.722  15.356  20.376  1.00  0.00    -0.350 N 
HETATM   13  C4  UNL     1      -8.822  16.587  20.902  1.00  0.00     0.092 A 
HETATM   14  C3  UNL     1      -7.753  17.294  21.452  1.00  0.00     0.024 A 
HETATM   15  C2  UNL     1      -6.521  16.705  21.460  1.00  0.00    -0.059 A 
HETATM   16  C1  UNL     1      -5.321  17.390  22.036  1.00  0.00     0.048 C 
HETATM   17  C12 UNL     1      -6.425  15.428  20.910  1.00  0.00     0.038 A 
HETATM   18  C10 UNL     1      -7.495  14.745  20.370  1.00  0.00     0.052 A 
BRANCH  18  19
HETATM   19  C11 UNL     1      -7.301  13.440  19.761  1.00  0.00     0.143 C 
HETATM   20  N7  UNL     1      -6.607  13.139  18.755  1.00  0.00    -0.278 N 
ATOM     21  H7  UNL     1      -6.652  12.141  18.549  1.00  0.00     0.193 HD
BRANCH  20  22
HETATM   22  O2  UNL     1      -5.837  13.783  17.900  1.00  0.00    -0.290 OA
ATOM     23  H2  UNL     1      -5.668  13.747  16.966  1.00  0.00     0.244 HD
ENDBRANCH  20  22
ENDBRANCH  18  19
ENDBRANCH  11  12
ENDBRANCH   1  11
BRANCH   6  24
HETATM   24  N4  UNL     1     -13.169  12.307  23.616  1.00  0.00    -0.187 N 
ATOM     25  H4  UNL     1     -13.680  12.914  24.257  1.00  0.00     0.185 HD
BRANCH  24  26
HETATM   26  C8  UNL     1     -13.313  10.900  23.675  1.00  0.00     0.191 C 
HETATM   27  N5  UNL     1     -12.762  10.233  24.621  1.00  0.00    -0.395 N 
ATOM     28  H52 UNL     1     -12.222  10.733  25.326  1.00  0.00     0.156 HD
ATOM     29  H51 UNL     1     -12.866   9.219  24.663  1.00  0.00     0.156 HD
ENDBRANCH  24  26
ENDBRANCH   6  24
TORSDOF 6
ENDMDL
MODEL 3
REMARK VINA RESULT: -6.298844853      2.566      6.224
REMARK  6 active torsions:
REMARK  status: ('A' for Active; 'I' for Inactive)
REMARK    1  A    between atoms: N1_5  and  C5_6 
REMARK    2  A    between atoms: C5_6  and  C6_7 
REMARK    3  A    between atoms: C7_12  and  N4_13 
REMARK    4  A    between atoms: N4_13  and  C8_15 
REMARK    5  A    between atoms: C10_23  and  C11_24 
REMARK    6  A    between atoms: N7_25  and  O2_27 
ROOT
HETATM    1  C6  UNL     1      -8.732  16.371  20.386  1.00  0.00     0.113 A 
HETATM    2  N2  UNL     1      -8.339  16.642  19.119  1.00  0.00    -0.283 N 
ATOM      3  H2  UNL     1      -9.027  17.039  18.479  1.00  0.00     0.187 HD
HETATM    4  N3  UNL     1      -7.126  16.426  18.665  1.00  0.00    -0.131 N 
ATOM      5  H3  UNL     1      -6.907  16.657  17.696  1.00  0.00     0.205 HD
HETATM    6  C7  UNL     1      -6.167  15.906  19.449  1.00  0.00     0.700 A 
HETATM    7  N6  UNL     1      -6.498  15.619  20.708  1.00  0.00    -0.153 N 
ATOM      8  H6  UNL     1      -5.791  15.224  21.328  1.00  0.00     0.187 HD
HETATM    9  C9  UNL     1      -7.757  15.838  21.192  1.00  0.00     0.285 A 
HETATM   10  O1  UNL     1      -7.928  15.519  22.389  1.00  0.00    -0.265 OA
ENDROOT
BRANCH   1  11
HETATM   11  C5  UNL     1     -10.107  16.652  20.867  1.00  0.00     0.193 C 
BRANCH  11  12
HETATM   12  N1  UNL     1     -10.785  15.537  21.472  1.00  0.00    -0.350 N 
HETATM   13  C4  UNL     1     -11.486  15.704  22.606  1.00  0.00     0.092 A 
HETATM   14  C3  UNL     1     -12.192  14.687  23.247  1.00  0.00     0.024 A 
HETATM   15  C2  UNL     1     -12.177  13.438  22.695  1.00  0.00    -0.059 A 
HETATM   16  C1  UNL     1     -12.913  12.291  23.315  1.00  0.00     0.048 C 
HETATM   17  C12 UNL     1     -11.445  13.272  21.520  1.00  0.00     0.038 A 
HETATM   18  C10 UNL     1     -10.752  14.292  20.902  1.00  0.00     0.052 A 
BRANCH  18  19
HETATM   19  C11 UNL     1      -9.964  14.025  19.710  1.00  0.00     0.143 C 
HETATM   20  N7  UNL     1      -9.440  12.941  19.343  1.00  0.00    -0.278 N 
ATOM     21  H7  UNL     1      -8.940  13.042  18.460  1.00  0.00     0.193 HD
BRANCH  20  22
HETATM   22  O2  UNL     1      -9.371  11.709  19.808  1.00  0.00    -0.290 OA
ATOM     23  H2  UNL     1      -8.914  10.910  19.572  1.00  0.00     0.244 HD
ENDBRANCH  20  22
ENDBRANCH  18  19
ENDBRANCH  11  12
ENDBRANCH   1  11
BRANCH   6  24
HETATM   24  N4  UNL     1      -5.003  15.724  18.942  1.00  0.00    -0.187 N 
ATOM     25  H4  UNL     1      -4.234  16.362  19.149  1.00  0.00     0.185 HD
BRANCH  24  26
HETATM   26  C8  UNL     1      -4.815  14.612  18.087  1.00  0.00     0.191 C 
HETATM   27  N5  UNL     1      -5.763  13.770  17.903  1.00  0.00    -0.395 N 
ATOM     28  H52 UNL     1      -6.651  13.916  18.383  1.00  0.00     0.156 HD
ATOM     29  H51 UNL     1      -5.628  12.968  17.287  1.00  0.00     0.156 HD
ENDBRANCH  24  26
ENDBRANCH   6  24
TORSDOF 6
ENDMDL
MODEL 4
REMARK VINA RESULT: -6.214063066      2.272      3.266
REMARK  6 active torsions:
REMARK  status: ('A' for Active; 'I' for Inactive)
REMARK    1  A    between atoms: N1_5  and  C5_6 
REMARK    2  A    between atoms: C5_6  and  C6_7 
REMARK    3  A    between atoms: C7_12  and  N4_13 
REMARK    4  A    between atoms: N4_13  and  C8_15 
REMARK    5  A    between atoms: C10_23  and  C11_24 
REMARK    6  A    between atoms: N7_25  and  O2_27 
ROOT
HETATM    1  C6  UNL     1      -9.983  14.793  21.878  1.00  0.00     0.113 A 
HETATM    2  N2  UNL     1      -9.718  13.503  21.565  1.00  0.00    -0.283 N 
ATOM      3  H2  UNL     1      -8.806  13.284  21.165  1.00  0.00     0.187 HD
HETATM    4  N3  UNL     1     -10.565  12.515  21.746  1.00  0.00    -0.131 N 
ATOM      5  H3  UNL     1     -10.291  11.568  21.485  1.00  0.00     0.205 HD
HETATM    6  C7  UNL     1     -11.785  12.726  22.268  1.00  0.00     0.700 A 
HETATM    7  N6  UNL     1     -12.100  13.979  22.594  1.00  0.00    -0.153 N 
ATOM      8  H6  UNL     1     -13.019  14.171  22.994  1.00  0.00     0.187 HD
HETATM    9  C9  UNL     1     -11.228  15.015  22.410  1.00  0.00     0.285 A 
HETATM   10  O1  UNL     1     -11.657  16.138  22.757  1.00  0.00    -0.265 OA
ENDROOT
BRANCH   1  11
HETATM   11  C5  UNL     1      -8.989  15.877  21.680  1.00  0.00     0.193 C 
BRANCH  11  12
HETATM   12  N1  UNL     1      -7.885  15.547  20.819  1.00  0.00    -0.350 N 
HETATM   13  C4  UNL     1      -7.945  14.466  20.025  1.00  0.00     0.092 A 
HETATM   14  C3  UNL     1      -6.933  14.084  19.143  1.00  0.00     0.024 A 
HETATM   15  C2  UNL     1      -5.806  14.852  19.077  1.00  0.00    -0.059 A 
HETATM   16  C1  UNL     1      -4.675  14.518  18.154  1.00  0.00     0.048 C 
HETATM   17  C12 UNL     1      -5.750  15.970  19.907  1.00  0.00     0.038 A 
HETATM   18  C10 UNL     1      -6.762  16.331  20.773  1.00  0.00     0.052 A 
BRANCH  18  19
HETATM   19  C11 UNL     1      -6.603  17.479  21.649  1.00  0.00     0.143 C 
HETATM   20  N7  UNL     1      -6.945  18.674  21.446  1.00  0.00    -0.278 N 
ATOM     21  H7  UNL     1      -6.711  19.274  22.236  1.00  0.00     0.193 HD
BRANCH  20  22
HETATM   22  O2  UNL     1      -7.527  19.347  20.473  1.00  0.00    -0.290 OA
ATOM     23  H2  UNL     1      -8.011  20.161  20.395  1.00  0.00     0.244 HD
ENDBRANCH  20  22
ENDBRANCH  18  19
ENDBRANCH  11  12
ENDBRANCH   1  11
BRANCH   6  24
HETATM   24  N4  UNL     1     -12.561  11.716  22.421  1.00  0.00    -0.187 N 
ATOM     25  H4  UNL     1     -12.691  11.036  21.672  1.00  0.00     0.185 HD
BRANCH  24  26
HETATM   26  C8  UNL     1     -13.233  11.573  23.659  1.00  0.00     0.191 C 
HETATM   27  N5  UNL     1     -12.921  10.619  24.457  1.00  0.00    -0.395 N 
ATOM     28  H52 UNL     1     -12.184   9.970  24.184  1.00  0.00     0.156 HD
ATOM     29  H51 UNL     1     -13.405  10.516  25.349  1.00  0.00     0.156 HD
ENDBRANCH  24  26
ENDBRANCH   6  24
TORSDOF 6
ENDMDL
MODEL 5
REMARK VINA RESULT: -5.857434582      2.180      3.046
REMARK  6 active torsions:
REMARK  status: ('A' for Active; 'I' for Inactive)
REMARK    1  A    between atoms: N1_5  and  C5_6 
REMARK    2  A    between atoms: C5_6  and  C6_7 
REMARK    3  A    between atoms: C7_12  and  N4_13 
REMARK    4  A    between atoms: N4_13  and  C8_15 
REMARK    5  A    between atoms: C10_23  and  C11_24 
REMARK    6  A    between atoms: N7_25  and  O2_27 
ROOT
HETATM    1  C6  UNL     1     -10.450  15.281  21.367  1.00  0.00     0.113 A 
HETATM    2  N2  UNL     1     -10.278  14.083  20.760  1.00  0.00    -0.283 N 
ATOM      3  H2  UNL     1      -9.613  14.028  19.989  1.00  0.00     0.187 HD
HETATM    4  N3  UNL     1     -10.916  12.987  21.104  1.00  0.00    -0.131 N 
ATOM      5  H3  UNL     1     -10.731  12.122  20.597  1.00  0.00     0.205 HD
HETATM    6  C7  UNL     1     -11.806  12.982  22.110  1.00  0.00     0.700 A 
HETATM    7  N6  UNL     1     -12.016  14.136  22.744  1.00  0.00    -0.153 N 
ATOM      8  H6  UNL     1     -12.686  14.163  23.513  1.00  0.00     0.187 HD
HETATM    9  C9  UNL     1     -11.360  15.282  22.394  1.00  0.00     0.285 A 
HETATM   10  O1  UNL     1     -11.657  16.291  23.072  1.00  0.00    -0.265 OA
ENDROOT
BRANCH   1  11
HETATM   11  C5  UNL     1      -9.693  16.491  20.963  1.00  0.00     0.193 C 
BRANCH  11  12
HETATM   12  N1  UNL     1      -8.394  16.241  20.397  1.00  0.00    -0.350 N 
HETATM   13  C4  UNL     1      -8.178  16.433  19.086  1.00  0.00     0.092 A 
HETATM   14  C3  UNL     1      -6.948  16.239  18.458  1.00  0.00     0.024 A 
HETATM   15  C2  UNL     1      -5.889  15.826  19.216  1.00  0.00    -0.059 A 
HETATM   16  C1  UNL     1      -4.533  15.600  18.624  1.00  0.00     0.048 C 
HETATM   17  C12 UNL     1      -6.123  15.626  20.576  1.00  0.00     0.038 A 
HETATM   18  C10 UNL     1      -7.348  15.824  21.178  1.00  0.00     0.052 A 
BRANCH  18  19
HETATM   19  C11 UNL     1      -7.525  15.536  22.592  1.00  0.00     0.143 C 
HETATM   20  N7  UNL     1      -7.908  14.466  23.132  1.00  0.00    -0.278 N 
ATOM     21  H7  UNL     1      -7.941  14.545  24.149  1.00  0.00     0.193 HD
BRANCH  20  22
HETATM   22  O2  UNL     1      -8.278  13.269  22.721  1.00  0.00    -0.290 OA
ATOM     23  H2  UNL     1      -8.672  12.902  21.938  1.00  0.00     0.244 HD
ENDBRANCH  20  22
ENDBRANCH  18  19
ENDBRANCH  11  12
ENDBRANCH   1  11
BRANCH   6  24
HETATM   24  N4  UNL     1     -12.390  11.877  22.396  1.00  0.00    -0.187 N 
ATOM     25  H4  UNL     1     -12.269  11.052  21.809  1.00  0.00     0.185 HD
BRANCH  24  26
HETATM   26  C8  UNL     1     -13.210  11.835  23.549  1.00  0.00     0.191 C 
HETATM   27  N5  UNL     1     -13.061  10.901  24.415  1.00  0.00    -0.395 N 
ATOM     28  H52 UNL     1     -12.344  10.193  24.257  1.00  0.00     0.156 HD
ATOM     29  H51 UNL     1     -13.651  10.870  25.246  1.00  0.00     0.156 HD
ENDBRANCH  24  26
ENDBRANCH   6  24
TORSDOF 6
ENDMDL
