MODEL 1
REMARK VINA RESULT: -8.501191156      0.000      0.000
REMARK  8 active torsions:
REMARK  status: ('A' for Active; 'I' for Inactive)
REMARK    1  A    between atoms: C2_5  and  N2_6 
REMARK    2  A    between atoms: N2_6  and  C3_8 
REMARK    3  A    between atoms: C3_8  and  C4_9 
REMARK    4  A    between atoms: C4_9  and  N3_10 
REMARK    5  A    between atoms: C5_12  and  N4_13 
REMARK    6  A    between atoms: N4_13  and  O2_15 
REMARK    7  A    between atoms: C6_19  and  N6_20 
REMARK    8  A    between atoms: N6_20  and  C7_22 
ROOT
HETATM    1  O1  UNL     1      -4.055  15.119  17.267  1.00  0.00    -0.246 OA
HETATM    2  C1  UNL     1      -4.928  14.895  18.141  1.00  0.00     0.352 A 
HETATM    3  N1  UNL     1      -5.633  13.729  18.106  1.00  0.00    -0.140 N 
ATOM      4  H1  UNL     1      -5.433  13.060  17.363  1.00  0.00     0.189 HD
HETATM    5  C2  UNL     1      -6.578  13.425  19.004  1.00  0.00     0.696 A 
HETATM    6  N5  UNL     1      -6.806  14.356  19.978  1.00  0.00    -0.022 N 
ATOM      7  H5  UNL     1      -7.516  14.171  20.687  1.00  0.00     0.203 HD
HETATM    8  C6  UNL     1      -6.121  15.508  20.027  1.00  0.00     0.701 A 
HETATM    9  N7  UNL     1      -5.177  15.787  19.109  1.00  0.00    -0.140 N 
ATOM     10  H7  UNL     1      -4.659  16.664  19.150  1.00  0.00     0.189 HD
ENDROOT
BRANCH   5  11
HETATM   11  N2  UNL     1      -7.266  12.339  19.011  1.00  0.00    -0.224 N 
ATOM     12  H2  UNL     1      -7.123  11.686  18.240  1.00  0.00     0.177 HD
BRANCH  11  13
HETATM   13  C3  UNL     1      -8.223  11.976  20.024  1.00  0.00     0.157 C 
BRANCH  13  14
HETATM   14  C4  UNL     1      -9.561  12.685  19.837  1.00  0.00     0.140 C 
BRANCH  14  15
HETATM   15  N3  UNL     1     -10.400  12.363  20.964  1.00  0.00    -0.383 N 
HETATM   16  C5  UNL     1     -11.217  13.209  21.484  1.00  0.00     0.199 C 
ATOM     17  H3  UNL     1     -10.343  11.428  21.365  1.00  0.00     0.160 HD
BRANCH  16  18
HETATM   18  N4  UNL     1     -12.028  12.871  22.587  1.00  0.00    -0.265 N 
ATOM     19  H4  UNL     1     -12.415  13.598  23.188  1.00  0.00     0.194 HD
BRANCH  18  20
HETATM   20  O2  UNL     1     -12.281  11.578  22.834  1.00  0.00    -0.289 OA
ATOM     21  H2  UNL     1     -12.499  11.313  23.720  1.00  0.00     0.244 HD
ENDBRANCH  18  20
ENDBRANCH  16  18
ENDBRANCH  14  15
ENDBRANCH  13  14
ENDBRANCH  11  13
ENDBRANCH   5  11
BRANCH   8  22
HETATM   22  N6  UNL     1      -6.378  16.367  20.980  1.00  0.00    -0.191 N 
ATOM     23  H6  UNL     1      -5.659  16.614  21.660  1.00  0.00     0.184 HD
BRANCH  22  24
HETATM   24  C7  UNL     1      -7.669  16.953  21.057  1.00  0.00     0.049 A 
HETATM   25  C8  UNL     1      -8.808  16.194  21.236  1.00  0.00     0.030 A 
HETATM   26  C9  UNL     1     -10.065  16.774  21.309  1.00  0.00     0.002 A 
HETATM   27  C10 UNL     1     -10.128  18.156  21.194  1.00  0.00     0.000 A 
HETATM   28  C11 UNL     1      -9.014  18.933  21.015  1.00  0.00     0.002 A 
HETATM   29  C12 UNL     1      -7.771  18.320  20.947  1.00  0.00     0.030 A 
ENDBRANCH  22  24
ENDBRANCH   8  22
TORSDOF 8
ENDMDL
MODEL 2
REMARK VINA RESULT: -8.497615833      0.047      1.049
REMARK  8 active torsions:
REMARK  status: ('A' for Active; 'I' for Inactive)
REMARK    1  A    between atoms: C2_5  and  N2_6 
REMARK    2  A    between atoms: N2_6  and  C3_8 
REMARK    3  A    between atoms: C3_8  and  C4_9 
REMARK    4  A    between atoms: C4_9  and  N3_10 
REMARK    5  A    between atoms: C5_12  and  N4_13 
REMARK    6  A    between atoms: N4_13  and  O2_15 
REMARK    7  A    between atoms: C6_19  and  N6_20 
REMARK    8  A    between atoms: N6_20  and  C7_22 
ROOT
HETATM    1  O1  UNL     1      -4.051  15.142  17.330  1.00  0.00    -0.246 OA
HETATM    2  C1  UNL     1      -4.927  14.906  18.198  1.00  0.00     0.352 A 
HETATM    3  N1  UNL     1      -5.634  13.742  18.143  1.00  0.00    -0.140 N 
ATOM      4  H1  UNL     1      -5.432  13.084  17.391  1.00  0.00     0.189 HD
HETATM    5  C2  UNL     1      -6.582  13.426  19.034  1.00  0.00     0.696 A 
HETATM    6  N5  UNL     1      -6.812  14.343  20.021  1.00  0.00    -0.022 N 
ATOM      7  H5  UNL     1      -7.525  14.147  20.724  1.00  0.00     0.203 HD
HETATM    8  C6  UNL     1      -6.125  15.492  20.089  1.00  0.00     0.701 A 
HETATM    9  N7  UNL     1      -5.178  15.783  19.179  1.00  0.00    -0.140 N 
ATOM     10  H7  UNL     1      -4.658  16.659  19.235  1.00  0.00     0.189 HD
ENDROOT
BRANCH   5  11
HETATM   11  N2  UNL     1      -7.272  12.341  19.022  1.00  0.00    -0.224 N 
ATOM     12  H2  UNL     1      -7.127  11.699  18.243  1.00  0.00     0.177 HD
BRANCH  11  13
HETATM   13  C3  UNL     1      -8.234  11.965  20.025  1.00  0.00     0.157 C 
BRANCH  13  14
HETATM   14  C4  UNL     1      -9.557  12.710  19.865  1.00  0.00     0.140 C 
BRANCH  14  15
HETATM   15  N3  UNL     1     -10.405  12.359  20.977  1.00  0.00    -0.383 N 
HETATM   16  C5  UNL     1     -11.208  13.198  21.528  1.00  0.00     0.199 C 
ATOM     17  H3  UNL     1     -10.367  11.407  21.340  1.00  0.00     0.160 HD
BRANCH  16  18
HETATM   18  N4  UNL     1     -12.029  12.831  22.615  1.00  0.00    -0.265 N 
ATOM     19  H4  UNL     1     -12.413  13.542  23.237  1.00  0.00     0.194 HD
BRANCH  18  20
HETATM   20  O2  UNL     1     -12.295  11.534  22.818  1.00  0.00    -0.289 OA
ATOM     21  H2  UNL     1     -11.682  11.011  23.323  1.00  0.00     0.244 HD
ENDBRANCH  18  20
ENDBRANCH  16  18
ENDBRANCH  14  15
ENDBRANCH  13  14
ENDBRANCH  11  13
ENDBRANCH   5  11
BRANCH   8  22
HETATM   22  N6  UNL     1      -6.383  16.337  21.055  1.00  0.00    -0.191 N 
ATOM     23  H6  UNL     1      -5.684  16.532  21.771  1.00  0.00     0.184 HD
BRANCH  22  24
HETATM   24  C7  UNL     1      -7.648  16.981  21.093  1.00  0.00     0.049 A 
HETATM   25  C8  UNL     1      -7.778  18.348  20.957  1.00  0.00     0.030 A 
HETATM   26  C9  UNL     1      -9.018  18.968  20.997  1.00  0.00     0.002 A 
HETATM   27  C10 UNL     1     -10.125  18.151  21.179  1.00  0.00     0.000 A 
HETATM   28  C11 UNL     1     -10.024  16.792  21.317  1.00  0.00     0.002 A 
HETATM   29  C12 UNL     1      -8.768  16.204  21.273  1.00  0.00     0.030 A 
ENDBRANCH  22  24
ENDBRANCH   8  22
TORSDOF 8
ENDMDL
MODEL 3
REMARK VINA RESULT: -7.990663794      1.002      1.032
REMARK  8 active torsions:
REMARK  status: ('A' for Active; 'I' for Inactive)
REMARK    1  A    between atoms: C2_5  and  N2_6 
REMARK    2  A    between atoms: N2_6  and  C3_8 
REMARK    3  A    between atoms: C3_8  and  C4_9 
REMARK    4  A    between atoms: C4_9  and  N3_10 
REMARK    5  A    between atoms: C5_12  and  N4_13 
REMARK    6  A    between atoms: N4_13  and  O2_15 
REMARK    7  A    between atoms: C6_19  and  N6_20 
REMARK    8  A    between atoms: N6_20  and  C7_22 
ROOT
HETATM    1  O1  UNL     1      -3.865  15.281  17.377  1.00  0.00    -0.246 OA
HETATM    2  C1  UNL     1      -4.767  15.027  18.214  1.00  0.00     0.352 A 
HETATM    3  N1  UNL     1      -5.474  13.866  18.110  1.00  0.00    -0.140 N 
ATOM      4  H1  UNL     1      -5.251  13.225  17.349  1.00  0.00     0.189 HD
HETATM    5  C2  UNL     1      -6.448  13.531  18.965  1.00  0.00     0.696 A 
HETATM    6  N5  UNL     1      -6.706  14.425  19.966  1.00  0.00    -0.022 N 
ATOM      7  H5  UNL     1      -7.439  14.215  20.643  1.00  0.00     0.203 HD
HETATM    8  C6  UNL     1      -6.019  15.571  20.082  1.00  0.00     0.701 A 
HETATM    9  N7  UNL     1      -5.045  15.881  19.206  1.00  0.00    -0.140 N 
ATOM     10  H7  UNL     1      -4.526  16.754  19.298  1.00  0.00     0.189 HD
ENDROOT
BRANCH   5  11
HETATM   11  N2  UNL     1      -7.139  12.449  18.907  1.00  0.00    -0.224 N 
ATOM     12  H2  UNL     1      -7.291  12.035  17.986  1.00  0.00     0.177 HD
BRANCH  11  13
HETATM   13  C3  UNL     1      -7.716  11.777  20.043  1.00  0.00     0.157 C 
BRANCH  13  14
HETATM   14  C4  UNL     1      -9.040  11.098  19.703  1.00  0.00     0.140 C 
BRANCH  14  15
HETATM   15  N3  UNL     1     -10.096  12.059  19.892  1.00  0.00    -0.383 N 
HETATM   16  C5  UNL     1     -10.147  12.842  20.911  1.00  0.00     0.199 C 
ATOM     17  H3  UNL     1     -10.834  12.121  19.190  1.00  0.00     0.160 HD
BRANCH  16  18
HETATM   18  N4  UNL     1     -11.191  13.775  21.075  1.00  0.00    -0.265 N 
ATOM     19  H4  UNL     1     -11.179  14.434  21.853  1.00  0.00     0.194 HD
BRANCH  18  20
HETATM   20  O2  UNL     1     -12.200  13.783  20.192  1.00  0.00    -0.289 OA
ATOM     21  H2  UNL     1     -12.215  13.126  19.505  1.00  0.00     0.244 HD
ENDBRANCH  18  20
ENDBRANCH  16  18
ENDBRANCH  14  15
ENDBRANCH  13  14
ENDBRANCH  11  13
ENDBRANCH   5  11
BRANCH   8  22
HETATM   22  N6  UNL     1      -6.305  16.394  21.059  1.00  0.00    -0.191 N 
ATOM     23  H6  UNL     1      -5.630  16.563  21.804  1.00  0.00     0.184 HD
BRANCH  22  24
HETATM   24  C7  UNL     1      -7.565  17.049  21.068  1.00  0.00     0.049 A 
HETATM   25  C8  UNL     1      -8.750  16.354  21.194  1.00  0.00     0.030 A 
HETATM   26  C9  UNL     1      -9.976  17.002  21.202  1.00  0.00     0.002 A 
HETATM   27  C10 UNL     1      -9.958  18.384  21.078  1.00  0.00     0.000 A 
HETATM   28  C11 UNL     1      -8.796  19.099  20.951  1.00  0.00     0.002 A 
HETATM   29  C12 UNL     1      -7.586  18.418  20.947  1.00  0.00     0.030 A 
ENDBRANCH  22  24
ENDBRANCH   8  22
TORSDOF 8
ENDMDL
MODEL 4
REMARK VINA RESULT: -7.624569089      1.457      5.326
REMARK  8 active torsions:
REMARK  status: ('A' for Active; 'I' for Inactive)
REMARK    1  A    between atoms: C2_5  and  N2_6 
REMARK    2  A    between atoms: N2_6  and  C3_8 
REMARK    3  A    between atoms: C3_8  and  C4_9 
REMARK    4  A    between atoms: C4_9  and  N3_10 
REMARK    5  A    between atoms: C5_12  and  N4_13 
REMARK    6  A    between atoms: N4_13  and  O2_15 
REMARK    7  A    between atoms: C6_19  and  N6_20 
REMARK    8  A    between atoms: N6_20  and  C7_22 
ROOT
HETATM    1  O1  UNL     1     -12.633  12.844  23.085  1.00  0.00    -0.246 OA
HETATM    2  C1  UNL     1     -11.850  13.324  22.228  1.00  0.00     0.352 A 
HETATM    3  N1  UNL     1     -11.292  12.506  21.291  1.00  0.00    -0.140 N 
ATOM      4  H1  UNL     1     -11.528  11.513  21.308  1.00  0.00     0.189 HD
HETATM    5  C2  UNL     1     -10.450  12.948  20.351  1.00  0.00     0.696 A 
HETATM    6  N5  UNL     1     -10.169  14.286  20.373  1.00  0.00    -0.022 N 
ATOM      7  H5  UNL     1      -9.532  14.672  19.676  1.00  0.00     0.203 HD
HETATM    8  C6  UNL     1     -10.709  15.104  21.288  1.00  0.00     0.701 A 
HETATM    9  N7  UNL     1     -11.553  14.630  22.223  1.00  0.00    -0.140 N 
ATOM     10  H7  UNL     1     -11.961  15.256  22.917  1.00  0.00     0.189 HD
ENDROOT
BRANCH   5  11
HETATM   11  N2  UNL     1      -9.902  12.215  19.448  1.00  0.00    -0.224 N 
ATOM     12  H2  UNL     1     -10.364  12.161  18.540  1.00  0.00     0.177 HD
BRANCH  11  13
HETATM   13  C3  UNL     1      -8.685  11.464  19.623  1.00  0.00     0.157 C 
BRANCH  13  14
HETATM   14  C4  UNL     1      -7.537  12.332  20.132  1.00  0.00     0.140 C 
BRANCH  14  15
HETATM   15  N3  UNL     1      -6.864  12.897  18.990  1.00  0.00    -0.383 N 
HETATM   16  C5  UNL     1      -6.317  14.061  19.014  1.00  0.00     0.199 C 
ATOM     17  H3  UNL     1      -6.820  12.353  18.129  1.00  0.00     0.160 HD
BRANCH  16  18
HETATM   18  N4  UNL     1      -5.663  14.593  17.883  1.00  0.00    -0.265 N 
ATOM     19  H4  UNL     1      -6.097  15.337  17.337  1.00  0.00     0.194 HD
BRANCH  18  20
HETATM   20  O2  UNL     1      -4.464  14.106  17.538  1.00  0.00    -0.289 OA
ATOM     21  H2  UNL     1      -4.369  13.667  16.701  1.00  0.00     0.244 HD
ENDBRANCH  18  20
ENDBRANCH  16  18
ENDBRANCH  14  15
ENDBRANCH  13  14
ENDBRANCH  11  13
ENDBRANCH   5  11
BRANCH   8  22
HETATM   22  N6  UNL     1     -10.408  16.378  21.267  1.00  0.00    -0.191 N 
ATOM     23  H6  UNL     1     -11.145  17.082  21.251  1.00  0.00     0.184 HD
BRANCH  22  24
HETATM   24  C7  UNL     1      -9.042  16.768  21.266  1.00  0.00     0.049 A 
HETATM   25  C8  UNL     1      -8.036  15.910  21.663  1.00  0.00     0.030 A 
HETATM   26  C9  UNL     1      -6.705  16.300  21.660  1.00  0.00     0.002 A 
HETATM   27  C10 UNL     1      -6.430  17.594  21.239  1.00  0.00     0.000 A 
HETATM   28  C11 UNL     1      -7.409  18.465  20.841  1.00  0.00     0.002 A 
HETATM   29  C12 UNL     1      -8.731  18.042  20.856  1.00  0.00     0.030 A 
ENDBRANCH  22  24
ENDBRANCH   8  22
TORSDOF 8
ENDMDL
MODEL 5
REMARK VINA RESULT: -7.548803408      1.439      1.779
REMARK  8 active torsions:
REMARK  status: ('A' for Active; 'I' for Inactive)
REMARK    1  A    between atoms: C2_5  and  N2_6 
REMARK    2  A    between atoms: N2_6  and  C3_8 
REMARK    3  A    between atoms: C3_8  and  C4_9 
REMARK    4  A    between atoms: C4_9  and  N3_10 
REMARK    5  A    between atoms: C5_12  and  N4_13 
REMARK    6  A    between atoms: N4_13  and  O2_15 
REMARK    7  A    between atoms: C6_19  and  N6_20 
REMARK    8  A    between atoms: N6_20  and  C7_22 
ROOT
HETATM    1  O1  UNL     1      -3.958  15.078  17.241  1.00  0.00    -0.246 OA
HETATM    2  C1  UNL     1      -4.839  14.893  18.118  1.00  0.00     0.352 A 
HETATM    3  N1  UNL     1      -5.603  13.765  18.077  1.00  0.00    -0.140 N 
ATOM      4  H1  UNL     1      -5.440  13.091  17.329  1.00  0.00     0.189 HD
HETATM    5  C2  UNL     1      -6.559  13.503  18.977  1.00  0.00     0.696 A 
HETATM    6  N5  UNL     1      -6.736  14.439  19.958  1.00  0.00    -0.022 N 
ATOM      7  H5  UNL     1      -7.453  14.285  20.667  1.00  0.00     0.203 HD
HETATM    8  C6  UNL     1      -5.993  15.553  20.011  1.00  0.00     0.701 A 
HETATM    9  N7  UNL     1      -5.039  15.790  19.092  1.00  0.00    -0.140 N 
ATOM     10  H7  UNL     1      -4.476  16.639  19.137  1.00  0.00     0.189 HD
ENDROOT
BRANCH   5  11
HETATM   11  N2  UNL     1      -7.302  12.455  18.979  1.00  0.00    -0.224 N 
ATOM     12  H2  UNL     1      -7.367  11.921  18.111  1.00  0.00     0.177 HD
BRANCH  11  13
HETATM   13  C3  UNL     1      -8.050  11.976  20.113  1.00  0.00     0.157 C 
BRANCH  13  14
HETATM   14  C4  UNL     1      -9.470  12.535  20.147  1.00  0.00     0.140 C 
BRANCH  14  15
HETATM   15  N3  UNL     1      -9.759  12.940  21.499  1.00  0.00    -0.383 N 
HETATM   16  C5  UNL     1      -8.931  13.618  22.212  1.00  0.00     0.199 C 
ATOM     17  H3  UNL     1     -10.656  12.678  21.908  1.00  0.00     0.160 HD
BRANCH  16  18
HETATM   18  N4  UNL     1      -9.236  14.003  23.534  1.00  0.00    -0.265 N 
ATOM     19  H4  UNL     1     -10.196  14.219  23.801  1.00  0.00     0.194 HD
BRANCH  18  20
HETATM   20  O2  UNL     1      -8.245  14.083  24.432  1.00  0.00    -0.289 OA
ATOM     21  H2  UNL     1      -7.784  14.907  24.537  1.00  0.00     0.244 HD
ENDBRANCH  18  20
ENDBRANCH  16  18
ENDBRANCH  14  15
ENDBRANCH  13  14
ENDBRANCH  11  13
ENDBRANCH   5  11
BRANCH   8  22
HETATM   22  N6  UNL     1      -6.202  16.418  20.971  1.00  0.00    -0.191 N 
ATOM     23  H6  UNL     1      -5.501  16.563  21.697  1.00  0.00     0.184 HD
BRANCH  22  24
HETATM   24  C7  UNL     1      -7.417  17.154  20.989  1.00  0.00     0.049 A 
HETATM   25  C8  UNL     1      -7.440  18.530  20.885  1.00  0.00     0.030 A 
HETATM   26  C9  UNL     1      -8.631  19.240  20.905  1.00  0.00     0.002 A 
HETATM   27  C10 UNL     1      -9.801  18.504  21.034  1.00  0.00     0.000 A 
HETATM   28  C11 UNL     1      -9.806  17.138  21.140  1.00  0.00     0.002 A 
HETATM   29  C12 UNL     1      -8.596  16.459  21.117  1.00  0.00     0.030 A 
ENDBRANCH  22  24
ENDBRANCH   8  22
TORSDOF 8
ENDMDL
