MODEL 1
REMARK VINA RESULT: -7.323796526      0.000      0.000
REMARK  7 active torsions:
REMARK  status: ('A' for Active; 'I' for Inactive)
REMARK    1  A    between atoms: N1_1  and  N2_4 
REMARK    2  A    between atoms: N2_4  and  S1_6 
REMARK    3  A    between atoms: S1_6  and  N3_9 
REMARK    4  A    between atoms: N3_9  and  C1_11 
REMARK    5  A    between atoms: C1_11  and  C2_12 
REMARK    6  A    between atoms: C7_17  and  S2_18 
REMARK    7  A    between atoms: S2_18  and  N4_19 
ROOT
HETATM    1  C2  UNL     1      -9.894  15.954  20.599  1.00  0.00    -0.017 A 
HETATM    2  C3  UNL     1     -10.008  17.282  20.941  1.00  0.00     0.010 A 
HETATM    3  C4  UNL     1     -10.801  17.718  21.998  1.00  0.00     0.001 A 
HETATM    4  C5  UNL     1     -11.502  16.795  22.737  1.00  0.00     0.002 A 
HETATM    5  C6  UNL     1     -11.398  15.462  22.408  1.00  0.00     0.026 A 
HETATM    6  C7  UNL     1     -10.608  15.037  21.355  1.00  0.00     0.087 A 
ENDROOT
BRANCH   1   7
HETATM    7  C1  UNL     1      -9.041  15.565  19.478  1.00  0.00     0.173 C 
BRANCH   7   8
HETATM    8  N3  UNL     1      -7.752  15.139  19.975  1.00  0.00    -0.297 N 
ATOM      9  H3  UNL     1      -7.613  14.512  20.767  1.00  0.00     0.174 HD
BRANCH   8  10
HETATM   10  S1  UNL     1      -6.469  15.851  19.033  1.00  0.00     0.332 S 
HETATM   11  O1  UNL     1      -5.341  16.233  19.967  1.00  0.00    -0.181 OA
HETATM   12  O2  UNL     1      -7.024  17.122  18.458  1.00  0.00    -0.181 OA
BRANCH  10  13
HETATM   13  N2  UNL     1      -5.976  14.733  17.848  1.00  0.00    -0.217 N 
ATOM     14  H2  UNL     1      -6.631  14.247  17.236  1.00  0.00     0.201 HD
BRANCH  13  15
HETATM   15  N1  UNL     1      -4.599  14.541  17.789  1.00  0.00    -0.335 N 
ATOM     16  H12 UNL     1      -4.066  14.185  18.583  1.00  0.00     0.177 HD
ATOM     17  H11 UNL     1      -4.184  14.788  16.891  1.00  0.00     0.177 HD
ENDBRANCH  13  15
ENDBRANCH  10  13
ENDBRANCH   8  10
ENDBRANCH   7   8
ENDBRANCH   1   7
BRANCH   6  18
HETATM   18  S2  UNL     1     -10.499  13.360  20.967  1.00  0.00     0.257 S 
HETATM   19  O3  UNL     1     -10.910  13.059  19.555  1.00  0.00    -0.201 OA
HETATM   20  O4  UNL     1      -9.067  12.920  21.097  1.00  0.00    -0.201 OA
BRANCH  18  21
HETATM   21  N4  UNL     1     -11.405  12.409  22.098  1.00  0.00    -0.324 N 
ATOM     22  H42 UNL     1     -11.914  12.801  22.889  1.00  0.00     0.169 HD
ATOM     23  H41 UNL     1     -11.354  11.418  21.859  1.00  0.00     0.169 HD
ENDBRANCH  18  21
ENDBRANCH   6  18
TORSDOF 7
ENDMDL
MODEL 2
REMARK VINA RESULT: -7.154923584      1.014      1.199
REMARK  7 active torsions:
REMARK  status: ('A' for Active; 'I' for Inactive)
REMARK    1  A    between atoms: N1_1  and  N2_4 
REMARK    2  A    between atoms: N2_4  and  S1_6 
REMARK    3  A    between atoms: S1_6  and  N3_9 
REMARK    4  A    between atoms: N3_9  and  C1_11 
REMARK    5  A    between atoms: C1_11  and  C2_12 
REMARK    6  A    between atoms: C7_17  and  S2_18 
REMARK    7  A    between atoms: S2_18  and  N4_19 
ROOT
HETATM    1  C2  UNL     1      -9.830  15.831  20.611  1.00  0.00    -0.017 A 
HETATM    2  C3  UNL     1     -10.088  17.124  21.005  1.00  0.00     0.010 A 
HETATM    3  C4  UNL     1     -10.930  17.429  22.070  1.00  0.00     0.001 A 
HETATM    4  C5  UNL     1     -11.533  16.407  22.763  1.00  0.00     0.002 A 
HETATM    5  C6  UNL     1     -11.285  15.108  22.382  1.00  0.00     0.026 A 
HETATM    6  C7  UNL     1     -10.447  14.813  21.321  1.00  0.00     0.087 A 
ENDROOT
BRANCH   1   7
HETATM    7  C1  UNL     1      -8.933  15.582  19.485  1.00  0.00     0.173 C 
BRANCH   7   8
HETATM    8  N3  UNL     1      -7.630  15.197  19.979  1.00  0.00    -0.297 N 
ATOM      9  H3  UNL     1      -7.469  14.531  20.734  1.00  0.00     0.174 HD
BRANCH   8  10
HETATM   10  S1  UNL     1      -6.374  16.032  19.105  1.00  0.00     0.332 S 
HETATM   11  O1  UNL     1      -5.232  16.316  20.057  1.00  0.00    -0.181 OA
HETATM   12  O2  UNL     1      -6.954  17.355  18.695  1.00  0.00    -0.181 OA
BRANCH  10  13
HETATM   13  N2  UNL     1      -5.892  15.069  17.787  1.00  0.00    -0.217 N 
ATOM     14  H2  UNL     1      -5.606  15.458  16.889  1.00  0.00     0.201 HD
BRANCH  13  15
HETATM   15  N1  UNL     1      -5.922  13.701  18.045  1.00  0.00    -0.335 N 
ATOM     16  H12 UNL     1      -6.568  13.073  17.567  1.00  0.00     0.177 HD
ATOM     17  H11 UNL     1      -5.247  13.396  18.746  1.00  0.00     0.177 HD
ENDBRANCH  13  15
ENDBRANCH  10  13
ENDBRANCH   8  10
ENDBRANCH   7   8
ENDBRANCH   1   7
BRANCH   6  18
HETATM   18  S2  UNL     1     -10.157  13.175  20.867  1.00  0.00     0.257 S 
HETATM   19  O3  UNL     1      -8.737  12.748  21.097  1.00  0.00    -0.201 OA
HETATM   20  O4  UNL     1     -11.016  12.274  21.710  1.00  0.00    -0.201 OA
BRANCH  18  21
HETATM   21  N4  UNL     1     -10.632  12.901  19.223  1.00  0.00    -0.324 N 
ATOM     22  H42 UNL     1     -10.836  13.647  18.559  1.00  0.00     0.169 HD
ATOM     23  H41 UNL     1     -10.676  11.901  19.021  1.00  0.00     0.169 HD
ENDBRANCH  18  21
ENDBRANCH   6  18
TORSDOF 7
ENDMDL
MODEL 3
REMARK VINA RESULT: -6.970276451      3.004      5.171
REMARK  7 active torsions:
REMARK  status: ('A' for Active; 'I' for Inactive)
REMARK    1  A    between atoms: N1_1  and  N2_4 
REMARK    2  A    between atoms: N2_4  and  S1_6 
REMARK    3  A    between atoms: S1_6  and  N3_9 
REMARK    4  A    between atoms: N3_9  and  C1_11 
REMARK    5  A    between atoms: C1_11  and  C2_12 
REMARK    6  A    between atoms: C7_17  and  S2_18 
REMARK    7  A    between atoms: S2_18  and  N4_19 
ROOT
HETATM    1  C2  UNL     1      -7.685  14.335  20.796  1.00  0.00    -0.017 A 
HETATM    2  C3  UNL     1      -8.454  13.268  21.199  1.00  0.00     0.010 A 
HETATM    3  C4  UNL     1      -8.509  12.073  20.489  1.00  0.00     0.001 A 
HETATM    4  C5  UNL     1      -7.771  11.942  19.337  1.00  0.00     0.002 A 
HETATM    5  C6  UNL     1      -6.996  13.000  18.920  1.00  0.00     0.026 A 
HETATM    6  C7  UNL     1      -6.947  14.185  19.632  1.00  0.00     0.087 A 
ENDROOT
BRANCH   1   7
HETATM    7  C1  UNL     1      -7.670  15.560  21.592  1.00  0.00     0.173 C 
BRANCH   7   8
HETATM    8  N3  UNL     1      -9.026  16.009  21.815  1.00  0.00    -0.297 N 
ATOM      9  H3  UNL     1      -9.681  15.577  22.466  1.00  0.00     0.174 HD
BRANCH   8  10
HETATM   10  S1  UNL     1      -9.384  17.392  20.814  1.00  0.00     0.332 S 
HETATM   11  O1  UNL     1     -10.276  18.333  21.596  1.00  0.00    -0.181 OA
HETATM   12  O2  UNL     1     -10.185  16.877  19.654  1.00  0.00    -0.181 OA
BRANCH  10  13
HETATM   13  N2  UNL     1      -7.920  18.125  20.351  1.00  0.00    -0.217 N 
ATOM     14  H2  UNL     1      -7.316  17.747  19.621  1.00  0.00     0.201 HD
BRANCH  13  15
HETATM   15  N1  UNL     1      -7.620  19.287  21.057  1.00  0.00    -0.335 N 
ATOM     16  H12 UNL     1      -8.194  20.127  20.988  1.00  0.00     0.177 HD
ATOM     17  H11 UNL     1      -6.784  19.215  21.637  1.00  0.00     0.177 HD
ENDBRANCH  13  15
ENDBRANCH  10  13
ENDBRANCH   8  10
ENDBRANCH   7   8
ENDBRANCH   1   7
BRANCH   6  18
HETATM   18  S2  UNL     1      -5.966  15.493  19.083  1.00  0.00     0.257 S 
HETATM   19  O3  UNL     1      -6.757  16.570  18.399  1.00  0.00    -0.201 OA
HETATM   20  O4  UNL     1      -5.303  16.138  20.268  1.00  0.00    -0.201 OA
BRANCH  18  21
HETATM   21  N4  UNL     1      -4.687  14.916  18.065  1.00  0.00    -0.324 N 
ATOM     22  H42 UNL     1      -3.846  15.452  17.851  1.00  0.00     0.169 HD
ATOM     23  H41 UNL     1      -4.896  13.979  17.720  1.00  0.00     0.169 HD
ENDBRANCH  18  21
ENDBRANCH   6  18
TORSDOF 7
ENDMDL
MODEL 4
REMARK VINA RESULT: -6.958478958      1.934      4.500
REMARK  7 active torsions:
REMARK  status: ('A' for Active; 'I' for Inactive)
REMARK    1  A    between atoms: N1_1  and  N2_4 
REMARK    2  A    between atoms: N2_4  and  S1_6 
REMARK    3  A    between atoms: S1_6  and  N3_9 
REMARK    4  A    between atoms: N3_9  and  C1_11 
REMARK    5  A    between atoms: C1_11  and  C2_12 
REMARK    6  A    between atoms: C7_17  and  S2_18 
REMARK    7  A    between atoms: S2_18  and  N4_19 
ROOT
HETATM    1  C2  UNL     1      -8.715  14.973  21.238  1.00  0.00    -0.017 A 
HETATM    2  C3  UNL     1      -9.855  14.998  22.008  1.00  0.00     0.010 A 
HETATM    3  C4  UNL     1     -10.670  16.121  22.104  1.00  0.00     0.001 A 
HETATM    4  C5  UNL     1     -10.334  17.256  21.406  1.00  0.00     0.002 A 
HETATM    5  C6  UNL     1      -9.197  17.248  20.630  1.00  0.00     0.026 A 
HETATM    6  C7  UNL     1      -8.391  16.126  20.541  1.00  0.00     0.087 A 
ENDROOT
BRANCH   1   7
HETATM    7  C1  UNL     1      -7.905  13.758  21.180  1.00  0.00     0.173 C 
BRANCH   7   8
HETATM    8  N3  UNL     1      -8.755  12.601  21.351  1.00  0.00    -0.297 N 
ATOM      9  H3  UNL     1      -9.174  12.314  22.235  1.00  0.00     0.174 HD
BRANCH   8  10
HETATM   10  S1  UNL     1      -8.960  11.764  19.835  1.00  0.00     0.332 S 
HETATM   11  O1  UNL     1      -9.249  10.307  20.125  1.00  0.00    -0.181 OA
HETATM   12  O2  UNL     1      -7.632  11.826  19.137  1.00  0.00    -0.181 OA
BRANCH  10  13
HETATM   13  N2  UNL     1     -10.217  12.511  18.964  1.00  0.00    -0.217 N 
ATOM     14  H2  UNL     1     -10.233  12.562  17.946  1.00  0.00     0.201 HD
BRANCH  13  15
HETATM   15  N1  UNL     1     -11.220  13.046  19.766  1.00  0.00    -0.335 N 
ATOM     16  H12 UNL     1     -11.685  12.500  20.491  1.00  0.00     0.177 HD
ATOM     17  H11 UNL     1     -11.441  14.021  19.559  1.00  0.00     0.177 HD
ENDBRANCH  13  15
ENDBRANCH  10  13
ENDBRANCH   8  10
ENDBRANCH   7   8
ENDBRANCH   1   7
BRANCH   6  18
HETATM   18  S2  UNL     1      -6.972  16.147  19.561  1.00  0.00     0.257 S 
HETATM   19  O3  UNL     1      -6.917  17.328  18.637  1.00  0.00    -0.201 OA
HETATM   20  O4  UNL     1      -5.764  16.244  20.451  1.00  0.00    -0.201 OA
BRANCH  18  21
HETATM   21  N4  UNL     1      -6.810  14.660  18.684  1.00  0.00    -0.324 N 
ATOM     22  H42 UNL     1      -6.030  14.449  18.063  1.00  0.00     0.169 HD
ATOM     23  H41 UNL     1      -7.596  14.039  18.880  1.00  0.00     0.169 HD
ENDBRANCH  18  21
ENDBRANCH   6  18
TORSDOF 7
ENDMDL
MODEL 5
REMARK VINA RESULT: -6.927970121      1.778      2.070
REMARK  7 active torsions:
REMARK  status: ('A' for Active; 'I' for Inactive)
REMARK    1  A    between atoms: N1_1  and  N2_4 
REMARK    2  A    between atoms: N2_4  and  S1_6 
REMARK    3  A    between atoms: S1_6  and  N3_9 
REMARK    4  A    between atoms: N3_9  and  C1_11 
REMARK    5  A    between atoms: C1_11  and  C2_12 
REMARK    6  A    between atoms: C7_17  and  S2_18 
REMARK    7  A    between atoms: S2_18  and  N4_19 
ROOT
HETATM    1  C2  UNL     1      -9.401  14.429  21.402  1.00  0.00    -0.017 A 
HETATM    2  C3  UNL     1     -10.005  15.386  22.185  1.00  0.00     0.010 A 
HETATM    3  C4  UNL     1     -11.283  15.227  22.710  1.00  0.00     0.001 A 
HETATM    4  C5  UNL     1     -11.979  14.073  22.444  1.00  0.00     0.002 A 
HETATM    5  C6  UNL     1     -11.390  13.104  21.663  1.00  0.00     0.026 A 
HETATM    6  C7  UNL     1     -10.118  13.271  21.144  1.00  0.00     0.087 A 
ENDROOT
BRANCH   1   7
HETATM    7  C1  UNL     1      -8.054  14.659  20.885  1.00  0.00     0.173 C 
BRANCH   7   8
HETATM    8  N3  UNL     1      -8.134  15.167  19.534  1.00  0.00    -0.297 N 
ATOM      9  H3  UNL     1      -8.949  15.081  18.928  1.00  0.00     0.174 HD
BRANCH   8  10
HETATM   10  S1  UNL     1      -6.640  15.950  19.086  1.00  0.00     0.332 S 
HETATM   11  O1  UNL     1      -5.770  16.064  20.319  1.00  0.00    -0.181 OA
HETATM   12  O2  UNL     1      -7.005  17.343  18.665  1.00  0.00    -0.181 OA
BRANCH  10  13
HETATM   13  N2  UNL     1      -5.897  15.044  17.853  1.00  0.00    -0.217 N 
ATOM     14  H2  UNL     1      -5.467  15.470  17.032  1.00  0.00     0.201 HD
BRANCH  13  15
HETATM   15  N1  UNL     1      -5.929  13.668  18.063  1.00  0.00    -0.335 N 
ATOM     16  H12 UNL     1      -5.078  13.112  18.148  1.00  0.00     0.177 HD
ATOM     17  H11 UNL     1      -6.870  13.279  18.120  1.00  0.00     0.177 HD
ENDBRANCH  13  15
ENDBRANCH  10  13
ENDBRANCH   8  10
ENDBRANCH   7   8
ENDBRANCH   1   7
BRANCH   6  18
HETATM   18  S2  UNL     1      -9.405  12.040  20.168  1.00  0.00     0.257 S 
HETATM   19  O3  UNL     1      -7.914  12.169  20.061  1.00  0.00    -0.201 OA
HETATM   20  O4  UNL     1      -9.674  10.700  20.796  1.00  0.00    -0.201 OA
BRANCH  18  21
HETATM   21  N4  UNL     1     -10.143  11.997  18.600  1.00  0.00    -0.324 N 
ATOM     22  H42 UNL     1      -9.630  11.823  17.736  1.00  0.00     0.169 HD
ATOM     23  H41 UNL     1     -11.146  12.167  18.668  1.00  0.00     0.169 HD
ENDBRANCH  18  21
ENDBRANCH   6  18
TORSDOF 7
ENDMDL
