MODEL 1
REMARK VINA RESULT: -6.156854977      0.000      0.000
REMARK  5 active torsions:
REMARK  status: ('A' for Active; 'I' for Inactive)
REMARK    1  A    between atoms: O1_2  and  N1_3 
REMARK    2  A    between atoms: N1_3  and  S1_5 
REMARK    3  A    between atoms: S1_5  and  N2_8 
REMARK    4  A    between atoms: N2_8  and  C3_10 
REMARK    5  A    between atoms: C3_10  and  C4_11 
ROOT
HETATM    1  N2  UNL     1     -21.824   2.237  -8.529  1.00  0.00    -0.335 N 
ATOM      2  H2  UNL     1     -21.040   1.916  -7.961  1.00  0.00     0.170 HD
ENDROOT
BRANCH   1   3
HETATM    3  S1  UNL     1     -22.166   1.465 -10.154  1.00  0.00     0.121 S 
HETATM    4  C2  UNL     1     -21.238   2.867 -11.037  1.00  0.00     0.162 C 
HETATM    5  O2  UNL     1     -23.015   1.053 -11.446  1.00  0.00    -0.227 OA
BRANCH   3   6
HETATM    6  N1  UNL     1     -21.594  -0.110  -9.777  1.00  0.00    -0.210 N 
ATOM      7  H1  UNL     1     -20.583  -0.236  -9.835  1.00  0.00     0.205 HD
BRANCH   6   8
HETATM    8  O1  UNL     1     -22.289  -1.189  -9.421  1.00  0.00    -0.277 OA
HETATM    9  C1  UNL     1     -23.378  -0.764  -8.639  1.00  0.00     0.238 C 
ENDBRANCH   6   8
ENDBRANCH   3   6
ENDBRANCH   1   3
BRANCH   1  10
HETATM   10  C3  UNL     1     -22.669   3.301  -8.062  1.00  0.00     0.135 C 
BRANCH  10  11
HETATM   11  C4  UNL     1     -23.512   2.922  -6.898  1.00  0.00     0.004 C 
HETATM   12  C5  UNL     1     -24.958   2.979  -7.305  1.00  0.00     0.006 C 
HETATM   13  C6  UNL     1     -25.633   1.631  -7.101  1.00  0.00     0.000 C 
HETATM   14  C7  UNL     1     -25.537   1.148  -5.686  1.00  0.00     0.000 C 
HETATM   15  C8  UNL     1     -24.260   1.559  -5.050  1.00  0.00     0.000 C 
HETATM   16  C9  UNL     1     -23.163   1.730  -6.122  1.00  0.00     0.006 C 
ENDBRANCH  10  11
ENDBRANCH   1  10
TORSDOF 5
ENDMDL
MODEL 2
REMARK VINA RESULT: -6.139434290      1.644      2.520
REMARK  5 active torsions:
REMARK  status: ('A' for Active; 'I' for Inactive)
REMARK    1  A    between atoms: O1_2  and  N1_3 
REMARK    2  A    between atoms: N1_3  and  S1_5 
REMARK    3  A    between atoms: S1_5  and  N2_8 
REMARK    4  A    between atoms: N2_8  and  C3_10 
REMARK    5  A    between atoms: C3_10  and  C4_11 
ROOT
HETATM    1  N2  UNL     1     -23.199   2.279  -9.265  1.00  0.00    -0.335 N 
ATOM      2  H2  UNL     1     -23.986   2.856  -9.560  1.00  0.00     0.170 HD
ENDROOT
BRANCH   1   3
HETATM    3  S1  UNL     1     -22.632   0.885 -10.309  1.00  0.00     0.121 S 
HETATM    4  C2  UNL     1     -23.522  -0.351  -9.174  1.00  0.00     0.162 C 
HETATM    5  O2  UNL     1     -21.620  -0.204 -10.899  1.00  0.00    -0.227 OA
BRANCH   3   6
HETATM    6  N1  UNL     1     -23.163   1.506 -11.819  1.00  0.00    -0.210 N 
ATOM      7  H1  UNL     1     -22.547   2.194 -12.253  1.00  0.00     0.205 HD
BRANCH   6   8
HETATM    8  O1  UNL     1     -24.269   1.213 -12.502  1.00  0.00    -0.277 OA
HETATM    9  C1  UNL     1     -24.088   1.646 -13.827  1.00  0.00     0.238 C 
ENDBRANCH   6   8
ENDBRANCH   3   6
ENDBRANCH   1   3
BRANCH   1  10
HETATM   10  C3  UNL     1     -22.524   2.552  -8.027  1.00  0.00     0.135 C 
BRANCH  10  11
HETATM   11  C4  UNL     1     -23.401   2.432  -6.834  1.00  0.00     0.004 C 
HETATM   12  C5  UNL     1     -24.820   2.709  -7.243  1.00  0.00     0.006 C 
HETATM   13  C6  UNL     1     -25.720   1.526  -6.920  1.00  0.00     0.000 C 
HETATM   14  C7  UNL     1     -25.688   1.160  -5.467  1.00  0.00     0.000 C 
HETATM   15  C8  UNL     1     -24.348   1.392  -4.870  1.00  0.00     0.000 C 
HETATM   16  C9  UNL     1     -23.256   1.271  -5.953  1.00  0.00     0.006 C 
ENDBRANCH  10  11
ENDBRANCH   1  10
TORSDOF 5
ENDMDL
MODEL 3
REMARK VINA RESULT: -6.134598508      1.148      1.167
REMARK  5 active torsions:
REMARK  status: ('A' for Active; 'I' for Inactive)
REMARK    1  A    between atoms: O1_2  and  N1_3 
REMARK    2  A    between atoms: N1_3  and  S1_5 
REMARK    3  A    between atoms: S1_5  and  N2_8 
REMARK    4  A    between atoms: N2_8  and  C3_10 
REMARK    5  A    between atoms: C3_10  and  C4_11 
ROOT
HETATM    1  N2  UNL     1     -21.772   2.598  -8.190  1.00  0.00    -0.335 N 
ATOM      2  H2  UNL     1     -21.176   2.312  -7.413  1.00  0.00     0.170 HD
ENDROOT
BRANCH   1   3
HETATM    3  S1  UNL     1     -21.299   2.203  -9.914  1.00  0.00     0.121 S 
HETATM    4  C2  UNL     1     -19.583   2.967  -9.638  1.00  0.00     0.162 C 
HETATM    5  O2  UNL     1     -21.244   2.359 -11.505  1.00  0.00    -0.227 OA
BRANCH   3   6
HETATM    6  N1  UNL     1     -21.734   0.541  -9.889  1.00  0.00    -0.210 N 
ATOM      7  H1  UNL     1     -21.205  -0.042  -9.241  1.00  0.00     0.205 HD
BRANCH   6   8
HETATM    8  O1  UNL     1     -22.667  -0.090 -10.602  1.00  0.00    -0.277 OA
HETATM    9  C1  UNL     1     -23.924   0.375 -10.177  1.00  0.00     0.238 C 
ENDBRANCH   6   8
ENDBRANCH   3   6
ENDBRANCH   1   3
BRANCH   1  10
HETATM   10  C3  UNL     1     -22.992   3.314  -7.940  1.00  0.00     0.135 C 
BRANCH  10  11
HETATM   11  C4  UNL     1     -23.751   2.805  -6.768  1.00  0.00     0.004 C 
HETATM   12  C5  UNL     1     -25.207   2.718  -7.131  1.00  0.00     0.006 C 
HETATM   13  C6  UNL     1     -25.726   1.299  -6.961  1.00  0.00     0.000 C 
HETATM   14  C7  UNL     1     -25.532   0.780  -5.568  1.00  0.00     0.000 C 
HETATM   15  C8  UNL     1     -24.287   1.305  -4.953  1.00  0.00     0.000 C 
HETATM   16  C9  UNL     1     -23.250   1.633  -6.048  1.00  0.00     0.006 C 
ENDBRANCH  10  11
ENDBRANCH   1  10
TORSDOF 5
ENDMDL
MODEL 4
REMARK VINA RESULT: -6.109947535      1.434      2.068
REMARK  5 active torsions:
REMARK  status: ('A' for Active; 'I' for Inactive)
REMARK    1  A    between atoms: O1_2  and  N1_3 
REMARK    2  A    between atoms: N1_3  and  S1_5 
REMARK    3  A    between atoms: S1_5  and  N2_8 
REMARK    4  A    between atoms: N2_8  and  C3_10 
REMARK    5  A    between atoms: C3_10  and  C4_11 
ROOT
HETATM    1  N2  UNL     1     -22.790   2.335  -9.177  1.00  0.00    -0.335 N 
ATOM      2  H2  UNL     1     -23.299   2.931  -9.830  1.00  0.00     0.170 HD
ENDROOT
BRANCH   1   3
HETATM    3  S1  UNL     1     -22.406   0.599  -9.615  1.00  0.00     0.121 S 
HETATM    4  C2  UNL     1     -24.001   0.485 -10.639  1.00  0.00     0.162 C 
HETATM    5  O2  UNL     1     -22.279  -0.983  -9.416  1.00  0.00    -0.227 OA
BRANCH   3   6
HETATM    6  N1  UNL     1     -20.804   0.861 -10.178  1.00  0.00    -0.210 N 
ATOM      7  H1  UNL     1     -20.399   1.767  -9.945  1.00  0.00     0.205 HD
BRANCH   6   8
HETATM    8  O1  UNL     1     -20.019   0.042 -10.877  1.00  0.00    -0.277 OA
HETATM    9  C1  UNL     1     -20.243   0.289 -12.243  1.00  0.00     0.238 C 
ENDBRANCH   6   8
ENDBRANCH   3   6
ENDBRANCH   1   3
BRANCH   1  10
HETATM   10  C3  UNL     1     -22.368   2.850  -7.904  1.00  0.00     0.135 C 
BRANCH  10  11
HETATM   11  C4  UNL     1     -23.355   2.629  -6.816  1.00  0.00     0.004 C 
HETATM   12  C5  UNL     1     -24.741   2.797  -7.375  1.00  0.00     0.006 C 
HETATM   13  C6  UNL     1     -25.566   1.536  -7.171  1.00  0.00     0.000 C 
HETATM   14  C7  UNL     1     -25.660   1.138  -5.729  1.00  0.00     0.000 C 
HETATM   15  C8  UNL     1     -24.417   1.465  -4.986  1.00  0.00     0.000 C 
HETATM   16  C9  UNL     1     -23.208   1.462  -5.944  1.00  0.00     0.006 C 
ENDBRANCH  10  11
ENDBRANCH   1  10
TORSDOF 5
ENDMDL
MODEL 5
REMARK VINA RESULT: -6.109546303      2.124      2.480
REMARK  5 active torsions:
REMARK  status: ('A' for Active; 'I' for Inactive)
REMARK    1  A    between atoms: O1_2  and  N1_3 
REMARK    2  A    between atoms: N1_3  and  S1_5 
REMARK    3  A    between atoms: S1_5  and  N2_8 
REMARK    4  A    between atoms: N2_8  and  C3_10 
REMARK    5  A    between atoms: C3_10  and  C4_11 
ROOT
HETATM    1  N2  UNL     1     -23.790   1.946  -8.759  1.00  0.00    -0.335 N 
ATOM      2  H2  UNL     1     -22.849   2.321  -8.634  1.00  0.00     0.170 HD
ENDROOT
BRANCH   1   3
HETATM    3  S1  UNL     1     -24.102   0.623  -9.986  1.00  0.00     0.121 S 
HETATM    4  C2  UNL     1     -22.236   0.426 -10.278  1.00  0.00     0.162 C 
HETATM    5  O2  UNL     1     -24.510  -0.026 -11.390  1.00  0.00    -0.227 OA
BRANCH   3   6
HETATM    6  N1  UNL     1     -25.128  -0.349  -9.010  1.00  0.00    -0.210 N 
ATOM      7  H1  UNL     1     -24.821  -0.482  -8.046  1.00  0.00     0.205 HD
BRANCH   6   8
HETATM    8  O1  UNL     1     -26.269  -0.953  -9.339  1.00  0.00    -0.277 OA
HETATM    9  C1  UNL     1     -27.327  -0.216  -8.779  1.00  0.00     0.238 C 
ENDBRANCH   6   8
ENDBRANCH   3   6
ENDBRANCH   1   3
BRANCH   1  10
HETATM   10  C3  UNL     1     -24.882   2.450  -7.974  1.00  0.00     0.135 C 
BRANCH  10  11
HETATM   11  C4  UNL     1     -24.772   2.129  -6.528  1.00  0.00     0.004 C 
HETATM   12  C5  UNL     1     -26.094   1.601  -6.044  1.00  0.00     0.006 C 
HETATM   13  C6  UNL     1     -25.940   0.207  -5.456  1.00  0.00     0.000 C 
HETATM   14  C7  UNL     1     -24.950   0.163  -4.332  1.00  0.00     0.000 C 
HETATM   15  C8  UNL     1     -23.834   1.120  -4.543  1.00  0.00     0.000 C 
HETATM   16  C9  UNL     1     -23.619   1.360  -6.052  1.00  0.00     0.006 C 
ENDBRANCH  10  11
ENDBRANCH   1  10
TORSDOF 5
ENDMDL
