MODEL 1
REMARK VINA RESULT: -6.184865043      0.000      0.000
REMARK  7 active torsions:
REMARK  status: ('A' for Active; 'I' for Inactive)
REMARK    1  A    between atoms: C3_3  and  C4_4 
REMARK    2  A    between atoms: C4_4  and  C5_5 
REMARK    3  A    between atoms: C5_5  and  N1_6 
REMARK    4  A    between atoms: N1_6  and  C6_9 
REMARK    5  A    between atoms: C6_9  and  C7_10 
REMARK    6  A    between atoms: C7_10  and  N2_11 
REMARK    7  A    between atoms: N3_17  and  C10_18 
ROOT
HETATM    1  C1  UNL     1     -18.419   1.557 -11.503  1.00  0.00     0.096 C 
HETATM    2  C2  UNL     1     -19.308   1.947 -10.765  1.00  0.00    -0.188 C 
HETATM    3  C3  UNL     1     -20.369   2.435  -9.869  1.00  0.00     0.081 C 
ENDROOT
BRANCH   3   4
HETATM    4  C4  UNL     1     -19.771   3.540  -8.987  1.00  0.00     0.039 C 
BRANCH   4   5
HETATM    5  C5  UNL     1     -20.729   3.807  -7.837  1.00  0.00     0.233 C 
BRANCH   5   6
HETATM    6  N1  UNL     1     -21.670   2.713  -7.782  1.00  0.00    -0.073 N 
ATOM      7  H12 UNL     1     -22.305   2.722  -8.581  1.00  0.00     0.277 HD
ATOM      8  H11 UNL     1     -21.217   1.816  -7.957  1.00  0.00     0.277 HD
BRANCH   6   9
HETATM    9  C6  UNL     1     -22.397   2.716  -6.510  1.00  0.00     0.270 C 
BRANCH   9  10
HETATM   10  C7  UNL     1     -23.624   1.874  -6.713  1.00  0.00     0.150 C 
HETATM   11  C8  UNL     1     -24.290   1.621  -5.399  1.00  0.00     0.070 C 
HETATM   12  C9  UNL     1     -25.662   1.034  -5.567  1.00  0.00     0.275 C 
HETATM   13  N3  UNL     1     -25.963   0.601  -6.887  1.00  0.00     0.088 N 
HETATM   14  C12 UNL     1     -25.719   1.600  -7.906  1.00  0.00     0.275 C 
HETATM   15  C13 UNL     1     -24.640   2.571  -7.597  1.00  0.00     0.070 C 
BRANCH  10  16
HETATM   16  N2  UNL     1     -23.237   0.666  -7.418  1.00  0.00    -0.069 N 
ATOM     17  H23 UNL     1     -24.037   0.092  -7.682  1.00  0.00     0.275 HD
ATOM     18  H22 UNL     1     -22.886   0.855  -8.358  1.00  0.00     0.275 HD
ATOM     19  H21 UNL     1     -22.564   0.159  -6.842  1.00  0.00     0.275 HD
ENDBRANCH  10  16
BRANCH  13  20
HETATM   20  C10 UNL     1     -27.372   0.202  -6.919  1.00  0.00     0.268 C 
HETATM   21  C11 UNL     1     -28.104   0.581  -5.645  1.00  0.00     0.037 C 
ENDBRANCH  13  20
ENDBRANCH   9  10
ENDBRANCH   6   9
ENDBRANCH   5   6
ENDBRANCH   4   5
ENDBRANCH   3   4
TORSDOF 7
ENDMDL
MODEL 2
REMARK VINA RESULT: -6.083127078      2.276      7.225
REMARK  7 active torsions:
REMARK  status: ('A' for Active; 'I' for Inactive)
REMARK    1  A    between atoms: C3_3  and  C4_4 
REMARK    2  A    between atoms: C4_4  and  C5_5 
REMARK    3  A    between atoms: C5_5  and  N1_6 
REMARK    4  A    between atoms: N1_6  and  C6_9 
REMARK    5  A    between atoms: C6_9  and  C7_10 
REMARK    6  A    between atoms: C7_10  and  N2_11 
REMARK    7  A    between atoms: N3_17  and  C10_18 
ROOT
HETATM    1  C1  UNL     1     -24.343   1.125  -4.868  1.00  0.00     0.096 C 
HETATM    2  C2  UNL     1     -24.668   1.833  -5.807  1.00  0.00    -0.188 C 
HETATM    3  C3  UNL     1     -25.044   2.678  -6.952  1.00  0.00     0.081 C 
ENDROOT
BRANCH   3   4
HETATM    4  C4  UNL     1     -23.931   2.572  -8.004  1.00  0.00     0.039 C 
BRANCH   4   5
HETATM    5  C5  UNL     1     -24.034   1.213  -8.677  1.00  0.00     0.233 C 
BRANCH   5   6
HETATM    6  N1  UNL     1     -22.696   0.690  -8.824  1.00  0.00    -0.073 N 
ATOM      7  H12 UNL     1     -21.990   1.391  -8.598  1.00  0.00     0.277 HD
ATOM      8  H11 UNL     1     -22.475   0.010  -8.097  1.00  0.00     0.277 HD
BRANCH   6   9
HETATM    9  C6  UNL     1     -22.500   0.133 -10.166  1.00  0.00     0.270 C 
BRANCH   9  10
HETATM   10  C7  UNL     1     -21.162   0.621 -10.643  1.00  0.00     0.150 C 
HETATM   11  C8  UNL     1     -21.214   0.888 -12.112  1.00  0.00     0.070 C 
HETATM   12  C9  UNL     1     -20.005   1.641 -12.590  1.00  0.00     0.275 C 
HETATM   13  N3  UNL     1     -18.951   1.731 -11.641  1.00  0.00     0.088 N 
HETATM   14  C12 UNL     1     -19.365   2.223 -10.344  1.00  0.00     0.275 C 
HETATM   15  C13 UNL     1     -20.769   1.922  -9.970  1.00  0.00     0.070 C 
BRANCH  10  16
HETATM   16  N2  UNL     1     -20.157  -0.353 -10.257  1.00  0.00    -0.069 N 
ATOM     17  H23 UNL     1     -19.474   0.026  -9.602  1.00  0.00     0.275 HD
ATOM     18  H22 UNL     1     -20.532  -1.087  -9.655  1.00  0.00     0.275 HD
ATOM     19  H21 UNL     1     -19.726  -0.722 -11.104  1.00  0.00     0.275 HD
ENDBRANCH  10  16
BRANCH  13  20
HETATM   20  C10 UNL     1     -17.922   2.616 -12.194  1.00  0.00     0.268 C 
HETATM   21  C11 UNL     1     -18.274   3.103 -13.587  1.00  0.00     0.037 C 
ENDBRANCH  13  20
ENDBRANCH   9  10
ENDBRANCH   6   9
ENDBRANCH   5   6
ENDBRANCH   4   5
ENDBRANCH   3   4
TORSDOF 7
ENDMDL
MODEL 3
REMARK VINA RESULT: -6.057921126      2.377      6.953
REMARK  7 active torsions:
REMARK  status: ('A' for Active; 'I' for Inactive)
REMARK    1  A    between atoms: C3_3  and  C4_4 
REMARK    2  A    between atoms: C4_4  and  C5_5 
REMARK    3  A    between atoms: C5_5  and  N1_6 
REMARK    4  A    between atoms: N1_6  and  C6_9 
REMARK    5  A    between atoms: C6_9  and  C7_10 
REMARK    6  A    between atoms: C7_10  and  N2_11 
REMARK    7  A    between atoms: N3_17  and  C10_18 
ROOT
HETATM    1  C1  UNL     1     -22.112   3.059  -6.836  1.00  0.00     0.096 C 
HETATM    2  C2  UNL     1     -23.219   2.709  -7.210  1.00  0.00    -0.188 C 
HETATM    3  C3  UNL     1     -24.546   2.269  -7.672  1.00  0.00     0.081 C 
ENDROOT
BRANCH   3   4
HETATM    4  C4  UNL     1     -24.340   1.253  -8.804  1.00  0.00     0.039 C 
BRANCH   4   5
HETATM    5  C5  UNL     1     -23.763  -0.020  -8.207  1.00  0.00     0.233 C 
BRANCH   5   6
HETATM    6  N1  UNL     1     -22.575  -0.360  -8.954  1.00  0.00    -0.073 N 
ATOM      7  H12 UNL     1     -21.729  -0.032  -8.488  1.00  0.00     0.277 HD
ATOM      8  H11 UNL     1     -22.386  -1.362  -8.928  1.00  0.00     0.277 HD
BRANCH   6   9
HETATM    9  C6  UNL     1     -22.665   0.138 -10.330  1.00  0.00     0.270 C 
BRANCH   9  10
HETATM   10  C7  UNL     1     -21.286   0.589 -10.717  1.00  0.00     0.150 C 
HETATM   11  C8  UNL     1     -21.223   0.822 -12.191  1.00  0.00     0.070 C 
HETATM   12  C9  UNL     1     -19.966   1.541 -12.594  1.00  0.00     0.275 C 
HETATM   13  N3  UNL     1     -18.984   1.634 -11.571  1.00  0.00     0.088 N 
HETATM   14  C12 UNL     1     -19.483   2.164 -10.320  1.00  0.00     0.275 C 
HETATM   15  C13 UNL     1     -20.917   1.898 -10.045  1.00  0.00     0.070 C 
BRANCH  10  16
HETATM   16  N2  UNL     1     -20.333  -0.394 -10.235  1.00  0.00    -0.069 N 
ATOM     17  H23 UNL     1     -20.152  -0.308  -9.235  1.00  0.00     0.275 HD
ATOM     18  H22 UNL     1     -20.715  -1.340 -10.226  1.00  0.00     0.275 HD
ATOM     19  H21 UNL     1     -19.484  -0.319 -10.795  1.00  0.00     0.275 HD
ENDBRANCH  10  16
BRANCH  13  20
HETATM   20  C10 UNL     1     -17.899   2.485 -12.065  1.00  0.00     0.268 C 
HETATM   21  C11 UNL     1     -18.216   3.086 -13.422  1.00  0.00     0.037 C 
ENDBRANCH  13  20
ENDBRANCH   9  10
ENDBRANCH   6   9
ENDBRANCH   5   6
ENDBRANCH   4   5
ENDBRANCH   3   4
TORSDOF 7
ENDMDL
MODEL 4
REMARK VINA RESULT: -5.916576483      2.188      6.675
REMARK  7 active torsions:
REMARK  status: ('A' for Active; 'I' for Inactive)
REMARK    1  A    between atoms: C3_3  and  C4_4 
REMARK    2  A    between atoms: C4_4  and  C5_5 
REMARK    3  A    between atoms: C5_5  and  N1_6 
REMARK    4  A    between atoms: N1_6  and  C6_9 
REMARK    5  A    between atoms: C6_9  and  C7_10 
REMARK    6  A    between atoms: C7_10  and  N2_11 
REMARK    7  A    between atoms: N3_17  and  C10_18 
ROOT
HETATM    1  C1  UNL     1     -24.741   0.331  -4.733  1.00  0.00     0.096 C 
HETATM    2  C2  UNL     1     -24.238   1.217  -5.404  1.00  0.00    -0.188 C 
HETATM    3  C3  UNL     1     -23.651   2.293  -6.219  1.00  0.00     0.081 C 
ENDROOT
BRANCH   3   4
HETATM    4  C4  UNL     1     -24.766   2.890  -7.088  1.00  0.00     0.039 C 
BRANCH   4   5
HETATM    5  C5  UNL     1     -25.260   1.814  -8.042  1.00  0.00     0.233 C 
BRANCH   5   6
HETATM    6  N1  UNL     1     -24.490   1.915  -9.259  1.00  0.00    -0.073 N 
ATOM      7  H12 UNL     1     -25.059   2.243 -10.040  1.00  0.00     0.277 HD
ATOM      8  H11 UNL     1     -23.823   2.685  -9.221  1.00  0.00     0.277 HD
BRANCH   6   9
HETATM    9  C6  UNL     1     -23.831   0.641  -9.564  1.00  0.00     0.270 C 
BRANCH   9  10
HETATM   10  C7  UNL     1     -22.548   0.978 -10.268  1.00  0.00     0.150 C 
HETATM   11  C8  UNL     1     -21.808   2.026  -9.502  1.00  0.00     0.070 C 
HETATM   12  C9  UNL     1     -20.400   2.196  -9.996  1.00  0.00     0.275 C 
HETATM   13  N3  UNL     1     -20.121   1.537 -11.224  1.00  0.00     0.088 N 
HETATM   14  C12 UNL     1     -20.490   0.138 -11.241  1.00  0.00     0.275 C 
HETATM   15  C13 UNL     1     -21.632  -0.227 -10.367  1.00  0.00     0.070 C 
BRANCH  10  16
HETATM   16  N2  UNL     1     -22.863   1.359 -11.633  1.00  0.00    -0.069 N 
ATOM     17  H23 UNL     1     -22.347   2.183 -11.939  1.00  0.00     0.275 HD
ATOM     18  H22 UNL     1     -22.492   0.701 -12.320  1.00  0.00     0.275 HD
ATOM     19  H21 UNL     1     -23.873   1.478 -11.708  1.00  0.00     0.275 HD
ENDBRANCH  10  16
BRANCH  13  20
HETATM   20  C10 UNL     1     -18.685   1.669 -11.489  1.00  0.00     0.268 C 
HETATM   21  C11 UNL     1     -18.380   2.815 -12.435  1.00  0.00     0.037 C 
ENDBRANCH  13  20
ENDBRANCH   9  10
ENDBRANCH   6   9
ENDBRANCH   5   6
ENDBRANCH   4   5
ENDBRANCH   3   4
TORSDOF 7
ENDMDL
MODEL 5
REMARK VINA RESULT: -5.889909742      0.898      1.084
REMARK  7 active torsions:
REMARK  status: ('A' for Active; 'I' for Inactive)
REMARK    1  A    between atoms: C3_3  and  C4_4 
REMARK    2  A    between atoms: C4_4  and  C5_5 
REMARK    3  A    between atoms: C5_5  and  N1_6 
REMARK    4  A    between atoms: N1_6  and  C6_9 
REMARK    5  A    between atoms: C6_9  and  C7_10 
REMARK    6  A    between atoms: C7_10  and  N2_11 
REMARK    7  A    between atoms: N3_17  and  C10_18 
ROOT
HETATM    1  C1  UNL     1     -21.352  -0.043 -10.537  1.00  0.00     0.096 C 
HETATM    2  C2  UNL     1     -20.678   0.963 -10.383  1.00  0.00    -0.188 C 
HETATM    3  C3  UNL     1     -19.884   2.186 -10.188  1.00  0.00     0.081 C 
ENDROOT
BRANCH   3   4
HETATM    4  C4  UNL     1     -20.850   3.326  -9.835  1.00  0.00     0.039 C 
BRANCH   4   5
HETATM    5  C5  UNL     1     -20.854   3.500  -8.325  1.00  0.00     0.233 C 
BRANCH   5   6
HETATM    6  N1  UNL     1     -22.230   3.515  -7.885  1.00  0.00    -0.073 N 
ATOM      7  H12 UNL     1     -22.590   4.466  -7.804  1.00  0.00     0.277 HD
ATOM      8  H11 UNL     1     -22.861   3.173  -8.610  1.00  0.00     0.277 HD
BRANCH   6   9
HETATM    9  C6  UNL     1     -22.384   2.766  -6.634  1.00  0.00     0.270 C 
BRANCH   9  10
HETATM   10  C7  UNL     1     -23.604   1.906  -6.795  1.00  0.00     0.150 C 
HETATM   11  C8  UNL     1     -24.269   1.715  -5.470  1.00  0.00     0.070 C 
HETATM   12  C9  UNL     1     -25.637   1.110  -5.609  1.00  0.00     0.275 C 
HETATM   13  N3  UNL     1     -25.933   0.608  -6.906  1.00  0.00     0.088 N 
HETATM   14  C12 UNL     1     -25.696   1.555  -7.974  1.00  0.00     0.275 C 
HETATM   15  C13 UNL     1     -24.625   2.549  -7.714  1.00  0.00     0.070 C 
BRANCH  10  16
HETATM   16  N2  UNL     1     -23.207   0.666  -7.437  1.00  0.00    -0.069 N 
ATOM     17  H23 UNL     1     -22.369   0.260  -7.023  1.00  0.00     0.275 HD
ATOM     18  H22 UNL     1     -23.848  -0.103  -7.237  1.00  0.00     0.275 HD
ATOM     19  H21 UNL     1     -23.104   0.841  -8.437  1.00  0.00     0.275 HD
ENDBRANCH  10  16
BRANCH  13  20
HETATM   20  C10 UNL     1     -27.340   0.197  -6.918  1.00  0.00     0.268 C 
HETATM   21  C11 UNL     1     -28.067   0.605  -5.650  1.00  0.00     0.037 C 
ENDBRANCH  13  20
ENDBRANCH   9  10
ENDBRANCH   6   9
ENDBRANCH   5   6
ENDBRANCH   4   5
ENDBRANCH   3   4
TORSDOF 7
ENDMDL
