MODEL 1
REMARK VINA RESULT: -5.332541960      0.000      0.000
REMARK  7 active torsions:
REMARK  status: ('A' for Active; 'I' for Inactive)
REMARK    1  A    between atoms: O1_2  and  C2_3 
REMARK    2  A    between atoms: C2_3  and  C3_4 
REMARK    3  A    between atoms: C3_4  and  O2_5 
REMARK    4  A    between atoms: O2_5  and  C4_6 
REMARK    5  A    between atoms: C4_6  and  C5_7 
REMARK    6  A    between atoms: C5_7  and  N1_8 
REMARK    7  A    between atoms: N1_8  and  C6_10 
ROOT
HETATM    1  C6  UNL     1     -24.509   1.043  -5.754  1.00  0.00     0.678 A 
HETATM    2  N2  UNL     1     -24.671   0.083  -4.827  1.00  0.00    -0.194 N 
ATOM      3  H2  UNL     1     -23.922  -0.297  -4.248  1.00  0.00     0.184 HD
HETATM    4  C7  UNL     1     -25.958  -0.307  -4.768  1.00  0.00     0.045 A 
HETATM    5  C8  UNL     1     -26.579  -1.341  -3.885  1.00  0.00     0.071 C 
HETATM    6  C9  UNL     1     -26.614   0.462  -5.712  1.00  0.00     0.045 A 
HETATM    7  C10 UNL     1     -28.062   0.399  -6.026  1.00  0.00     0.071 C 
HETATM    8  N3  UNL     1     -25.708   1.282  -6.306  1.00  0.00    -0.194 N 
ATOM      9  H3  UNL     1     -25.905   1.961  -7.042  1.00  0.00     0.184 HD
ENDROOT
BRANCH   1  10
HETATM   10  N1  UNL     1     -23.437   1.672  -6.110  1.00  0.00    -0.224 N 
ATOM     11  H1  UNL     1     -22.538   1.363  -5.740  1.00  0.00     0.177 HD
BRANCH  10  12
HETATM   12  C5  UNL     1     -23.469   2.802  -7.017  1.00  0.00     0.164 C 
BRANCH  12  13
HETATM   13  C4  UNL     1     -22.977   2.286  -8.375  1.00  0.00     0.188 C 
BRANCH  13  14
HETATM   14  O2  UNL     1     -24.112   1.794  -9.060  1.00  0.00    -0.387 OA
BRANCH  14  15
HETATM   15  C3  UNL     1     -23.620   0.781  -9.899  1.00  0.00     0.193 C 
BRANCH  15  16
HETATM   16  C2  UNL     1     -23.243  -0.400  -9.028  1.00  0.00     0.193 C 
BRANCH  16  17
HETATM   17  O1  UNL     1     -22.151  -1.079  -9.503  1.00  0.00    -0.394 OA
HETATM   18  C1  UNL     1     -21.426  -0.403 -10.456  1.00  0.00     0.201 C 
ENDBRANCH  16  17
ENDBRANCH  15  16
ENDBRANCH  14  15
ENDBRANCH  13  14
ENDBRANCH  12  13
ENDBRANCH  10  12
ENDBRANCH   1  10
TORSDOF 7
ENDMDL
MODEL 2
REMARK VINA RESULT: -5.281201317      2.543      3.642
REMARK  7 active torsions:
REMARK  status: ('A' for Active; 'I' for Inactive)
REMARK    1  A    between atoms: O1_2  and  C2_3 
REMARK    2  A    between atoms: C2_3  and  C3_4 
REMARK    3  A    between atoms: C3_4  and  O2_5 
REMARK    4  A    between atoms: O2_5  and  C4_6 
REMARK    5  A    between atoms: C4_6  and  C5_7 
REMARK    6  A    between atoms: C5_7  and  N1_8 
REMARK    7  A    between atoms: N1_8  and  C6_10 
ROOT
HETATM    1  C6  UNL     1     -21.972   3.155  -7.652  1.00  0.00     0.678 A 
HETATM    2  N2  UNL     1     -22.219   2.598  -6.454  1.00  0.00    -0.194 N 
ATOM      3  H2  UNL     1     -21.548   2.548  -5.688  1.00  0.00     0.184 HD
HETATM    4  C7  UNL     1     -23.475   2.115  -6.407  1.00  0.00     0.045 A 
HETATM    5  C8  UNL     1     -24.163   1.420  -5.275  1.00  0.00     0.071 C 
HETATM    6  C9  UNL     1     -24.020   2.396  -7.645  1.00  0.00     0.045 A 
HETATM    7  C10 UNL     1     -25.395   2.058  -8.084  1.00  0.00     0.071 C 
HETATM    8  N3  UNL     1     -23.082   3.034  -8.395  1.00  0.00    -0.194 N 
ATOM      9  H3  UNL     1     -23.202   3.362  -9.353  1.00  0.00     0.184 HD
ENDROOT
BRANCH   1  10
HETATM   10  N1  UNL     1     -20.896   3.723  -8.090  1.00  0.00    -0.224 N 
ATOM     11  H1  UNL     1     -20.559   4.566  -7.625  1.00  0.00     0.177 HD
BRANCH  10  12
HETATM   12  C5  UNL     1     -20.152   3.202  -9.219  1.00  0.00     0.164 C 
BRANCH  12  13
HETATM   13  C4  UNL     1     -20.397   4.166 -10.387  1.00  0.00     0.188 C 
BRANCH  13  14
HETATM   14  O2  UNL     1     -21.516   3.672 -11.095  1.00  0.00    -0.387 OA
BRANCH  14  15
HETATM   15  C3  UNL     1     -21.032   2.570 -11.819  1.00  0.00     0.193 C 
BRANCH  15  16
HETATM   16  C2  UNL     1     -22.191   1.625 -12.056  1.00  0.00     0.193 C 
BRANCH  16  17
HETATM   17  O1  UNL     1     -22.865   1.314 -10.903  1.00  0.00    -0.394 OA
HETATM   18  C1  UNL     1     -22.425   0.174 -10.272  1.00  0.00     0.201 C 
ENDBRANCH  16  17
ENDBRANCH  15  16
ENDBRANCH  14  15
ENDBRANCH  13  14
ENDBRANCH  12  13
ENDBRANCH  10  12
ENDBRANCH   1  10
TORSDOF 7
ENDMDL
MODEL 3
REMARK VINA RESULT: -5.276110457      3.399      6.894
REMARK  7 active torsions:
REMARK  status: ('A' for Active; 'I' for Inactive)
REMARK    1  A    between atoms: O1_2  and  C2_3 
REMARK    2  A    between atoms: C2_3  and  C3_4 
REMARK    3  A    between atoms: C3_4  and  O2_5 
REMARK    4  A    between atoms: O2_5  and  C4_6 
REMARK    5  A    between atoms: C4_6  and  C5_7 
REMARK    6  A    between atoms: C5_7  and  N1_8 
REMARK    7  A    between atoms: N1_8  and  C6_10 
ROOT
HETATM    1  C6  UNL     1     -21.150   0.601 -10.531  1.00  0.00     0.678 A 
HETATM    2  N2  UNL     1     -19.877   0.994 -10.350  1.00  0.00    -0.194 N 
ATOM      3  H2  UNL     1     -19.378   0.953  -9.462  1.00  0.00     0.184 HD
HETATM    4  C7  UNL     1     -19.354   1.451 -11.504  1.00  0.00     0.045 A 
HETATM    5  C8  UNL     1     -17.980   1.982 -11.757  1.00  0.00     0.071 C 
HETATM    6  C9  UNL     1     -20.367   1.325 -12.436  1.00  0.00     0.045 A 
HETATM    7  C10 UNL     1     -20.276   1.700 -13.868  1.00  0.00     0.071 C 
HETATM    8  N3  UNL     1     -21.460   0.804 -11.820  1.00  0.00    -0.194 N 
ATOM      9  H3  UNL     1     -22.358   0.602 -12.261  1.00  0.00     0.184 HD
ENDROOT
BRANCH   1  10
HETATM   10  N1  UNL     1     -21.989   0.109  -9.679  1.00  0.00    -0.224 N 
ATOM     11  H1  UNL     1     -21.850  -0.844  -9.343  1.00  0.00     0.177 HD
BRANCH  10  12
HETATM   12  C5  UNL     1     -23.122   0.866  -9.185  1.00  0.00     0.164 C 
BRANCH  12  13
HETATM   13  C4  UNL     1     -24.358   0.334  -9.922  1.00  0.00     0.188 C 
BRANCH  13  14
HETATM   14  O2  UNL     1     -25.293   1.395  -9.967  1.00  0.00    -0.387 OA
BRANCH  14  15
HETATM   15  C3  UNL     1     -25.792   1.495  -8.658  1.00  0.00     0.193 C 
BRANCH  15  16
HETATM   16  C2  UNL     1     -26.745   0.340  -8.434  1.00  0.00     0.193 C 
BRANCH  16  17
HETATM   17  O1  UNL     1     -26.823  -0.034  -7.117  1.00  0.00    -0.394 OA
HETATM   18  C1  UNL     1     -26.277   0.866  -6.233  1.00  0.00     0.201 C 
ENDBRANCH  16  17
ENDBRANCH  15  16
ENDBRANCH  14  15
ENDBRANCH  13  14
ENDBRANCH  12  13
ENDBRANCH  10  12
ENDBRANCH   1  10
TORSDOF 7
ENDMDL
MODEL 4
REMARK VINA RESULT: -5.274544827      0.084      1.482
REMARK  7 active torsions:
REMARK  status: ('A' for Active; 'I' for Inactive)
REMARK    1  A    between atoms: O1_2  and  C2_3 
REMARK    2  A    between atoms: C2_3  and  C3_4 
REMARK    3  A    between atoms: C3_4  and  O2_5 
REMARK    4  A    between atoms: O2_5  and  C4_6 
REMARK    5  A    between atoms: C4_6  and  C5_7 
REMARK    6  A    between atoms: C5_7  and  N1_8 
REMARK    7  A    between atoms: N1_8  and  C6_10 
ROOT
HETATM    1  C6  UNL     1     -24.542   1.028  -5.823  1.00  0.00     0.678 A 
HETATM    2  N2  UNL     1     -25.764   1.255  -6.334  1.00  0.00    -0.194 N 
ATOM      3  H2  UNL     1     -25.969   1.929  -7.071  1.00  0.00     0.184 HD
HETATM    4  C7  UNL     1     -26.680   0.469  -5.738  1.00  0.00     0.045 A 
HETATM    5  C8  UNL     1     -28.151   0.392  -5.996  1.00  0.00     0.071 C 
HETATM    6  C9  UNL     1     -25.972  -0.278  -4.814  1.00  0.00     0.045 A 
HETATM    7  C10 UNL     1     -26.546  -1.297  -3.902  1.00  0.00     0.071 C 
HETATM    8  N3  UNL     1     -24.663   0.080  -4.881  1.00  0.00    -0.194 N 
ATOM      9  H3  UNL     1     -23.907  -0.304  -4.315  1.00  0.00     0.184 HD
ENDROOT
BRANCH   1  10
HETATM   10  N1  UNL     1     -23.409   1.574  -6.123  1.00  0.00    -0.224 N 
ATOM     11  H1  UNL     1     -22.550   1.162  -5.758  1.00  0.00     0.177 HD
BRANCH  10  12
HETATM   12  C5  UNL     1     -23.317   2.753  -6.961  1.00  0.00     0.164 C 
BRANCH  12  13
HETATM   13  C4  UNL     1     -22.870   2.271  -8.347  1.00  0.00     0.188 C 
BRANCH  13  14
HETATM   14  O2  UNL     1     -24.031   1.816  -9.014  1.00  0.00    -0.387 OA
BRANCH  14  15
HETATM   15  C3  UNL     1     -23.580   0.811  -9.885  1.00  0.00     0.193 C 
BRANCH  15  16
HETATM   16  C2  UNL     1     -23.204  -0.394  -9.048  1.00  0.00     0.193 C 
BRANCH  16  17
HETATM   17  O1  UNL     1     -22.112  -1.060  -9.542  1.00  0.00    -0.394 OA
HETATM   18  C1  UNL     1     -21.402  -0.370 -10.495  1.00  0.00     0.201 C 
ENDBRANCH  16  17
ENDBRANCH  15  16
ENDBRANCH  14  15
ENDBRANCH  13  14
ENDBRANCH  12  13
ENDBRANCH  10  12
ENDBRANCH   1  10
TORSDOF 7
ENDMDL
MODEL 5
REMARK VINA RESULT: -5.260107132      2.325      3.106
REMARK  7 active torsions:
REMARK  status: ('A' for Active; 'I' for Inactive)
REMARK    1  A    between atoms: O1_2  and  C2_3 
REMARK    2  A    between atoms: C2_3  and  C3_4 
REMARK    3  A    between atoms: C3_4  and  O2_5 
REMARK    4  A    between atoms: O2_5  and  C4_6 
REMARK    5  A    between atoms: C4_6  and  C5_7 
REMARK    6  A    between atoms: C5_7  and  N1_8 
REMARK    7  A    between atoms: N1_8  and  C6_10 
ROOT
HETATM    1  C6  UNL     1     -22.150   3.075  -7.639  1.00  0.00     0.678 A 
HETATM    2  N2  UNL     1     -22.186   2.359  -6.501  1.00  0.00    -0.194 N 
ATOM      3  H2  UNL     1     -21.365   2.088  -5.960  1.00  0.00     0.184 HD
HETATM    4  C7  UNL     1     -23.456   2.050  -6.176  1.00  0.00     0.045 A 
HETATM    5  C8  UNL     1     -23.953   1.272  -5.000  1.00  0.00     0.071 C 
HETATM    6  C9  UNL     1     -24.232   2.612  -7.172  1.00  0.00     0.045 A 
HETATM    7  C10 UNL     1     -25.711   2.544  -7.259  1.00  0.00     0.071 C 
HETATM    8  N3  UNL     1     -23.413   3.235  -8.060  1.00  0.00    -0.194 N 
ATOM      9  H3  UNL     1     -23.708   3.735  -8.898  1.00  0.00     0.184 HD
ENDROOT
BRANCH   1  10
HETATM   10  N1  UNL     1     -21.134   3.558  -8.276  1.00  0.00    -0.224 N 
ATOM     11  H1  UNL     1     -20.362   3.957  -7.743  1.00  0.00     0.177 HD
BRANCH  10  12
HETATM   12  C5  UNL     1     -21.055   3.551  -9.723  1.00  0.00     0.164 C 
BRANCH  12  13
HETATM   13  C4  UNL     1     -21.183   2.087 -10.161  1.00  0.00     0.188 C 
BRANCH  13  14
HETATM   14  O2  UNL     1     -22.344   2.002 -10.963  1.00  0.00    -0.387 OA
BRANCH  14  15
HETATM   15  C3  UNL     1     -22.961   0.798 -10.584  1.00  0.00     0.193 C 
BRANCH  15  16
HETATM   16  C2  UNL     1     -21.869  -0.190 -10.230  1.00  0.00     0.193 C 
BRANCH  16  17
HETATM   17  O1  UNL     1     -22.284  -1.134  -9.325  1.00  0.00    -0.394 OA
HETATM   18  C1  UNL     1     -23.358  -0.755  -8.554  1.00  0.00     0.201 C 
ENDBRANCH  16  17
ENDBRANCH  15  16
ENDBRANCH  14  15
ENDBRANCH  13  14
ENDBRANCH  12  13
ENDBRANCH  10  12
ENDBRANCH   1  10
TORSDOF 7
ENDMDL
