MODEL 1
REMARK VINA RESULT: -6.226009804      0.000      0.000
REMARK  6 active torsions:
REMARK  status: ('A' for Active; 'I' for Inactive)
REMARK    1  A    between atoms: N1_2  and  C3_4 
REMARK    2  A    between atoms: C3_4  and  C4_5 
REMARK    3  A    between atoms: C4_5  and  N2_6 
REMARK    4  A    between atoms: N2_6  and  C5_8 
REMARK    5  A    between atoms: C5_8  and  C6_9 
REMARK    6  A    between atoms: C6_9  and  C7_10 
ROOT
HETATM    1  C7  UNL     1     -24.242   2.726  -6.556  1.00  0.00     0.030 C 
HETATM    2  C8  UNL     1     -23.432   1.665  -5.844  1.00  0.00     0.065 C 
HETATM    3  N3  UNL     1     -24.151   0.811  -5.004  1.00  0.00    -0.382 N 
ATOM      4  H3  UNL     1     -23.772   0.535  -4.098  1.00  0.00     0.164 HD
HETATM    5  C9  UNL     1     -25.403   0.337  -5.427  1.00  0.00     0.065 C 
HETATM    6  C10 UNL     1     -26.227   1.214  -6.266  1.00  0.00     0.029 C 
HETATM    7  C11 UNL     1     -26.609   0.516  -7.569  1.00  0.00     0.010 C 
HETATM    8  C12 UNL     1     -25.587   1.409  -8.300  1.00  0.00     0.007 C 
HETATM    9  C13 UNL     1     -25.543   2.262  -7.079  1.00  0.00     0.003 C 
ENDROOT
BRANCH   1  10
HETATM   10  C6  UNL     1     -23.365   3.226  -7.684  1.00  0.00     0.029 C 
BRANCH  10  11
HETATM   11  C5  UNL     1     -21.923   3.108  -7.294  1.00  0.00     0.114 C 
BRANCH  11  12
HETATM   12  N2  UNL     1     -21.042   3.080  -8.423  1.00  0.00    -0.420 N 
ATOM     13  H2  UNL     1     -20.134   3.543  -8.408  1.00  0.00     0.153 HD
BRANCH  12  14
HETATM   14  C4  UNL     1     -21.503   2.372  -9.564  1.00  0.00     0.133 C 
BRANCH  14  15
HETATM   15  C3  UNL     1     -20.317   1.756 -10.335  1.00  0.00     0.135 C 
BRANCH  15  16
HETATM   16  N1  UNL     1     -20.663   0.553 -10.944  1.00  0.00    -0.419 N 
HETATM   17  C1  UNL     1     -21.692  -0.191 -10.363  1.00  0.00     0.142 C 
HETATM   18  C2  UNL     1     -20.291   0.234 -12.251  1.00  0.00     0.142 C 
ENDBRANCH  15  16
ENDBRANCH  14  15
ENDBRANCH  12  14
ENDBRANCH  11  12
ENDBRANCH  10  11
ENDBRANCH   1  10
TORSDOF 6
ENDMDL
MODEL 2
REMARK VINA RESULT: -6.045298707      1.431      2.261
REMARK  6 active torsions:
REMARK  status: ('A' for Active; 'I' for Inactive)
REMARK    1  A    between atoms: N1_2  and  C3_4 
REMARK    2  A    between atoms: C3_4  and  C4_5 
REMARK    3  A    between atoms: C4_5  and  N2_6 
REMARK    4  A    between atoms: N2_6  and  C5_8 
REMARK    5  A    between atoms: C5_8  and  C6_9 
REMARK    6  A    between atoms: C6_9  and  C7_10 
ROOT
HETATM    1  C7  UNL     1     -24.964   0.987  -5.414  1.00  0.00     0.030 C 
HETATM    2  C8  UNL     1     -24.763  -0.355  -4.744  1.00  0.00     0.065 C 
HETATM    3  N3  UNL     1     -25.866  -0.862  -4.053  1.00  0.00    -0.382 N 
ATOM      4  H3  UNL     1     -25.744  -1.320  -3.149  1.00  0.00     0.164 HD
HETATM    5  C9  UNL     1     -27.143  -0.731  -4.620  1.00  0.00     0.065 C 
HETATM    6  C10 UNL     1     -27.419   0.458  -5.435  1.00  0.00     0.029 C 
HETATM    7  C11 UNL     1     -27.907   0.060  -6.826  1.00  0.00     0.010 C 
HETATM    8  C12 UNL     1     -26.528   0.466  -7.381  1.00  0.00     0.007 C 
HETATM    9  C13 UNL     1     -26.270   1.153  -6.084  1.00  0.00     0.003 C 
ENDROOT
BRANCH   1  10
HETATM   10  C6  UNL     1     -23.834   1.122  -6.413  1.00  0.00     0.029 C 
BRANCH  10  11
HETATM   11  C5  UNL     1     -23.439   2.562  -6.538  1.00  0.00     0.114 C 
BRANCH  11  12
HETATM   12  N2  UNL     1     -22.029   2.737  -6.723  1.00  0.00    -0.420 N 
ATOM     13  H2  UNL     1     -21.350   2.368  -6.057  1.00  0.00     0.153 HD
BRANCH  12  14
HETATM   14  C4  UNL     1     -21.630   3.451  -7.883  1.00  0.00     0.133 C 
BRANCH  14  15
HETATM   15  C3  UNL     1     -21.749   2.559  -9.136  1.00  0.00     0.135 C 
BRANCH  15  16
HETATM   16  N1  UNL     1     -20.523   2.397  -9.776  1.00  0.00    -0.419 N 
HETATM   17  C1  UNL     1     -19.470   3.218  -9.368  1.00  0.00     0.142 C 
HETATM   18  C2  UNL     1     -20.208   1.263 -10.527  1.00  0.00     0.142 C 
ENDBRANCH  15  16
ENDBRANCH  14  15
ENDBRANCH  12  14
ENDBRANCH  11  12
ENDBRANCH  10  11
ENDBRANCH   1  10
TORSDOF 6
ENDMDL
MODEL 3
REMARK VINA RESULT: -5.961957608      1.534      5.681
REMARK  6 active torsions:
REMARK  status: ('A' for Active; 'I' for Inactive)
REMARK    1  A    between atoms: N1_2  and  C3_4 
REMARK    2  A    between atoms: C3_4  and  C4_5 
REMARK    3  A    between atoms: C4_5  and  N2_6 
REMARK    4  A    between atoms: N2_6  and  C5_8 
REMARK    5  A    between atoms: C5_8  and  C6_9 
REMARK    6  A    between atoms: C6_9  and  C7_10 
ROOT
HETATM    1  C7  UNL     1     -23.305   2.731  -8.054  1.00  0.00     0.030 C 
HETATM    2  C8  UNL     1     -23.036   1.290  -8.428  1.00  0.00     0.065 C 
HETATM    3  N3  UNL     1     -22.357   1.089  -9.632  1.00  0.00    -0.382 N 
ATOM      4  H3  UNL     1     -22.634   0.338 -10.264  1.00  0.00     0.164 HD
HETATM    5  C9  UNL     1     -21.285   1.937  -9.957  1.00  0.00     0.065 C 
HETATM    6  C10 UNL     1     -21.348   3.333  -9.509  1.00  0.00     0.029 C 
HETATM    7  C11 UNL     1     -20.113   3.693  -8.686  1.00  0.00     0.010 C 
HETATM    8  C12 UNL     1     -20.992   3.644  -7.421  1.00  0.00     0.007 C 
HETATM    9  C13 UNL     1     -22.184   3.655  -8.315  1.00  0.00     0.003 C 
ENDROOT
BRANCH   1  10
HETATM   10  C6  UNL     1     -23.648   2.717  -6.579  1.00  0.00     0.029 C 
BRANCH  10  11
HETATM   11  C5  UNL     1     -23.513   1.324  -6.042  1.00  0.00     0.114 C 
BRANCH  11  12
HETATM   12  N2  UNL     1     -24.436   1.046  -4.983  1.00  0.00    -0.420 N 
ATOM     13  H2  UNL     1     -24.321   1.443  -4.051  1.00  0.00     0.153 HD
BRANCH  12  14
HETATM   14  C4  UNL     1     -25.520   0.187  -5.302  1.00  0.00     0.133 C 
BRANCH  14  15
HETATM   15  C3  UNL     1     -26.690   0.991  -5.905  1.00  0.00     0.135 C 
BRANCH  15  16
HETATM   16  N1  UNL     1     -27.208   0.380  -7.044  1.00  0.00    -0.419 N 
HETATM   17  C1  UNL     1     -28.569   0.070  -7.046  1.00  0.00     0.142 C 
HETATM   18  C2  UNL     1     -26.540   0.381  -8.270  1.00  0.00     0.142 C 
ENDBRANCH  15  16
ENDBRANCH  14  15
ENDBRANCH  12  14
ENDBRANCH  11  12
ENDBRANCH  10  11
ENDBRANCH   1  10
TORSDOF 6
ENDMDL
MODEL 4
REMARK VINA RESULT: -5.891009089      1.636      2.594
REMARK  6 active torsions:
REMARK  status: ('A' for Active; 'I' for Inactive)
REMARK    1  A    between atoms: N1_2  and  C3_4 
REMARK    2  A    between atoms: C3_4  and  C4_5 
REMARK    3  A    between atoms: C4_5  and  N2_6 
REMARK    4  A    between atoms: N2_6  and  C5_8 
REMARK    5  A    between atoms: C5_8  and  C6_9 
REMARK    6  A    between atoms: C6_9  and  C7_10 
ROOT
HETATM    1  C7  UNL     1     -24.700   1.367  -7.845  1.00  0.00     0.030 C 
HETATM    2  C8  UNL     1     -23.745   0.220  -7.594  1.00  0.00     0.065 C 
HETATM    3  N3  UNL     1     -23.452  -0.048  -6.255  1.00  0.00    -0.382 N 
ATOM      4  H3  UNL     1     -22.500  -0.278  -5.969  1.00  0.00     0.164 HD
HETATM    5  C9  UNL     1     -24.487   0.005  -5.309  1.00  0.00     0.065 C 
HETATM    6  C10 UNL     1     -25.570   0.972  -5.522  1.00  0.00     0.029 C 
HETATM    7  C11 UNL     1     -26.927   0.272  -5.530  1.00  0.00     0.010 C 
HETATM    8  C12 UNL     1     -26.969   0.462  -7.060  1.00  0.00     0.007 C 
HETATM    9  C13 UNL     1     -25.845   1.429  -6.915  1.00  0.00     0.003 C 
ENDROOT
BRANCH   1  10
HETATM   10  C6  UNL     1     -25.182   1.197  -9.270  1.00  0.00     0.029 C 
BRANCH  10  11
HETATM   11  C5  UNL     1     -24.195   0.378 -10.044  1.00  0.00     0.114 C 
BRANCH  11  12
HETATM   12  N2  UNL     1     -23.484   1.144 -11.024  1.00  0.00    -0.420 N 
ATOM     13  H2  UNL     1     -23.969   1.652 -11.764  1.00  0.00     0.153 HD
BRANCH  12  14
HETATM   14  C4  UNL     1     -22.070   1.156 -10.910  1.00  0.00     0.133 C 
BRANCH  14  15
HETATM   15  C3  UNL     1     -21.614   2.267  -9.941  1.00  0.00     0.135 C 
BRANCH  15  16
HETATM   16  N1  UNL     1     -20.228   2.316  -9.823  1.00  0.00    -0.419 N 
HETATM   17  C1  UNL     1     -19.480   1.488 -10.662  1.00  0.00     0.142 C 
HETATM   18  C2  UNL     1     -19.562   3.364  -9.184  1.00  0.00     0.142 C 
ENDBRANCH  15  16
ENDBRANCH  14  15
ENDBRANCH  12  14
ENDBRANCH  11  12
ENDBRANCH  10  11
ENDBRANCH   1  10
TORSDOF 6
ENDMDL
MODEL 5
REMARK VINA RESULT: -5.875737037      1.796      2.349
REMARK  6 active torsions:
REMARK  status: ('A' for Active; 'I' for Inactive)
REMARK    1  A    between atoms: N1_2  and  C3_4 
REMARK    2  A    between atoms: C3_4  and  C4_5 
REMARK    3  A    between atoms: C4_5  and  N2_6 
REMARK    4  A    between atoms: N2_6  and  C5_8 
REMARK    5  A    between atoms: C5_8  and  C6_9 
REMARK    6  A    between atoms: C6_9  and  C7_10 
ROOT
HETATM    1  C7  UNL     1     -24.266   2.771  -6.567  1.00  0.00     0.030 C 
HETATM    2  C8  UNL     1     -23.420   1.724  -5.875  1.00  0.00     0.065 C 
HETATM    3  N3  UNL     1     -24.102   0.858  -5.018  1.00  0.00    -0.382 N 
ATOM      4  H3  UNL     1     -23.696   0.590  -4.121  1.00  0.00     0.164 HD
HETATM    5  C9  UNL     1     -25.356   0.361  -5.410  1.00  0.00     0.065 C 
HETATM    6  C10 UNL     1     -26.216   1.224  -6.228  1.00  0.00     0.029 C 
HETATM    7  C11 UNL     1     -26.617   0.518  -7.522  1.00  0.00     0.010 C 
HETATM    8  C12 UNL     1     -25.629   1.429  -8.277  1.00  0.00     0.007 C 
HETATM    9  C13 UNL     1     -25.570   2.283  -7.058  1.00  0.00     0.003 C 
ENDROOT
BRANCH   1  10
HETATM   10  C6  UNL     1     -23.425   3.287  -7.716  1.00  0.00     0.029 C 
BRANCH  10  11
HETATM   11  C5  UNL     1     -21.972   3.150  -7.380  1.00  0.00     0.114 C 
BRANCH  11  12
HETATM   12  N2  UNL     1     -21.166   2.828  -8.520  1.00  0.00    -0.420 N 
ATOM     13  H2  UNL     1     -21.403   2.059  -9.146  1.00  0.00     0.153 HD
BRANCH  12  14
HETATM   14  C4  UNL     1     -20.021   3.639  -8.731  1.00  0.00     0.133 C 
BRANCH  14  15
HETATM   15  C3  UNL     1     -19.283   3.211 -10.016  1.00  0.00     0.135 C 
BRANCH  15  16
HETATM   16  N1  UNL     1     -18.774   4.304 -10.712  1.00  0.00    -0.419 N 
HETATM   17  C1  UNL     1     -19.000   5.572 -10.172  1.00  0.00     0.142 C 
HETATM   18  C2  UNL     1     -17.787   4.183 -11.692  1.00  0.00     0.142 C 
ENDBRANCH  15  16
ENDBRANCH  14  15
ENDBRANCH  12  14
ENDBRANCH  11  12
ENDBRANCH  10  11
ENDBRANCH   1  10
TORSDOF 6
ENDMDL
