MODEL 1
REMARK VINA RESULT: -6.653821150      0.000      0.000
REMARK  4 active torsions:
REMARK  status: ('A' for Active; 'I' for Inactive)
REMARK    1  A    between atoms: O1_1  and  C1_3 
REMARK    2  A    between atoms: C1_3  and  C2_4 
REMARK    3  A    between atoms: N1_5  and  C3_7 
REMARK    4  A    between atoms: C12_20  and  N4_21 
ROOT
HETATM    1  C3  UNL     1      -3.869   9.634  19.150  1.00  0.00     0.112 A 
HETATM    2  N2  UNL     1      -3.318  10.842  19.517  1.00  0.00    -0.352 N 
ATOM      3  H2  UNL     1      -3.952  11.633  19.627  1.00  0.00     0.166 HD
HETATM    4  C4  UNL     1      -2.034  11.059  19.738  1.00  0.00     0.090 A 
HETATM    5  C5  UNL     1      -1.166  10.003  19.593  1.00  0.00     0.031 A 
HETATM    6  C6  UNL     1      -1.681   8.765  19.224  1.00  0.00     0.003 A 
HETATM    7  C7  UNL     1      -3.007   8.532  18.993  1.00  0.00    -0.001 A 
HETATM    8  C8  UNL     1      -3.505   7.235  18.593  1.00  0.00     0.048 A 
HETATM    9  C9  UNL     1      -2.588   6.106  18.541  1.00  0.00     0.047 A 
HETATM   10  C10 UNL     1      -1.175   6.392  18.743  1.00  0.00    -0.014 A 
HETATM   11  C11 UNL     1      -0.259   5.329  18.594  1.00  0.00     0.115 A 
HETATM   12  N3  UNL     1       1.015   5.590  18.798  1.00  0.00    -0.201 N 
ATOM     13  H3  UNL     1       1.690   4.833  18.693  1.00  0.00     0.183 HD
HETATM   14  C12 UNL     1       1.467   6.812  19.140  1.00  0.00     0.680 A 
HETATM   15  N5  UNL     1       0.578   7.841  19.284  1.00  0.00    -0.190 N 
ATOM     16  H5  UNL     1       0.915   8.768  19.543  1.00  0.00     0.184 HD
HETATM   17  C17 UNL     1      -0.747   7.638  19.086  1.00  0.00     0.067 A 
ENDROOT
BRANCH   1  18
HETATM   18  N1  UNL     1      -5.074   9.532  18.962  1.00  0.00    -0.353 N 
HETATM   19  C2  UNL     1      -6.347   9.440  19.399  1.00  0.00     0.088 C 
ATOM     20  H1  UNL     1      -5.161   9.499  17.946  1.00  0.00     0.166 HD
BRANCH  19  21
HETATM   21  C1  UNL     1      -7.370   8.965  18.361  1.00  0.00     0.208 C 
BRANCH  21  22
HETATM   22  O1  UNL     1      -6.735   8.628  17.185  1.00  0.00    -0.396 OA
ATOM     23  H1  UNL     1      -7.095   9.129  16.462  1.00  0.00     0.209 HD
ENDBRANCH  21  22
ENDBRANCH  19  21
ENDBRANCH   1  18
BRANCH  14  24
HETATM   24  N4  UNL     1       2.847   6.990  19.339  1.00  0.00    -0.214 N 
HETATM   25  C13 UNL     1       3.363   7.156  20.671  1.00  0.00     0.167 C 
HETATM   26  C14 UNL     1       4.877   7.204  20.656  1.00  0.00     0.188 C 
HETATM   27  O2  UNL     1       5.427   6.271  19.810  1.00  0.00    -0.388 OA
HETATM   28  C15 UNL     1       5.082   6.394  18.490  1.00  0.00     0.188 C 
HETATM   29  C16 UNL     1       3.749   7.009  18.224  1.00  0.00     0.167 C 
ENDBRANCH  14  24
TORSDOF 4
ENDMDL
MODEL 2
REMARK VINA RESULT: -6.507344815      4.967      7.237
REMARK  4 active torsions:
REMARK  status: ('A' for Active; 'I' for Inactive)
REMARK    1  A    between atoms: O1_1  and  C1_3 
REMARK    2  A    between atoms: C1_3  and  C2_4 
REMARK    3  A    between atoms: N1_5  and  C3_7 
REMARK    4  A    between atoms: C12_20  and  N4_21 
ROOT
HETATM    1  C3  UNL     1       1.775  10.919  25.232  1.00  0.00     0.112 A 
HETATM    2  N2  UNL     1       2.073   9.831  26.024  1.00  0.00    -0.352 N 
ATOM      3  H2  UNL     1       2.379  10.017  26.979  1.00  0.00     0.166 HD
HETATM    4  C4  UNL     1       1.995   8.568  25.647  1.00  0.00     0.090 A 
HETATM    5  C5  UNL     1       1.586   8.302  24.362  1.00  0.00     0.031 A 
HETATM    6  C6  UNL     1       1.274   9.371  23.528  1.00  0.00     0.003 A 
HETATM    7  C7  UNL     1       1.352  10.681  23.911  1.00  0.00    -0.001 A 
HETATM    8  C8  UNL     1       1.037  11.767  23.011  1.00  0.00     0.048 A 
HETATM    9  C9  UNL     1       0.511  11.466  21.688  1.00  0.00     0.047 A 
HETATM   10  C10 UNL     1       0.484  10.066  21.290  1.00  0.00    -0.014 A 
HETATM   11  C11 UNL     1       0.075   9.763  19.974  1.00  0.00     0.115 A 
HETATM   12  N3  UNL     1       0.033   8.493  19.627  1.00  0.00    -0.201 N 
ATOM     13  H3  UNL     1      -0.259   8.257  18.679  1.00  0.00     0.183 HD
HETATM   14  C12 UNL     1       0.360   7.492  20.468  1.00  0.00     0.680 A 
HETATM   15  N5  UNL     1       0.757   7.789  21.742  1.00  0.00    -0.190 N 
ATOM     16  H5  UNL     1       1.005   7.035  22.383  1.00  0.00     0.184 HD
HETATM   17  C17 UNL     1       0.822   9.076  22.160  1.00  0.00     0.067 A 
ENDROOT
BRANCH   1  18
HETATM   18  N1  UNL     1       1.883  12.056  25.671  1.00  0.00    -0.353 N 
HETATM   19  C2  UNL     1       1.537  13.046  26.519  1.00  0.00     0.088 C 
ATOM     20  H1  UNL     1       2.617  12.472  25.096  1.00  0.00     0.166 HD
BRANCH  19  21
HETATM   21  C1  UNL     1       2.018  14.449  26.131  1.00  0.00     0.208 C 
BRANCH  21  22
HETATM   22  O1  UNL     1       3.367  14.428  25.846  1.00  0.00    -0.396 OA
ATOM     23  H1  UNL     1       3.516  14.035  24.993  1.00  0.00     0.209 HD
ENDBRANCH  21  22
ENDBRANCH  19  21
ENDBRANCH   1  18
BRANCH  14  24
HETATM   24  N4  UNL     1       0.282   6.168  20.004  1.00  0.00    -0.214 N 
HETATM   25  C13 UNL     1      -0.572   5.225  20.674  1.00  0.00     0.167 C 
HETATM   26  C14 UNL     1      -0.595   3.904  19.930  1.00  0.00     0.188 C 
HETATM   27  O2  UNL     1      -0.673   4.066  18.568  1.00  0.00    -0.388 OA
HETATM   28  C15 UNL     1       0.366   4.747  17.993  1.00  0.00     0.188 C 
HETATM   29  C16 UNL     1       1.048   5.747  18.866  1.00  0.00     0.167 C 
ENDBRANCH  14  24
TORSDOF 4
ENDMDL
MODEL 3
REMARK VINA RESULT: -6.436166546      1.061      1.061
REMARK  4 active torsions:
REMARK  status: ('A' for Active; 'I' for Inactive)
REMARK    1  A    between atoms: O1_1  and  C1_3 
REMARK    2  A    between atoms: C1_3  and  C2_4 
REMARK    3  A    between atoms: N1_5  and  C3_7 
REMARK    4  A    between atoms: C12_20  and  N4_21 
ROOT
HETATM    1  C3  UNL     1      -4.043   8.593  19.773  1.00  0.00     0.112 A 
HETATM    2  N2  UNL     1      -3.616   9.771  20.348  1.00  0.00    -0.352 N 
ATOM      3  H2  UNL     1      -4.332  10.437  20.639  1.00  0.00     0.166 HD
HETATM    4  C4  UNL     1      -2.355  10.107  20.551  1.00  0.00     0.090 A 
HETATM    5  C5  UNL     1      -1.379   9.221  20.162  1.00  0.00     0.031 A 
HETATM    6  C6  UNL     1      -1.768   8.019  19.578  1.00  0.00     0.003 A 
HETATM    7  C7  UNL     1      -3.069   7.664  19.364  1.00  0.00    -0.001 A 
HETATM    8  C8  UNL     1      -3.435   6.413  18.738  1.00  0.00     0.048 A 
HETATM    9  C9  UNL     1      -2.395   5.444  18.423  1.00  0.00     0.047 A 
HETATM   10  C10 UNL     1      -1.016   5.868  18.616  1.00  0.00    -0.014 A 
HETATM   11  C11 UNL     1       0.008   4.981  18.218  1.00  0.00     0.115 A 
HETATM   12  N3  UNL     1       1.252   5.363  18.414  1.00  0.00    -0.201 N 
ATOM     13  H3  UNL     1       2.004   4.734  18.132  1.00  0.00     0.183 HD
HETATM   14  C12 UNL     1       1.578   6.546  18.971  1.00  0.00     0.680 A 
HETATM   15  N5  UNL     1       0.585   7.403  19.354  1.00  0.00    -0.190 N 
ATOM     16  H5  UNL     1       0.825   8.300  19.776  1.00  0.00     0.184 HD
HETATM   17  C17 UNL     1      -0.717   7.071  19.179  1.00  0.00     0.067 A 
ENDROOT
BRANCH   1  18
HETATM   18  N1  UNL     1      -5.238   8.373  19.623  1.00  0.00    -0.353 N 
HETATM   19  C2  UNL     1      -6.466   8.076  20.095  1.00  0.00     0.088 C 
ATOM     20  H1  UNL     1      -5.377   8.457  18.616  1.00  0.00     0.166 HD
BRANCH  19  21
HETATM   21  C1  UNL     1      -7.485   7.615  19.046  1.00  0.00     0.208 C 
BRANCH  21  22
HETATM   22  O1  UNL     1      -7.542   6.238  19.012  1.00  0.00    -0.396 OA
ATOM     23  H1  UNL     1      -7.571   5.933  18.112  1.00  0.00     0.209 HD
ENDBRANCH  21  22
ENDBRANCH  19  21
ENDBRANCH   1  18
BRANCH  14  24
HETATM   24  N4  UNL     1       2.937   6.862  19.139  1.00  0.00    -0.214 N 
HETATM   25  C13 UNL     1       3.458   7.097  20.459  1.00  0.00     0.167 C 
HETATM   26  C14 UNL     1       4.961   7.292  20.413  1.00  0.00     0.188 C 
HETATM   27  O2  UNL     1       5.584   6.406  19.568  1.00  0.00    -0.388 OA
HETATM   28  C15 UNL     1       5.204   6.475  18.254  1.00  0.00     0.188 C 
HETATM   29  C16 UNL     1       3.812   6.952  18.006  1.00  0.00     0.167 C 
ENDBRANCH  14  24
TORSDOF 4
ENDMDL
MODEL 4
REMARK VINA RESULT: -6.344077753      1.716      8.106
REMARK  4 active torsions:
REMARK  status: ('A' for Active; 'I' for Inactive)
REMARK    1  A    between atoms: O1_1  and  C1_3 
REMARK    2  A    between atoms: C1_3  and  C2_4 
REMARK    3  A    between atoms: N1_5  and  C3_7 
REMARK    4  A    between atoms: C12_20  and  N4_21 
ROOT
HETATM    1  C3  UNL     1       1.741   6.321  18.700  1.00  0.00     0.112 A 
HETATM    2  N2  UNL     1       1.294   5.132  18.166  1.00  0.00    -0.352 N 
ATOM      3  H2  UNL     1       1.997   4.482  17.814  1.00  0.00     0.166 HD
HETATM    4  C4  UNL     1       0.028   4.766  18.073  1.00  0.00     0.090 A 
HETATM    5  C5  UNL     1      -0.931   5.632  18.543  1.00  0.00     0.031 A 
HETATM    6  C6  UNL     1      -0.521   6.843  19.090  1.00  0.00     0.003 A 
HETATM    7  C7  UNL     1       0.785   7.229  19.190  1.00  0.00    -0.001 A 
HETATM    8  C8  UNL     1       1.172   8.505  19.750  1.00  0.00     0.048 A 
HETATM    9  C9  UNL     1       0.153   9.366  20.332  1.00  0.00     0.047 A 
HETATM   10  C10 UNL     1      -1.233   8.953  20.168  1.00  0.00    -0.014 A 
HETATM   11  C11 UNL     1      -2.240   9.825  20.634  1.00  0.00     0.115 A 
HETATM   12  N3  UNL     1      -3.491   9.436  20.502  1.00  0.00    -0.201 N 
ATOM     13  H3  UNL     1      -4.231  10.055  20.832  1.00  0.00     0.183 HD
HETATM   14  C12 UNL     1      -3.838   8.257  19.949  1.00  0.00     0.680 A 
HETATM   15  N5  UNL     1      -2.861   7.414  19.498  1.00  0.00    -0.190 N 
ATOM     16  H5  UNL     1      -3.117   6.521  19.079  1.00  0.00     0.184 HD
HETATM   17  C17 UNL     1      -1.554   7.756  19.604  1.00  0.00     0.067 A 
ENDROOT
BRANCH   1  18
HETATM   18  N1  UNL     1       2.938   6.573  18.739  1.00  0.00    -0.353 N 
HETATM   19  C2  UNL     1       4.132   6.605  19.365  1.00  0.00     0.088 C 
ATOM     20  H1  UNL     1       3.136   6.961  17.816  1.00  0.00     0.166 HD
BRANCH  19  21
HETATM   21  C1  UNL     1       5.201   7.486  18.708  1.00  0.00     0.208 C 
BRANCH  21  22
HETATM   22  O1  UNL     1       5.503   7.011  17.449  1.00  0.00    -0.396 OA
ATOM     23  H1  UNL     1       6.327   6.538  17.466  1.00  0.00     0.209 HD
ENDBRANCH  21  22
ENDBRANCH  19  21
ENDBRANCH   1  18
BRANCH  14  24
HETATM   24  N4  UNL     1      -5.201   7.931  19.854  1.00  0.00    -0.214 N 
HETATM   25  C13 UNL     1      -6.037   8.619  18.907  1.00  0.00     0.167 C 
HETATM   26  C14 UNL     1      -7.429   8.020  18.889  1.00  0.00     0.188 C 
HETATM   27  O2  UNL     1      -7.415   6.647  18.934  1.00  0.00    -0.388 OA
HETATM   28  C15 UNL     1      -6.836   6.098  20.047  1.00  0.00     0.188 C 
HETATM   29  C16 UNL     1      -5.770   6.918  20.694  1.00  0.00     0.167 C 
ENDBRANCH  14  24
TORSDOF 4
ENDMDL
MODEL 5
REMARK VINA RESULT: -6.280499985      4.306      6.768
REMARK  4 active torsions:
REMARK  status: ('A' for Active; 'I' for Inactive)
REMARK    1  A    between atoms: O1_1  and  C1_3 
REMARK    2  A    between atoms: C1_3  and  C2_4 
REMARK    3  A    between atoms: N1_5  and  C3_7 
REMARK    4  A    between atoms: C12_20  and  N4_21 
ROOT
HETATM    1  C3  UNL     1       0.268  11.685  23.776  1.00  0.00     0.112 A 
HETATM    2  N2  UNL     1      -1.038  11.971  23.444  1.00  0.00    -0.352 N 
ATOM      3  H2  UNL     1      -1.475  12.768  23.907  1.00  0.00     0.166 HD
HETATM    4  C4  UNL     1      -1.770  11.297  22.575  1.00  0.00     0.090 A 
HETATM    5  C5  UNL     1      -1.195  10.220  21.945  1.00  0.00     0.031 A 
HETATM    6  C6  UNL     1       0.124   9.896  22.251  1.00  0.00     0.003 A 
HETATM    7  C7  UNL     1       0.887  10.588  23.148  1.00  0.00    -0.001 A 
HETATM    8  C8  UNL     1       2.249  10.212  23.454  1.00  0.00     0.048 A 
HETATM    9  C9  UNL     1       2.875   9.132  22.705  1.00  0.00     0.047 A 
HETATM   10  C10 UNL     1       2.024   8.382  21.792  1.00  0.00    -0.014 A 
HETATM   11  C11 UNL     1       2.586   7.266  21.135  1.00  0.00     0.115 A 
HETATM   12  N3  UNL     1       1.818   6.604  20.295  1.00  0.00    -0.201 N 
ATOM     13  H3  UNL     1       2.208   5.794  19.813  1.00  0.00     0.183 HD
HETATM   14  C12 UNL     1       0.539   6.948  20.044  1.00  0.00     0.680 A 
HETATM   15  N5  UNL     1      -0.002   8.030  20.681  1.00  0.00    -0.190 N 
ATOM     16  H5  UNL     1      -0.969   8.295  20.495  1.00  0.00     0.184 HD
HETATM   17  C17 UNL     1       0.736   8.752  21.559  1.00  0.00     0.067 A 
ENDROOT
BRANCH   1  18
HETATM   18  N1  UNL     1       0.864  12.367  24.599  1.00  0.00    -0.353 N 
HETATM   19  C2  UNL     1       1.191  13.551  25.157  1.00  0.00     0.088 C 
ATOM     20  H1  UNL     1       1.386  11.685  25.150  1.00  0.00     0.166 HD
BRANCH  19  21
HETATM   21  C1  UNL     1       2.416  13.533  26.078  1.00  0.00     0.208 C 
BRANCH  21  22
HETATM   22  O1  UNL     1       3.277  14.558  25.745  1.00  0.00    -0.396 OA
ATOM     23  H1  UNL     1       2.804  15.380  25.694  1.00  0.00     0.209 HD
ENDBRANCH  21  22
ENDBRANCH  19  21
ENDBRANCH   1  18
BRANCH  14  24
HETATM   24  N4  UNL     1      -0.199   6.180  19.128  1.00  0.00    -0.214 N 
HETATM   25  C13 UNL     1       0.333   4.933  18.647  1.00  0.00     0.167 C 
HETATM   26  C14 UNL     1      -0.682   4.220  17.777  1.00  0.00     0.188 C 
HETATM   27  O2  UNL     1      -1.955   4.279  18.290  1.00  0.00    -0.388 OA
HETATM   28  C15 UNL     1      -2.475   5.538  18.437  1.00  0.00     0.188 C 
HETATM   29  C16 UNL     1      -1.482   6.627  18.667  1.00  0.00     0.167 C 
ENDBRANCH  14  24
TORSDOF 4
ENDMDL
