MODEL 1
REMARK VINA RESULT: -7.965730586      0.000      0.000
REMARK  5 active torsions:
REMARK  status: ('A' for Active; 'I' for Inactive)
REMARK    1  A    between atoms: C7_8  and  C8_9 
REMARK    2  A    between atoms: C8_9  and  C9_10 
REMARK    3  A    between atoms: C9_10  and  C10_11 
REMARK    4  A    between atoms: C16_17  and  N2_18 
REMARK    5  A    between atoms: N3_21  and  C17_22 
ROOT
HETATM    1  C1  UNL     1       2.078   5.798  17.480  1.00  0.00     0.045 C 
HETATM    2  C2  UNL     1       2.184   6.363  18.668  1.00  0.00     0.070 A 
HETATM    3  C3  UNL     1       3.429   6.742  19.136  1.00  0.00     0.078 A 
HETATM    4  C4  UNL     1       4.589   6.507  18.309  1.00  0.00     0.102 C 
HETATM    5  N1  UNL     1       5.519   6.306  17.623  1.00  0.00    -0.191 NA
HETATM    6  C5  UNL     1       3.601   7.342  20.381  1.00  0.00    -0.025 A 
HETATM    7  C6  UNL     1       4.972   7.727  20.800  1.00  0.00     0.050 C 
HETATM    8  C7  UNL     1       2.514   7.578  21.196  1.00  0.00     0.013 A 
HETATM    9  C16 UNL     1       1.269   7.170  20.664  1.00  0.00     0.133 A 
HETATM   10  N3  UNL     1       1.125   6.591  19.456  1.00  0.00    -0.130 N 
ENDROOT
BRANCH  10  11
HETATM   11  C17 UNL     1      -0.173   6.200  18.976  1.00  0.00     0.706 A 
HETATM   12  N4  UNL     1      -1.151   6.905  18.414  1.00  0.00    -0.185 N 
HETATM   13  C18 UNL     1      -2.206   6.108  18.121  1.00  0.00     0.215 A 
ATOM     14  H4  UNL     1      -1.111   7.908  18.230  1.00  0.00     0.185 HD
HETATM   15  N5  UNL     1      -1.849   4.875  18.520  1.00  0.00    -0.281 N 
HETATM   16  N6  UNL     1      -0.621   4.936  19.036  1.00  0.00    -0.130 N 
ATOM     17  H5  UNL     1      -2.421   4.034  18.441  1.00  0.00     0.188 HD
ATOM     18  H6  UNL     1      -0.103   4.145  19.418  1.00  0.00     0.205 HD
ENDBRANCH  10  11
BRANCH   8  19
HETATM   19  C8  UNL     1       2.554   8.123  22.389  1.00  0.00    -0.006 C 
BRANCH  19  20
HETATM   20  C9  UNL     1       2.646   9.437  22.944  1.00  0.00     0.066 C 
BRANCH  20  21
HETATM   21  C10 UNL     1       2.256   9.364  24.405  1.00  0.00    -0.055 A 
HETATM   22  C11 UNL     1       1.416   8.352  24.803  1.00  0.00     0.007 A 
HETATM   23  C12 UNL     1       0.992   8.184  26.111  1.00  0.00     0.001 A 
HETATM   24  C13 UNL     1       1.446   9.084  27.035  1.00  0.00     0.000 A 
HETATM   25  C14 UNL     1       2.289  10.105  26.648  1.00  0.00     0.001 A 
HETATM   26  C15 UNL     1       2.706  10.257  25.320  1.00  0.00     0.007 A 
ENDBRANCH  20  21
ENDBRANCH  19  20
ENDBRANCH   8  19
BRANCH   9  27
HETATM   27  N2  UNL     1       0.185   7.326  21.305  1.00  0.00    -0.384 N 
ATOM     28  H22 UNL     1       0.305   7.488  22.305  1.00  0.00     0.157 HD
ATOM     29  H21 UNL     1      -0.723   7.289  20.842  1.00  0.00     0.157 HD
ENDBRANCH   9  27
TORSDOF 5
ENDMDL
MODEL 2
REMARK VINA RESULT: -7.963561092      0.366      1.211
REMARK  5 active torsions:
REMARK  status: ('A' for Active; 'I' for Inactive)
REMARK    1  A    between atoms: C7_8  and  C8_9 
REMARK    2  A    between atoms: C8_9  and  C9_10 
REMARK    3  A    between atoms: C9_10  and  C10_11 
REMARK    4  A    between atoms: C16_17  and  N2_18 
REMARK    5  A    between atoms: N3_21  and  C17_22 
ROOT
HETATM    1  C1  UNL     1       2.113   5.815  17.435  1.00  0.00     0.045 C 
HETATM    2  C2  UNL     1       2.194   6.361  18.635  1.00  0.00     0.070 A 
HETATM    3  C3  UNL     1       3.425   6.763  19.121  1.00  0.00     0.078 A 
HETATM    4  C4  UNL     1       4.598   6.572  18.299  1.00  0.00     0.102 C 
HETATM    5  N1  UNL     1       5.538   6.408  17.618  1.00  0.00    -0.191 NA
HETATM    6  C5  UNL     1       3.571   7.344  20.378  1.00  0.00    -0.025 A 
HETATM    7  C6  UNL     1       4.928   7.756  20.816  1.00  0.00     0.050 C 
HETATM    8  C7  UNL     1       2.472   7.537  21.187  1.00  0.00     0.013 A 
HETATM    9  C16 UNL     1       1.243   7.106  20.636  1.00  0.00     0.133 A 
HETATM   10  N3  UNL     1       1.123   6.547  19.417  1.00  0.00    -0.130 N 
ENDROOT
BRANCH  10  11
HETATM   11  C17 UNL     1      -0.160   6.132  18.919  1.00  0.00     0.706 A 
HETATM   12  N4  UNL     1      -0.726   4.931  18.843  1.00  0.00    -0.185 N 
HETATM   13  C18 UNL     1      -1.961   5.019  18.294  1.00  0.00     0.215 A 
ATOM     14  H4  UNL     1      -0.291   4.063  19.157  1.00  0.00     0.185 HD
HETATM   15  N5  UNL     1      -2.146   6.324  18.029  1.00  0.00    -0.281 N 
HETATM   16  N6  UNL     1      -1.056   6.991  18.408  1.00  0.00    -0.130 N 
ATOM     17  H5  UNL     1      -2.980   6.734  17.610  1.00  0.00     0.188 HD
ATOM     18  H6  UNL     1      -0.923   7.999  18.322  1.00  0.00     0.205 HD
ENDBRANCH  10  11
BRANCH   8  19
HETATM   19  C8  UNL     1       2.488   8.060  22.391  1.00  0.00    -0.006 C 
BRANCH  19  20
HETATM   20  C9  UNL     1       2.571   9.364  22.971  1.00  0.00     0.066 C 
BRANCH  20  21
HETATM   21  C10 UNL     1       2.135   9.269  24.417  1.00  0.00    -0.055 A 
HETATM   22  C11 UNL     1       2.780  10.054  25.343  1.00  0.00     0.007 A 
HETATM   23  C12 UNL     1       2.467  10.052  26.692  1.00  0.00     0.001 A 
HETATM   24  C13 UNL     1       1.463   9.218  27.100  1.00  0.00     0.000 A 
HETATM   25  C14 UNL     1       0.809   8.424  26.181  1.00  0.00     0.001 A 
HETATM   26  C15 UNL     1       1.139   8.441  24.821  1.00  0.00     0.007 A 
ENDBRANCH  20  21
ENDBRANCH  19  20
ENDBRANCH   8  19
BRANCH   9  27
HETATM   27  N2  UNL     1       0.149   7.223  21.271  1.00  0.00    -0.384 N 
ATOM     28  H22 UNL     1       0.198   7.830  22.090  1.00  0.00     0.157 HD
ATOM     29  H21 UNL     1      -0.699   6.742  20.973  1.00  0.00     0.157 HD
ENDBRANCH   9  27
TORSDOF 5
ENDMDL
MODEL 3
REMARK VINA RESULT: -7.621836978      0.864      1.173
REMARK  5 active torsions:
REMARK  status: ('A' for Active; 'I' for Inactive)
REMARK    1  A    between atoms: C7_8  and  C8_9 
REMARK    2  A    between atoms: C8_9  and  C9_10 
REMARK    3  A    between atoms: C9_10  and  C10_11 
REMARK    4  A    between atoms: C16_17  and  N2_18 
REMARK    5  A    between atoms: N3_21  and  C17_22 
ROOT
HETATM    1  C1  UNL     1       2.409   5.846  17.457  1.00  0.00     0.045 C 
HETATM    2  C2  UNL     1       2.252   6.300  18.687  1.00  0.00     0.070 A 
HETATM    3  C3  UNL     1       3.304   6.935  19.321  1.00  0.00     0.078 A 
HETATM    4  C4  UNL     1       4.557   7.085  18.617  1.00  0.00     0.102 C 
HETATM    5  N1  UNL     1       5.566   7.197  18.030  1.00  0.00    -0.191 NA
HETATM    6  C5  UNL     1       3.197   7.434  20.616  1.00  0.00    -0.025 A 
HETATM    7  C6  UNL     1       4.373   8.112  21.216  1.00  0.00     0.050 C 
HETATM    8  C7  UNL     1       2.016   7.304  21.315  1.00  0.00     0.013 A 
HETATM    9  C16 UNL     1       0.977   6.646  20.616  1.00  0.00     0.133 A 
HETATM   10  N3  UNL     1       1.103   6.172  19.362  1.00  0.00    -0.130 N 
ENDROOT
BRANCH  10  11
HETATM   11  C17 UNL     1       0.004   5.512  18.710  1.00  0.00     0.706 A 
HETATM   12  N4  UNL     1      -0.266   4.222  18.532  1.00  0.00    -0.185 N 
HETATM   13  C18 UNL     1      -1.426   4.066  17.851  1.00  0.00     0.215 A 
ATOM     14  H4  UNL     1       0.320   3.456  18.864  1.00  0.00     0.185 HD
HETATM   15  N5  UNL     1      -1.873   5.311  17.610  1.00  0.00    -0.281 N 
HETATM   16  N6  UNL     1      -1.006   6.180  18.130  1.00  0.00    -0.130 N 
ATOM     17  H5  UNL     1      -2.731   5.550  17.114  1.00  0.00     0.188 HD
ATOM     18  H6  UNL     1      -1.097   7.195  18.093  1.00  0.00     0.205 HD
ENDBRANCH  10  11
BRANCH   8  19
HETATM   19  C8  UNL     1       1.800   7.720  22.541  1.00  0.00    -0.006 C 
BRANCH  19  20
HETATM   20  C9  UNL     1       0.884   8.589  23.212  1.00  0.00     0.066 C 
BRANCH  20  21
HETATM   21  C10 UNL     1       1.518   9.033  24.513  1.00  0.00    -0.055 A 
HETATM   22  C11 UNL     1       0.944   8.615  25.691  1.00  0.00     0.007 A 
HETATM   23  C12 UNL     1       1.435   8.956  26.940  1.00  0.00     0.001 A 
HETATM   24  C13 UNL     1       2.547   9.750  26.979  1.00  0.00     0.000 A 
HETATM   25  C14 UNL     1       3.132  10.177  25.805  1.00  0.00     0.001 A 
HETATM   26  C15 UNL     1       2.621   9.821  24.551  1.00  0.00     0.007 A 
ENDBRANCH  20  21
ENDBRANCH  19  20
ENDBRANCH   8  19
BRANCH   9  27
HETATM   27  N2  UNL     1      -0.165   6.457  21.139  1.00  0.00    -0.384 N 
ATOM     28  H22 UNL     1      -0.152   6.345  22.153  1.00  0.00     0.157 HD
ATOM     29  H21 UNL     1      -1.014   6.422  20.575  1.00  0.00     0.157 HD
ENDBRANCH   9  27
TORSDOF 5
ENDMDL
MODEL 4
REMARK VINA RESULT: -7.510755105      1.651      2.238
REMARK  5 active torsions:
REMARK  status: ('A' for Active; 'I' for Inactive)
REMARK    1  A    between atoms: C7_8  and  C8_9 
REMARK    2  A    between atoms: C8_9  and  C9_10 
REMARK    3  A    between atoms: C9_10  and  C10_11 
REMARK    4  A    between atoms: C16_17  and  N2_18 
REMARK    5  A    between atoms: N3_21  and  C17_22 
ROOT
HETATM    1  C1  UNL     1       2.327   5.990  17.341  1.00  0.00     0.045 C 
HETATM    2  C2  UNL     1       2.287   6.345  18.612  1.00  0.00     0.070 A 
HETATM    3  C3  UNL     1       3.417   6.869  19.211  1.00  0.00     0.078 A 
HETATM    4  C4  UNL     1       4.622   7.014  18.427  1.00  0.00     0.102 C 
HETATM    5  N1  UNL     1       5.589   7.123  17.775  1.00  0.00    -0.191 NA
HETATM    6  C5  UNL     1       3.433   7.260  20.548  1.00  0.00    -0.025 A 
HETATM    7  C6  UNL     1       4.687   7.824  21.107  1.00  0.00     0.050 C 
HETATM    8  C7  UNL     1       2.301   7.132  21.323  1.00  0.00     0.013 A 
HETATM    9  C16 UNL     1       1.178   6.591  20.656  1.00  0.00     0.133 A 
HETATM   10  N3  UNL     1       1.184   6.219  19.361  1.00  0.00    -0.130 N 
ENDROOT
BRANCH  10  11
HETATM   11  C17 UNL     1       0.004   5.675  18.745  1.00  0.00     0.706 A 
HETATM   12  N4  UNL     1      -1.028   6.266  18.150  1.00  0.00    -0.185 N 
HETATM   13  C18 UNL     1      -1.918   5.344  17.712  1.00  0.00     0.215 A 
ATOM     14  H4  UNL     1      -1.134   7.274  18.039  1.00  0.00     0.185 HD
HETATM   15  N5  UNL     1      -1.402   4.151  18.056  1.00  0.00    -0.281 N 
HETATM   16  N6  UNL     1      -0.241   4.357  18.680  1.00  0.00    -0.130 N 
ATOM     17  H5  UNL     1      -1.826   3.242  17.871  1.00  0.00     0.188 HD
ATOM     18  H6  UNL     1       0.365   3.625  19.050  1.00  0.00     0.205 HD
ENDBRANCH  10  11
BRANCH   8  19
HETATM   19  C8  UNL     1       2.200   7.453  22.592  1.00  0.00    -0.006 C 
BRANCH  19  20
HETATM   20  C9  UNL     1       2.109   8.648  23.371  1.00  0.00     0.066 C 
BRANCH  20  21
HETATM   21  C10 UNL     1       0.952   9.470  22.846  1.00  0.00    -0.055 A 
HETATM   22  C11 UNL     1      -0.299   9.240  23.369  1.00  0.00     0.007 A 
HETATM   23  C12 UNL     1      -1.431   9.929  22.967  1.00  0.00     0.001 A 
HETATM   24  C13 UNL     1      -1.271  10.883  22.000  1.00  0.00     0.000 A 
HETATM   25  C14 UNL     1      -0.022  11.123  21.467  1.00  0.00     0.001 A 
HETATM   26  C15 UNL     1       1.110  10.415  21.887  1.00  0.00     0.007 A 
ENDBRANCH  20  21
ENDBRANCH  19  20
ENDBRANCH   8  19
BRANCH   9  27
HETATM   27  N2  UNL     1       0.068   6.417  21.248  1.00  0.00    -0.384 N 
ATOM     28  H22 UNL     1      -0.495   7.261  21.346  1.00  0.00     0.157 HD
ATOM     29  H21 UNL     1      -0.219   5.501  21.592  1.00  0.00     0.157 HD
ENDBRANCH   9  27
TORSDOF 5
ENDMDL
MODEL 5
REMARK VINA RESULT: -7.497778180      1.686      2.461
REMARK  5 active torsions:
REMARK  status: ('A' for Active; 'I' for Inactive)
REMARK    1  A    between atoms: C7_8  and  C8_9 
REMARK    2  A    between atoms: C8_9  and  C9_10 
REMARK    3  A    between atoms: C9_10  and  C10_11 
REMARK    4  A    between atoms: C16_17  and  N2_18 
REMARK    5  A    between atoms: N3_21  and  C17_22 
ROOT
HETATM    1  C1  UNL     1       2.318   5.958  17.330  1.00  0.00     0.045 C 
HETATM    2  C2  UNL     1       2.282   6.324  18.598  1.00  0.00     0.070 A 
HETATM    3  C3  UNL     1       3.416   6.851  19.190  1.00  0.00     0.078 A 
HETATM    4  C4  UNL     1       4.618   6.987  18.401  1.00  0.00     0.102 C 
HETATM    5  N1  UNL     1       5.584   7.089  17.744  1.00  0.00    -0.191 NA
HETATM    6  C5  UNL     1       3.437   7.253  20.523  1.00  0.00    -0.025 A 
HETATM    7  C6  UNL     1       4.693   7.818  21.073  1.00  0.00     0.050 C 
HETATM    8  C7  UNL     1       2.307   7.133  21.303  1.00  0.00     0.013 A 
HETATM    9  C16 UNL     1       1.181   6.588  20.643  1.00  0.00     0.133 A 
HETATM   10  N3  UNL     1       1.182   6.206  19.352  1.00  0.00    -0.130 N 
ENDROOT
BRANCH  10  11
HETATM   11  C17 UNL     1      -0.001   5.659  18.744  1.00  0.00     0.706 A 
HETATM   12  N4  UNL     1      -0.387   4.401  18.551  1.00  0.00    -0.185 N 
HETATM   13  C18 UNL     1      -1.590   4.361  17.929  1.00  0.00     0.215 A 
ATOM     14  H4  UNL     1       0.148   3.579  18.833  1.00  0.00     0.185 HD
HETATM   15  N5  UNL     1      -1.942   5.645  17.741  1.00  0.00    -0.281 N 
HETATM   16  N6  UNL     1      -0.979   6.424  18.234  1.00  0.00    -0.130 N 
ATOM     17  H5  UNL     1      -2.801   5.968  17.297  1.00  0.00     0.188 HD
ATOM     18  H6  UNL     1      -0.985   7.444  18.226  1.00  0.00     0.205 HD
ENDBRANCH  10  11
BRANCH   8  19
HETATM   19  C8  UNL     1       2.210   7.464  22.569  1.00  0.00    -0.006 C 
BRANCH  19  20
HETATM   20  C9  UNL     1       2.123   8.666  23.339  1.00  0.00     0.066 C 
BRANCH  20  21
HETATM   21  C10 UNL     1       0.890   9.425  22.896  1.00  0.00    -0.055 A 
HETATM   22  C11 UNL     1       1.033  10.387  21.925  1.00  0.00     0.007 A 
HETATM   23  C12 UNL     1      -0.022  11.143  21.441  1.00  0.00     0.001 A 
HETATM   24  C13 UNL     1      -1.259  10.902  21.972  1.00  0.00     0.000 A 
HETATM   25  C14 UNL     1      -1.416   9.939  22.948  1.00  0.00     0.001 A 
HETATM   26  C15 UNL     1      -0.336   9.185  23.423  1.00  0.00     0.007 A 
ENDBRANCH  20  21
ENDBRANCH  19  20
ENDBRANCH   8  19
BRANCH   9  27
HETATM   27  N2  UNL     1       0.073   6.421  21.241  1.00  0.00    -0.384 N 
ATOM     28  H22 UNL     1      -0.053   5.493  21.647  1.00  0.00     0.157 HD
ATOM     29  H21 UNL     1      -0.623   7.164  21.299  1.00  0.00     0.157 HD
ENDBRANCH   9  27
TORSDOF 5
ENDMDL
