MODEL 1
REMARK VINA RESULT: -7.036707477      0.000      0.000
REMARK  6 active torsions:
REMARK  status: ('A' for Active; 'I' for Inactive)
REMARK    1  A    between atoms: O1_1  and  C1_3 
REMARK    2  A    between atoms: C1_3  and  N1_4 
REMARK    3  A    between atoms: N1_4  and  C2_6 
REMARK    4  A    between atoms: C3_9  and  N3_10 
REMARK    5  A    between atoms: N3_10  and  C4_12 
REMARK    6  A    between atoms: C12_22  and  N5_23 
ROOT
HETATM    1  C1  UNL     1      -0.193   9.143  19.939  1.00  0.00     0.196 C 
HETATM    2  C9  UNL     1       0.335  10.045  20.830  1.00  0.00     0.157 A 
HETATM    3  C10 UNL     1       0.533   8.849  22.063  1.00  0.00     0.051 A 
HETATM    4  C11 UNL     1       1.026   9.162  23.212  1.00  0.00     0.036 A 
HETATM    5  C12 UNL     1       1.476  10.364  23.713  1.00  0.00     0.068 A 
HETATM    6  C16 UNL     1       1.305  11.370  22.670  1.00  0.00     0.212 A 
HETATM    7  N7  UNL     1       0.821  10.878  21.652  1.00  0.00    -0.411 NA
ENDROOT
BRANCH   1   8
HETATM    8  O1  UNL     1      -0.829   9.810  18.882  1.00  0.00    -0.343 OA
ATOM      9  H1  UNL     1      -0.203  10.451  18.565  1.00  0.00     0.219 HD
ENDBRANCH   1   8
BRANCH   1  10
HETATM   10  N1  UNL     1      -0.326   7.825  19.676  1.00  0.00    -0.167 N 
ATOM     11  H1  UNL     1      -1.164   7.462  20.128  1.00  0.00     0.186 HD
BRANCH  10  12
HETATM   12  C2  UNL     1       0.247   6.926  19.063  1.00  0.00     0.685 A 
HETATM   13  N2  UNL     1       1.525   7.104  18.625  1.00  0.00    -0.176 N 
HETATM   14  C3  UNL     1       2.268   6.234  17.973  1.00  0.00     0.122 A 
ATOM     15  H2  UNL     1       1.952   8.008  18.823  1.00  0.00     0.186 HD
HETATM   16  C7  UNL     1       1.671   4.989  17.706  1.00  0.00     0.066 A 
HETATM   17  C8  UNL     1       0.382   4.756  18.128  1.00  0.00     0.110 A 
HETATM   18  N4  UNL     1      -0.293   5.691  18.778  1.00  0.00    -0.202 N 
ATOM     19  H4  UNL     1      -1.246   5.490  19.079  1.00  0.00     0.183 HD
BRANCH  14  20
HETATM   20  N3  UNL     1       3.597   6.442  17.532  1.00  0.00    -0.342 N 
ATOM     21  H3  UNL     1       3.769   6.489  16.528  1.00  0.00     0.167 HD
BRANCH  20  22
HETATM   22  C4  UNL     1       4.582   6.573  18.312  1.00  0.00     0.033 A 
HETATM   23  C5  UNL     1       5.546   7.470  18.793  1.00  0.00     0.032 A 
HETATM   24  C6  UNL     1       5.505   6.147  19.262  1.00  0.00     0.032 A 
ENDBRANCH  20  22
ENDBRANCH  14  20
ENDBRANCH  10  12
ENDBRANCH   1  10
BRANCH   5  25
HETATM   25  N5  UNL     1       2.029  10.681  24.922  1.00  0.00    -0.315 N 
HETATM   26  C13 UNL     1       2.873   9.876  25.662  1.00  0.00     0.115 A 
HETATM   27  C14 UNL     1       3.228  10.503  26.807  1.00  0.00     0.106 A 
HETATM   28  N6  UNL     1       2.593  11.703  26.758  1.00  0.00    -0.360 N 
HETATM   29  C15 UNL     1       1.887  11.791  25.637  1.00  0.00     0.188 A 
ATOM     30  H6  UNL     1       2.650  12.427  27.475  1.00  0.00     0.166 HD
ENDBRANCH   5  25
TORSDOF 6
ENDMDL
MODEL 2
REMARK VINA RESULT: -6.830087638      1.501      1.592
REMARK  6 active torsions:
REMARK  status: ('A' for Active; 'I' for Inactive)
REMARK    1  A    between atoms: O1_1  and  C1_3 
REMARK    2  A    between atoms: C1_3  and  N1_4 
REMARK    3  A    between atoms: N1_4  and  C2_6 
REMARK    4  A    between atoms: C3_9  and  N3_10 
REMARK    5  A    between atoms: N3_10  and  C4_12 
REMARK    6  A    between atoms: C12_22  and  N5_23 
ROOT
HETATM    1  C1  UNL     1      -0.838   7.778  21.206  1.00  0.00     0.196 C 
HETATM    2  C9  UNL     1      -0.787   8.243  22.497  1.00  0.00     0.157 A 
HETATM    3  C10 UNL     1       0.934   8.418  22.462  1.00  0.00     0.051 A 
HETATM    4  C11 UNL     1       1.573   8.853  23.493  1.00  0.00     0.036 A 
HETATM    5  C12 UNL     1       1.133   9.249  24.737  1.00  0.00     0.068 A 
HETATM    6  C16 UNL     1      -0.317   9.098  24.762  1.00  0.00     0.212 A 
HETATM    7  N7  UNL     1      -0.740   8.671  23.689  1.00  0.00    -0.411 NA
ENDROOT
BRANCH   1   8
HETATM    8  O1  UNL     1      -2.077   7.172  20.950  1.00  0.00    -0.343 OA
ATOM      9  H1  UNL     1      -2.659   7.470  21.640  1.00  0.00     0.219 HD
ENDBRANCH   1   8
BRANCH   1  10
HETATM   10  N1  UNL     1      -0.140   7.691  20.053  1.00  0.00    -0.167 N 
ATOM     11  H1  UNL     1       0.032   8.623  19.677  1.00  0.00     0.186 HD
BRANCH  10  12
HETATM   12  C2  UNL     1       0.353   6.840  19.314  1.00  0.00     0.685 A 
HETATM   13  N2  UNL     1       1.608   7.013  18.815  1.00  0.00    -0.176 N 
HETATM   14  C3  UNL     1       2.270   6.189  18.029  1.00  0.00     0.122 A 
ATOM     15  H2  UNL     1       2.088   7.874  19.078  1.00  0.00     0.186 HD
HETATM   16  C7  UNL     1       1.602   5.005  17.674  1.00  0.00     0.066 A 
HETATM   17  C8  UNL     1       0.330   4.778  18.151  1.00  0.00     0.110 A 
HETATM   18  N4  UNL     1      -0.260   5.665  18.938  1.00  0.00    -0.202 N 
ATOM     19  H4  UNL     1      -1.202   5.470  19.278  1.00  0.00     0.183 HD
BRANCH  14  20
HETATM   20  N3  UNL     1       3.578   6.391  17.527  1.00  0.00    -0.342 N 
ATOM     21  H3  UNL     1       3.707   6.412  16.516  1.00  0.00     0.167 HD
BRANCH  20  22
HETATM   22  C4  UNL     1       4.595   6.546  18.260  1.00  0.00     0.033 A 
HETATM   23  C5  UNL     1       5.558   7.466  18.697  1.00  0.00     0.032 A 
HETATM   24  C6  UNL     1       5.571   6.144  19.167  1.00  0.00     0.032 A 
ENDBRANCH  20  22
ENDBRANCH  14  20
ENDBRANCH  10  12
ENDBRANCH   1  10
BRANCH   5  25
HETATM   25  N5  UNL     1       1.816   9.740  25.815  1.00  0.00    -0.315 N 
HETATM   26  C13 UNL     1       3.179   9.952  25.881  1.00  0.00     0.115 A 
HETATM   27  C14 UNL     1       3.515  10.444  27.095  1.00  0.00     0.106 A 
HETATM   28  N6  UNL     1       2.339  10.534  27.772  1.00  0.00    -0.360 N 
HETATM   29  C15 UNL     1       1.345  10.112  26.999  1.00  0.00     0.188 A 
ATOM     30  H6  UNL     1       2.237  10.874  28.728  1.00  0.00     0.166 HD
ENDBRANCH   5  25
TORSDOF 6
ENDMDL
MODEL 3
REMARK VINA RESULT: -6.538689762      1.419      2.987
REMARK  6 active torsions:
REMARK  status: ('A' for Active; 'I' for Inactive)
REMARK    1  A    between atoms: O1_1  and  C1_3 
REMARK    2  A    between atoms: C1_3  and  N1_4 
REMARK    3  A    between atoms: N1_4  and  C2_6 
REMARK    4  A    between atoms: C3_9  and  N3_10 
REMARK    5  A    between atoms: N3_10  and  C4_12 
REMARK    6  A    between atoms: C12_22  and  N5_23 
ROOT
HETATM    1  C1  UNL     1       0.340   9.745  20.199  1.00  0.00     0.196 C 
HETATM    2  C9  UNL     1       0.104  10.178  21.481  1.00  0.00     0.157 A 
HETATM    3  C10 UNL     1       1.563   9.473  22.085  1.00  0.00     0.051 A 
HETATM    4  C11 UNL     1       1.879   9.576  23.330  1.00  0.00     0.036 A 
HETATM    5  C12 UNL     1       1.240  10.192  24.384  1.00  0.00     0.068 A 
HETATM    6  C16 UNL     1       0.009  10.783  23.870  1.00  0.00     0.212 A 
HETATM    7  N7  UNL     1      -0.115  10.577  22.664  1.00  0.00    -0.411 NA
ENDROOT
BRANCH   1   8
HETATM    8  O1  UNL     1      -0.831   9.824  19.430  1.00  0.00    -0.343 OA
ATOM      9  H1  UNL     1      -0.705   9.225  18.704  1.00  0.00     0.219 HD
ENDBRANCH   1   8
BRANCH   1  10
HETATM   10  N1  UNL     1       1.295   9.273  19.370  1.00  0.00    -0.167 N 
ATOM     11  H1  UNL     1       1.893  10.037  19.055  1.00  0.00     0.186 HD
BRANCH  10  12
HETATM   12  C2  UNL     1       1.670   8.211  18.875  1.00  0.00     0.685 A 
HETATM   13  N2  UNL     1       0.924   7.082  19.033  1.00  0.00    -0.176 N 
HETATM   14  C3  UNL     1       1.186   5.884  18.553  1.00  0.00     0.122 A 
ATOM     15  H2  UNL     1       0.069   7.175  19.582  1.00  0.00     0.186 HD
HETATM   16  C7  UNL     1       2.364   5.767  17.795  1.00  0.00     0.066 A 
HETATM   17  C8  UNL     1       3.156   6.877  17.603  1.00  0.00     0.110 A 
HETATM   18  N4  UNL     1       2.813   8.045  18.125  1.00  0.00    -0.202 N 
ATOM     19  H4  UNL     1       3.418   8.851  17.966  1.00  0.00     0.183 HD
BRANCH  14  20
HETATM   20  N3  UNL     1       0.390   4.727  18.728  1.00  0.00    -0.342 N 
ATOM     21  H3  UNL     1       0.147   4.450  19.679  1.00  0.00     0.167 HD
BRANCH  20  22
HETATM   22  C4  UNL     1      -0.036   4.017  17.774  1.00  0.00     0.033 A 
HETATM   23  C5  UNL     1      -1.062   3.868  16.831  1.00  0.00     0.032 A 
HETATM   24  C6  UNL     1       0.008   2.961  16.869  1.00  0.00     0.032 A 
ENDBRANCH  20  22
ENDBRANCH  14  20
ENDBRANCH  10  12
ENDBRANCH   1  10
BRANCH   5  25
HETATM   25  N5  UNL     1       1.598  10.325  25.696  1.00  0.00    -0.315 N 
HETATM   26  C13 UNL     1       0.782  10.093  26.786  1.00  0.00     0.115 A 
HETATM   27  C14 UNL     1       1.460  10.322  27.933  1.00  0.00     0.106 A 
HETATM   28  N6  UNL     1       2.704  10.695  27.533  1.00  0.00    -0.360 N 
HETATM   29  C15 UNL     1       2.768  10.693  26.207  1.00  0.00     0.188 A 
ATOM     30  H6  UNL     1       3.473  10.940  28.158  1.00  0.00     0.166 HD
ENDBRANCH   5  25
TORSDOF 6
ENDMDL
MODEL 4
REMARK VINA RESULT: -6.524926894      3.790      6.957
REMARK  6 active torsions:
REMARK  status: ('A' for Active; 'I' for Inactive)
REMARK    1  A    between atoms: O1_1  and  C1_3 
REMARK    2  A    between atoms: C1_3  and  N1_4 
REMARK    3  A    between atoms: N1_4  and  C2_6 
REMARK    4  A    between atoms: C3_9  and  N3_10 
REMARK    5  A    between atoms: N3_10  and  C4_12 
REMARK    6  A    between atoms: C12_22  and  N5_23 
ROOT
HETATM    1  C1  UNL     1      -0.526   5.519  19.513  1.00  0.00     0.196 C 
HETATM    2  C9  UNL     1      -1.867   5.762  19.686  1.00  0.00     0.157 A 
HETATM    3  C10 UNL     1      -1.837   7.163  18.672  1.00  0.00     0.051 A 
HETATM    4  C11 UNL     1      -2.909   7.847  18.460  1.00  0.00     0.036 A 
HETATM    5  C12 UNL     1      -4.199   7.680  18.913  1.00  0.00     0.068 A 
HETATM    6  C16 UNL     1      -4.219   6.499  19.768  1.00  0.00     0.212 A 
HETATM    7  N7  UNL     1      -3.104   5.986  19.846  1.00  0.00    -0.411 NA
ENDROOT
BRANCH   1   8
HETATM    8  O1  UNL     1      -0.059   4.622  20.485  1.00  0.00    -0.343 OA
ATOM      9  H1  UNL     1      -0.771   4.520  21.107  1.00  0.00     0.219 HD
ENDBRANCH   1   8
BRANCH   1  10
HETATM   10  N1  UNL     1       0.540   5.810  18.737  1.00  0.00    -0.167 N 
ATOM     11  H1  UNL     1       0.311   5.654  17.755  1.00  0.00     0.186 HD
BRANCH  10  12
HETATM   12  C2  UNL     1       1.701   6.203  18.842  1.00  0.00     0.685 A 
HETATM   13  N2  UNL     1       2.124   6.782  20.001  1.00  0.00    -0.176 N 
HETATM   14  C3  UNL     1       3.332   7.235  20.266  1.00  0.00     0.122 A 
ATOM     15  H2  UNL     1       1.430   6.874  20.743  1.00  0.00     0.186 HD
HETATM   16  C7  UNL     1       4.281   7.101  19.238  1.00  0.00     0.066 A 
HETATM   17  C8  UNL     1       3.907   6.522  18.046  1.00  0.00     0.110 A 
HETATM   18  N4  UNL     1       2.667   6.094  17.866  1.00  0.00    -0.202 N 
ATOM     19  H4  UNL     1       2.419   5.668  16.973  1.00  0.00     0.183 HD
BRANCH  14  20
HETATM   20  N3  UNL     1       3.747   7.829  21.482  1.00  0.00    -0.342 N 
ATOM     21  H3  UNL     1       4.742   7.822  21.705  1.00  0.00     0.167 HD
BRANCH  20  22
HETATM   22  C4  UNL     1       2.956   8.366  22.307  1.00  0.00     0.033 A 
HETATM   23  C5  UNL     1       2.624   9.562  22.958  1.00  0.00     0.032 A 
HETATM   24  C6  UNL     1       1.879   8.395  23.188  1.00  0.00     0.032 A 
ENDBRANCH  20  22
ENDBRANCH  14  20
ENDBRANCH  10  12
ENDBRANCH   1  10
BRANCH   5  25
HETATM   25  N5  UNL     1      -5.338   8.392  18.657  1.00  0.00    -0.315 N 
HETATM   26  C13 UNL     1      -6.627   7.983  18.936  1.00  0.00     0.115 A 
HETATM   27  C14 UNL     1      -7.510   8.933  18.551  1.00  0.00     0.106 A 
HETATM   28  N6  UNL     1      -6.745   9.930  18.034  1.00  0.00    -0.360 N 
HETATM   29  C15 UNL     1      -5.462   9.592  18.104  1.00  0.00     0.188 A 
ATOM     30  H6  UNL     1      -7.101  10.806  17.651  1.00  0.00     0.166 HD
ENDBRANCH   5  25
TORSDOF 6
ENDMDL
MODEL 5
REMARK VINA RESULT: -6.513815333      3.452      4.064
REMARK  6 active torsions:
REMARK  status: ('A' for Active; 'I' for Inactive)
REMARK    1  A    between atoms: O1_1  and  C1_3 
REMARK    2  A    between atoms: C1_3  and  N1_4 
REMARK    3  A    between atoms: N1_4  and  C2_6 
REMARK    4  A    between atoms: C3_9  and  N3_10 
REMARK    5  A    between atoms: N3_10  and  C4_12 
REMARK    6  A    between atoms: C12_22  and  N5_23 
ROOT
HETATM    1  C1  UNL     1      -1.555   8.112  19.696  1.00  0.00     0.196 C 
HETATM    2  C9  UNL     1      -2.054   9.392  19.713  1.00  0.00     0.157 A 
HETATM    3  C10 UNL     1      -0.578  10.057  20.322  1.00  0.00     0.051 A 
HETATM    4  C11 UNL     1      -0.469  11.321  20.549  1.00  0.00     0.036 A 
HETATM    5  C12 UNL     1      -1.365  12.355  20.390  1.00  0.00     0.068 A 
HETATM    6  C16 UNL     1      -2.608  11.789  19.878  1.00  0.00     0.212 A 
HETATM    7  N7  UNL     1      -2.516  10.572  19.729  1.00  0.00    -0.411 NA
ENDROOT
BRANCH   1   8
HETATM    8  O1  UNL     1      -2.596   7.180  19.580  1.00  0.00    -0.343 OA
ATOM      9  H1  UNL     1      -3.108   7.455  18.828  1.00  0.00     0.219 HD
ENDBRANCH   1   8
BRANCH   1  10
HETATM   10  N1  UNL     1      -0.415   7.390  19.737  1.00  0.00    -0.167 N 
ATOM     11  H1  UNL     1       0.075   7.559  20.614  1.00  0.00     0.186 HD
BRANCH  10  12
HETATM   12  C2  UNL     1       0.217   6.591  19.047  1.00  0.00     0.685 A 
HETATM   13  N2  UNL     1       1.480   6.894  18.634  1.00  0.00    -0.176 N 
HETATM   14  C3  UNL     1       2.280   6.140  17.910  1.00  0.00     0.122 A 
ATOM     15  H2  UNL     1       1.845   7.804  18.918  1.00  0.00     0.186 HD
HETATM   16  C7  UNL     1       1.769   4.889  17.526  1.00  0.00     0.066 A 
HETATM   17  C8  UNL     1       0.498   4.531  17.916  1.00  0.00     0.110 A 
HETATM   18  N4  UNL     1      -0.238   5.354  18.646  1.00  0.00    -0.202 N 
ATOM     19  H4  UNL     1      -1.176   5.062  18.921  1.00  0.00     0.183 HD
BRANCH  14  20
HETATM   20  N3  UNL     1       3.592   6.478  17.498  1.00  0.00    -0.342 N 
ATOM     21  H3  UNL     1       3.759   6.636  16.505  1.00  0.00     0.167 HD
BRANCH  20  22
HETATM   22  C4  UNL     1       4.568   6.595  18.292  1.00  0.00     0.033 A 
HETATM   23  C5  UNL     1       5.544   7.474  18.779  1.00  0.00     0.032 A 
HETATM   24  C6  UNL     1       5.466   6.158  19.261  1.00  0.00     0.032 A 
ENDBRANCH  20  22
ENDBRANCH  14  20
ENDBRANCH  10  12
ENDBRANCH   1  10
BRANCH   5  25
HETATM   25  N5  UNL     1      -1.230  13.699  20.603  1.00  0.00    -0.315 N 
HETATM   26  C13 UNL     1      -2.260  14.617  20.656  1.00  0.00     0.115 A 
HETATM   27  C14 UNL     1      -1.767  15.856  20.881  1.00  0.00     0.106 A 
HETATM   28  N6  UNL     1      -0.422  15.686  20.967  1.00  0.00    -0.360 N 
HETATM   29  C15 UNL     1      -0.122  14.403  20.798  1.00  0.00     0.188 A 
ATOM     30  H6  UNL     1       0.255  16.431  21.135  1.00  0.00     0.166 HD
ENDBRANCH   5  25
TORSDOF 6
ENDMDL
