MODEL 1
REMARK VINA RESULT: -7.356843643      0.000      0.000
REMARK  6 active torsions:
REMARK  status: ('A' for Active; 'I' for Inactive)
REMARK    1  A    between atoms: N1_1  and  S1_4 
REMARK    2  A    between atoms: S1_4  and  C1_6 
REMARK    3  A    between atoms: C4_9  and  C5_10 
REMARK    4  A    between atoms: C5_10  and  O3_12 
REMARK    5  A    between atoms: O3_12  and  N2_13 
REMARK    6  A    between atoms: N2_13  and  C6_15 
ROOT
HETATM    1  N2  UNL     1      -1.892   7.586  21.770  1.00  0.00    -0.239 N 
ATOM      2  H2  UNL     1      -2.738   7.691  22.330  1.00  0.00     0.196 HD
ENDROOT
BRANCH   1   3
HETATM    3  O3  UNL     1      -0.678   7.667  22.412  1.00  0.00    -0.193 OA
BRANCH   3   4
HETATM    4  C5  UNL     1       0.322   8.549  22.052  1.00  0.00     0.315 C 
HETATM    5  O2  UNL     1       0.308   9.687  22.573  1.00  0.00    -0.257 OA
BRANCH   4   6
HETATM    6  C4  UNL     1       1.368   8.151  21.085  1.00  0.00     0.041 A 
HETATM    7  C3  UNL     1       1.244   8.594  19.803  1.00  0.00     0.019 A 
HETATM    8  C2  UNL     1       2.234   8.223  18.846  1.00  0.00     0.024 A 
HETATM    9  C1  UNL     1       3.237   7.453  19.263  1.00  0.00     0.052 A 
HETATM   10  C14 UNL     1       3.395   6.998  20.512  1.00  0.00     0.024 A 
HETATM   11  C13 UNL     1       2.413   7.364  21.470  1.00  0.00     0.019 A 
BRANCH   9  12
HETATM   12  S1  UNL     1       4.383   6.874  18.059  1.00  0.00     0.144 S 
HETATM   13  O1  UNL     1       3.187   7.414  17.123  1.00  0.00    -0.230 OA
BRANCH  12  14
HETATM   14  N1  UNL     1       5.477   6.351  17.982  1.00  0.00    -0.346 N 
ATOM     15  H12 UNL     1       6.465   6.599  17.946  1.00  0.00     0.166 HD
ATOM     16  H11 UNL     1       5.911   5.431  17.918  1.00  0.00     0.166 HD
ENDBRANCH  12  14
ENDBRANCH   9  12
ENDBRANCH   4   6
ENDBRANCH   3   4
ENDBRANCH   1   3
BRANCH   1  17
HETATM   17  C6  UNL     1      -2.023   7.386  20.517  1.00  0.00     0.156 A 
HETATM   18  N3  UNL     1      -2.596   8.313  19.772  1.00  0.00    -0.335 N 
HETATM   19  C7  UNL     1      -2.760   8.154  18.444  1.00  0.00     0.182 A 
ATOM     20  H3  UNL     1      -2.924   9.173  20.214  1.00  0.00     0.168 HD
HETATM   21  N4  UNL     1      -2.322   7.017  17.892  1.00  0.00    -0.350 N 
HETATM   22  C8  UNL     1      -1.733   6.044  18.602  1.00  0.00     0.064 A 
ATOM     23  H4  UNL     1      -2.440   6.885  16.887  1.00  0.00     0.166 HD
HETATM   24  C9  UNL     1      -1.283   4.872  18.017  1.00  0.00     0.033 A 
HETATM   25  C12 UNL     1      -1.564   6.207  19.967  1.00  0.00     0.105 A 
HETATM   26  C10 UNL     1      -0.694   3.934  18.822  1.00  0.00     0.019 A 
HETATM   27  C11 UNL     1      -0.540   4.124  20.178  1.00  0.00     0.088 A 
HETATM   28  N5  UNL     1      -0.974   5.254  20.736  1.00  0.00    -0.361 N 
ATOM     29  H5  UNL     1      -0.863   5.404  21.739  1.00  0.00     0.165 HD
ENDBRANCH   1  17
TORSDOF 6
ENDMDL
MODEL 2
REMARK VINA RESULT: -7.050996035      1.847      3.350
REMARK  6 active torsions:
REMARK  status: ('A' for Active; 'I' for Inactive)
REMARK    1  A    between atoms: N1_1  and  S1_4 
REMARK    2  A    between atoms: S1_4  and  C1_6 
REMARK    3  A    between atoms: C4_9  and  C5_10 
REMARK    4  A    between atoms: C5_10  and  O3_12 
REMARK    5  A    between atoms: O3_12  and  N2_13 
REMARK    6  A    between atoms: N2_13  and  C6_15 
ROOT
HETATM    1  N2  UNL     1      -2.738   6.577  21.093  1.00  0.00    -0.239 N 
ATOM      2  H2  UNL     1      -3.668   6.424  21.483  1.00  0.00     0.196 HD
ENDROOT
BRANCH   1   3
HETATM    3  O3  UNL     1      -1.699   5.820  21.583  1.00  0.00    -0.193 OA
BRANCH   3   4
HETATM    4  C5  UNL     1      -0.854   5.072  20.787  1.00  0.00     0.315 C 
HETATM    5  O2  UNL     1      -1.149   3.871  20.595  1.00  0.00    -0.257 OA
BRANCH   4   6
HETATM    6  C4  UNL     1       0.354   5.680  20.187  1.00  0.00     0.041 A 
HETATM    7  C3  UNL     1       0.601   5.425  18.872  1.00  0.00     0.019 A 
HETATM    8  C2  UNL     1       1.761   5.992  18.266  1.00  0.00     0.024 A 
HETATM    9  C1  UNL     1       2.549   6.748  19.029  1.00  0.00     0.052 A 
HETATM   10  C14 UNL     1       2.339   7.023  20.322  1.00  0.00     0.024 A 
HETATM   11  C13 UNL     1       1.187   6.461  20.931  1.00  0.00     0.019 A 
BRANCH   9  12
HETATM   12  S1  UNL     1       4.053   7.333  18.328  1.00  0.00     0.144 S 
HETATM   13  O1  UNL     1       3.009   7.653  17.144  1.00  0.00    -0.230 OA
BRANCH  12  14
HETATM   14  N1  UNL     1       5.234   7.435  18.596  1.00  0.00    -0.346 N 
ATOM     15  H12 UNL     1       6.071   6.861  18.696  1.00  0.00     0.166 HD
ATOM     16  H11 UNL     1       5.931   8.138  18.843  1.00  0.00     0.166 HD
ENDBRANCH  12  14
ENDBRANCH   9  12
ENDBRANCH   4   6
ENDBRANCH   3   4
ENDBRANCH   1   3
BRANCH   1  17
HETATM   17  C6  UNL     1      -2.608   7.458  20.180  1.00  0.00     0.156 A 
HETATM   18  N3  UNL     1      -3.188   7.265  19.010  1.00  0.00    -0.335 N 
HETATM   19  C7  UNL     1      -3.084   8.164  18.010  1.00  0.00     0.182 A 
ATOM     20  H3  UNL     1      -3.728   6.413  18.858  1.00  0.00     0.168 HD
HETATM   21  N4  UNL     1      -2.368   9.271  18.237  1.00  0.00    -0.350 N 
HETATM   22  C8  UNL     1      -1.759   9.516  19.406  1.00  0.00     0.064 A 
ATOM     23  H4  UNL     1      -2.282   9.958  17.489  1.00  0.00     0.166 HD
HETATM   24  C9  UNL     1      -1.022  10.667  19.628  1.00  0.00     0.033 A 
HETATM   25  C12 UNL     1      -1.866   8.593  20.434  1.00  0.00     0.105 A 
HETATM   26  C10 UNL     1      -0.435  10.831  20.855  1.00  0.00     0.019 A 
HETATM   27  C11 UNL     1      -0.559   9.895  21.857  1.00  0.00     0.088 A 
HETATM   28  N5  UNL     1      -1.270   8.789  21.640  1.00  0.00    -0.361 N 
ATOM     29  H5  UNL     1      -1.368   8.091  22.378  1.00  0.00     0.165 HD
ENDBRANCH   1  17
TORSDOF 6
ENDMDL
MODEL 3
REMARK VINA RESULT: -7.043116033      1.447      2.310
REMARK  6 active torsions:
REMARK  status: ('A' for Active; 'I' for Inactive)
REMARK    1  A    between atoms: N1_1  and  S1_4 
REMARK    2  A    between atoms: S1_4  and  C1_6 
REMARK    3  A    between atoms: C4_9  and  C5_10 
REMARK    4  A    between atoms: C5_10  and  O3_12 
REMARK    5  A    between atoms: O3_12  and  N2_13 
REMARK    6  A    between atoms: N2_13  and  C6_15 
ROOT
HETATM    1  N2  UNL     1      -1.828   8.717  18.967  1.00  0.00    -0.239 N 
ATOM      2  H2  UNL     1      -2.546   8.792  18.246  1.00  0.00     0.196 HD
ENDROOT
BRANCH   1   3
HETATM    3  O3  UNL     1      -0.786   9.615  18.938  1.00  0.00    -0.193 OA
BRANCH   3   4
HETATM    4  C5  UNL     1       0.255   9.610  19.845  1.00  0.00     0.315 C 
HETATM    5  O2  UNL     1       0.147  10.339  20.857  1.00  0.00    -0.257 OA
BRANCH   4   6
HETATM    6  C4  UNL     1       1.449   8.766  19.620  1.00  0.00     0.041 A 
HETATM    7  C3  UNL     1       1.961   8.099  20.692  1.00  0.00     0.019 A 
HETATM    8  C2  UNL     1       3.116   7.282  20.508  1.00  0.00     0.024 A 
HETATM    9  C1  UNL     1       3.637   7.217  19.284  1.00  0.00     0.052 A 
HETATM   10  C14 UNL     1       3.164   7.855  18.208  1.00  0.00     0.024 A 
HETATM   11  C13 UNL     1       2.015   8.670  18.384  1.00  0.00     0.019 A 
BRANCH   9  12
HETATM   12  S1  UNL     1       5.142   6.327  19.081  1.00  0.00     0.144 S 
HETATM   13  O1  UNL     1       4.844   6.793  17.567  1.00  0.00    -0.230 OA
BRANCH  12  14
HETATM   14  N1  UNL     1       5.957   5.703  19.731  1.00  0.00    -0.346 N 
ATOM     15  H12 UNL     1       6.127   4.761  20.082  1.00  0.00     0.166 HD
ATOM     16  H11 UNL     1       6.841   5.830  20.223  1.00  0.00     0.166 HD
ENDBRANCH  12  14
ENDBRANCH   9  12
ENDBRANCH   4   6
ENDBRANCH   3   4
ENDBRANCH   1   3
BRANCH   1  17
HETATM   17  C6  UNL     1      -1.950   7.795  19.840  1.00  0.00     0.156 A 
HETATM   18  N3  UNL     1      -2.673   8.022  20.921  1.00  0.00    -0.335 N 
HETATM   19  C7  UNL     1      -2.835   7.084  21.875  1.00  0.00     0.182 A 
ATOM     20  H3  UNL     1      -3.119   8.932  21.038  1.00  0.00     0.168 HD
HETATM   21  N4  UNL     1      -2.237   5.901  21.697  1.00  0.00    -0.350 N 
HETATM   22  C8  UNL     1      -1.493   5.618  20.618  1.00  0.00     0.064 A 
ATOM     23  H4  UNL     1      -2.353   5.182  22.412  1.00  0.00     0.166 HD
HETATM   24  C9  UNL     1      -0.880   4.388  20.446  1.00  0.00     0.033 A 
HETATM   25  C12 UNL     1      -1.325   6.582  19.637  1.00  0.00     0.105 A 
HETATM   26  C10 UNL     1      -0.138   4.191  19.311  1.00  0.00     0.019 A 
HETATM   27  C11 UNL     1       0.010   5.169  18.353  1.00  0.00     0.088 A 
HETATM   28  N5  UNL     1      -0.582   6.350  18.522  1.00  0.00    -0.361 N 
ATOM     29  H5  UNL     1      -0.478   7.080  17.817  1.00  0.00     0.165 HD
ENDBRANCH   1  17
TORSDOF 6
ENDMDL
MODEL 4
REMARK VINA RESULT: -6.882746999      2.947      5.162
REMARK  6 active torsions:
REMARK  status: ('A' for Active; 'I' for Inactive)
REMARK    1  A    between atoms: N1_1  and  S1_4 
REMARK    2  A    between atoms: S1_4  and  C1_6 
REMARK    3  A    between atoms: C4_9  and  C5_10 
REMARK    4  A    between atoms: C5_10  and  O3_12 
REMARK    5  A    between atoms: O3_12  and  N2_13 
REMARK    6  A    between atoms: N2_13  and  C6_15 
ROOT
HETATM    1  N2  UNL     1       0.284   9.676  19.985  1.00  0.00    -0.239 N 
ATOM      2  H2  UNL     1       0.337  10.695  20.006  1.00  0.00     0.196 HD
ENDROOT
BRANCH   1   3
HETATM    3  O3  UNL     1      -0.769   9.097  19.316  1.00  0.00    -0.193 OA
BRANCH   3   4
HETATM    4  C5  UNL     1      -1.392   7.936  19.727  1.00  0.00     0.315 C 
HETATM    5  O2  UNL     1      -2.113   7.994  20.749  1.00  0.00    -0.257 OA
BRANCH   4   6
HETATM    6  C4  UNL     1      -1.209   6.674  18.977  1.00  0.00     0.041 A 
HETATM    7  C3  UNL     1      -0.206   5.843  19.377  1.00  0.00     0.019 A 
HETATM    8  C2  UNL     1      -0.001   4.621  18.671  1.00  0.00     0.024 A 
HETATM    9  C1  UNL     1      -0.810   4.357  17.646  1.00  0.00     0.052 A 
HETATM   10  C14 UNL     1      -1.804   5.146  17.224  1.00  0.00     0.024 A 
HETATM   11  C13 UNL     1      -2.014   6.364  17.922  1.00  0.00     0.019 A 
BRANCH   9  12
HETATM   12  S1  UNL     1      -0.472   2.923  16.683  1.00  0.00     0.144 S 
HETATM   13  O1  UNL     1      -0.059   2.418  18.156  1.00  0.00    -0.230 OA
BRANCH  12  14
HETATM   14  N1  UNL     1      -0.523   2.533  15.533  1.00  0.00    -0.346 N 
ATOM     15  H12 UNL     1      -0.674   1.678  14.999  1.00  0.00     0.166 HD
ATOM     16  H11 UNL     1      -0.440   2.878  14.577  1.00  0.00     0.166 HD
ENDBRANCH  12  14
ENDBRANCH   9  12
ENDBRANCH   4   6
ENDBRANCH   3   4
ENDBRANCH   1   3
BRANCH   1  17
HETATM   17  C6  UNL     1       1.199   9.017  20.582  1.00  0.00     0.156 A 
HETATM   18  N3  UNL     1       1.232   9.009  21.902  1.00  0.00    -0.335 N 
HETATM   19  C7  UNL     1       2.176   8.328  22.582  1.00  0.00     0.182 A 
ATOM     20  H3  UNL     1       0.525   9.531  22.420  1.00  0.00     0.168 HD
HETATM   21  N4  UNL     1       3.091   7.654  21.877  1.00  0.00    -0.350 N 
HETATM   22  C8  UNL     1       3.103   7.630  20.537  1.00  0.00     0.064 A 
ATOM     23  H4  UNL     1       3.811   7.135  22.381  1.00  0.00     0.166 HD
HETATM   24  C9  UNL     1       4.057   6.927  19.819  1.00  0.00     0.033 A 
HETATM   25  C12 UNL     1       2.133   8.328  19.836  1.00  0.00     0.105 A 
HETATM   26  C10 UNL     1       3.989   6.960  18.452  1.00  0.00     0.019 A 
HETATM   27  C11 UNL     1       3.012   7.664  17.783  1.00  0.00     0.088 A 
HETATM   28  N5  UNL     1       2.096   8.339  18.477  1.00  0.00    -0.361 N 
ATOM     29  H5  UNL     1       1.368   8.862  17.990  1.00  0.00     0.165 HD
ENDBRANCH   1  17
TORSDOF 6
ENDMDL
MODEL 5
REMARK VINA RESULT: -6.837139750      2.567      4.922
REMARK  6 active torsions:
REMARK  status: ('A' for Active; 'I' for Inactive)
REMARK    1  A    between atoms: N1_1  and  S1_4 
REMARK    2  A    between atoms: S1_4  and  C1_6 
REMARK    3  A    between atoms: C4_9  and  C5_10 
REMARK    4  A    between atoms: C5_10  and  O3_12 
REMARK    5  A    between atoms: O3_12  and  N2_13 
REMARK    6  A    between atoms: N2_13  and  C6_15 
ROOT
HETATM    1  N2  UNL     1      -0.565   8.532  20.557  1.00  0.00    -0.239 N 
ATOM      2  H2  UNL     1      -0.628   9.062  19.687  1.00  0.00     0.196 HD
ENDROOT
BRANCH   1   3
HETATM    3  O3  UNL     1      -1.735   8.078  21.122  1.00  0.00    -0.193 OA
BRANCH   3   4
HETATM    4  C5  UNL     1      -2.165   6.769  21.044  1.00  0.00     0.315 C 
HETATM    5  O2  UNL     1      -2.937   6.357  21.939  1.00  0.00    -0.257 OA
BRANCH   4   6
HETATM    6  C4  UNL     1      -1.724   5.893  19.937  1.00  0.00     0.041 A 
HETATM    7  C3  UNL     1      -0.822   4.914  20.227  1.00  0.00     0.019 A 
HETATM    8  C2  UNL     1      -0.373   4.057  19.179  1.00  0.00     0.024 A 
HETATM    9  C1  UNL     1      -0.867   4.263  17.959  1.00  0.00     0.052 A 
HETATM   10  C14 UNL     1      -1.754   5.211  17.635  1.00  0.00     0.024 A 
HETATM   11  C13 UNL     1      -2.204   6.068  18.673  1.00  0.00     0.019 A 
BRANCH   9  12
HETATM   12  S1  UNL     1      -0.212   3.304  16.637  1.00  0.00     0.144 S 
HETATM   13  O1  UNL     1       1.112   4.053  17.169  1.00  0.00    -0.230 OA
BRANCH  12  14
HETATM   14  N1  UNL     1      -0.570   2.512  15.788  1.00  0.00    -0.346 N 
ATOM     15  H12 UNL     1      -0.183   1.913  15.059  1.00  0.00     0.166 HD
ATOM     16  H11 UNL     1      -1.415   2.081  15.414  1.00  0.00     0.166 HD
ENDBRANCH  12  14
ENDBRANCH   9  12
ENDBRANCH   4   6
ENDBRANCH   3   4
ENDBRANCH   1   3
BRANCH   1  17
HETATM   17  C6  UNL     1       0.592   8.330  21.053  1.00  0.00     0.156 A 
HETATM   18  N3  UNL     1       0.806   8.610  22.325  1.00  0.00    -0.335 N 
HETATM   19  C7  UNL     1       2.010   8.416  22.901  1.00  0.00     0.182 A 
ATOM     20  H3  UNL     1       0.041   8.984  22.887  1.00  0.00     0.168 HD
HETATM   21  N4  UNL     1       2.995   7.926  22.140  1.00  0.00    -0.350 N 
HETATM   22  C8  UNL     1       2.831   7.625  20.844  1.00  0.00     0.064 A 
ATOM     23  H4  UNL     1       3.910   7.774  22.564  1.00  0.00     0.166 HD
HETATM   24  C9  UNL     1       3.860   7.117  20.068  1.00  0.00     0.033 A 
HETATM   25  C12 UNL     1       1.594   7.823  20.251  1.00  0.00     0.105 A 
HETATM   26  C10 UNL     1       3.598   6.839  18.753  1.00  0.00     0.019 A 
HETATM   27  C11 UNL     1       2.358   7.048  18.191  1.00  0.00     0.088 A 
HETATM   28  N5  UNL     1       1.371   7.535  18.942  1.00  0.00    -0.361 N 
ATOM     29  H5  UNL     1       0.449   7.692  18.535  1.00  0.00     0.165 HD
ENDBRANCH   1  17
TORSDOF 6
ENDMDL
