MODEL 1
REMARK VINA RESULT: -6.841680212      0.000      0.000
REMARK  4 active torsions:
REMARK  status: ('A' for Active; 'I' for Inactive)
REMARK    1  A    between atoms: C5_6  and  N2_7 
REMARK    2  A    between atoms: N2_7  and  C6_9 
REMARK    3  A    between atoms: N3_12  and  C9_13 
REMARK    4  A    between atoms: C12_18  and  N5_19 
ROOT
HETATM    1  N1  UNL     1      -0.437   2.775  16.052  1.00  0.00    -0.191 NA
HETATM    2  C1  UNL     1      -0.025   3.557  16.800  1.00  0.00     0.101 C 
HETATM    3  C2  UNL     1       0.471   4.524  17.748  1.00  0.00     0.060 A 
HETATM    4  C3  UNL     1      -0.160   4.776  18.939  1.00  0.00     0.028 A 
HETATM    5  C4  UNL     1       0.375   5.722  19.802  1.00  0.00     0.050 A 
HETATM    6  C5  UNL     1       1.524   6.427  19.516  1.00  0.00     0.101 A 
HETATM    7  N7  UNL     1       2.134   6.158  18.321  1.00  0.00    -0.351 N 
ATOM      8  H7  UNL     1       2.986   6.655  18.065  1.00  0.00     0.166 HD
HETATM    9  C17 UNL     1       1.618   5.243  17.485  1.00  0.00     0.112 A 
ENDROOT
BRANCH   6  10
HETATM   10  N2  UNL     1       2.038   7.306  20.298  1.00  0.00    -0.370 N 
ATOM     11  H2  UNL     1       2.971   7.667  20.095  1.00  0.00     0.161 HD
BRANCH  10  12
HETATM   12  C6  UNL     1       1.332   7.797  21.457  1.00  0.00     0.103 C 
HETATM   13  C7  UNL     1       0.962   9.266  21.267  1.00  0.00     0.047 C 
HETATM   14  C8  UNL     1       1.774   9.979  22.309  1.00  0.00     0.143 C 
HETATM   15  N3  UNL     1       1.905   8.994  23.358  1.00  0.00    -0.216 N 
HETATM   16  C16 UNL     1       2.181   7.734  22.706  1.00  0.00     0.166 C 
BRANCH  15  17
HETATM   17  C9  UNL     1       1.781   9.249  24.750  1.00  0.00     0.681 A 
HETATM   18  N4  UNL     1       2.511  10.256  25.308  1.00  0.00    -0.202 N 
HETATM   19  C10 UNL     1       2.413  10.520  26.623  1.00  0.00     0.110 A 
ATOM     20  H4  UNL     1       3.136  10.812  24.724  1.00  0.00     0.183 HD
HETATM   21  C11 UNL     1       1.584   9.798  27.455  1.00  0.00     0.066 A 
HETATM   22  C12 UNL     1       0.851   8.782  26.879  1.00  0.00     0.120 A 
HETATM   23  N6  UNL     1       0.973   8.543  25.551  1.00  0.00    -0.177 N 
ATOM     24  H6  UNL     1       0.423   7.788  25.142  1.00  0.00     0.186 HD
BRANCH  22  25
HETATM   25  N5  UNL     1      -0.024   7.992  27.656  1.00  0.00    -0.367 N 
HETATM   26  C13 UNL     1      -0.955   8.235  28.731  1.00  0.00     0.126 C 
HETATM   27  C14 UNL     1      -0.741   6.803  29.172  1.00  0.00     0.040 C 
HETATM   28  C15 UNL     1      -0.374   6.596  27.717  1.00  0.00     0.126 C 
ENDBRANCH  22  25
ENDBRANCH  15  17
ENDBRANCH  10  12
ENDBRANCH   6  10
TORSDOF 4
ENDMDL
MODEL 2
REMARK VINA RESULT: -6.593190880      0.725      1.096
REMARK  4 active torsions:
REMARK  status: ('A' for Active; 'I' for Inactive)
REMARK    1  A    between atoms: C5_6  and  N2_7 
REMARK    2  A    between atoms: N2_7  and  C6_9 
REMARK    3  A    between atoms: N3_12  and  C9_13 
REMARK    4  A    between atoms: C12_18  and  N5_19 
ROOT
HETATM    1  N1  UNL     1      -0.427   3.063  16.673  1.00  0.00    -0.191 NA
HETATM    2  C1  UNL     1       0.050   3.871  17.352  1.00  0.00     0.101 C 
HETATM    3  C2  UNL     1       0.660   4.884  18.178  1.00  0.00     0.060 A 
HETATM    4  C3  UNL     1       1.752   5.606  17.769  1.00  0.00     0.028 A 
HETATM    5  C4  UNL     1       2.286   6.565  18.619  1.00  0.00     0.050 A 
HETATM    6  C5  UNL     1       1.763   6.829  19.867  1.00  0.00     0.101 A 
HETATM    7  N7  UNL     1       0.675   6.095  20.250  1.00  0.00    -0.351 N 
ATOM      8  H7  UNL     1       0.254   6.255  21.165  1.00  0.00     0.166 HD
HETATM    9  C17 UNL     1       0.156   5.167  19.430  1.00  0.00     0.112 A 
ENDROOT
BRANCH   6  10
HETATM   10  N2  UNL     1       2.239   7.711  20.670  1.00  0.00    -0.370 N 
ATOM     11  H2  UNL     1       3.192   8.049  20.530  1.00  0.00     0.161 HD
BRANCH  10  12
HETATM   12  C6  UNL     1       1.462   8.238  21.765  1.00  0.00     0.103 C 
HETATM   13  C7  UNL     1       1.280   9.746  21.607  1.00  0.00     0.047 C 
HETATM   14  C8  UNL     1       2.039  10.324  22.766  1.00  0.00     0.143 C 
HETATM   15  N3  UNL     1       1.939   9.294  23.773  1.00  0.00    -0.216 N 
HETATM   16  C16 UNL     1       2.149   8.034  23.096  1.00  0.00     0.166 C 
BRANCH  15  17
HETATM   17  C9  UNL     1       1.683   9.512  25.154  1.00  0.00     0.681 A 
HETATM   18  N4  UNL     1       2.243  10.592  25.770  1.00  0.00    -0.202 N 
HETATM   19  C10 UNL     1       2.018  10.823  27.075  1.00  0.00     0.110 A 
ATOM     20  H4  UNL     1       2.837  11.228  25.237  1.00  0.00     0.183 HD
HETATM   21  C11 UNL     1       1.224   9.994  27.840  1.00  0.00     0.066 A 
HETATM   22  C12 UNL     1       0.665   8.906  27.206  1.00  0.00     0.120 A 
HETATM   23  N6  UNL     1       0.912   8.703  25.889  1.00  0.00    -0.177 N 
ATOM     24  H6  UNL     1       0.489   7.892  25.436  1.00  0.00     0.186 HD
BRANCH  22  25
HETATM   25  N5  UNL     1      -0.161   8.005  27.912  1.00  0.00    -0.367 N 
HETATM   26  C13 UNL     1      -1.076   8.096  29.023  1.00  0.00     0.126 C 
HETATM   27  C14 UNL     1      -0.798   6.636  29.307  1.00  0.00     0.040 C 
HETATM   28  C15 UNL     1      -0.456   6.596  27.832  1.00  0.00     0.126 C 
ENDBRANCH  22  25
ENDBRANCH  15  17
ENDBRANCH  10  12
ENDBRANCH   6  10
TORSDOF 4
ENDMDL
MODEL 3
REMARK VINA RESULT: -6.537805912      1.537      8.031
REMARK  4 active torsions:
REMARK  status: ('A' for Active; 'I' for Inactive)
REMARK    1  A    between atoms: C5_6  and  N2_7 
REMARK    2  A    between atoms: N2_7  and  C6_9 
REMARK    3  A    between atoms: N3_12  and  C9_13 
REMARK    4  A    between atoms: C12_18  and  N5_19 
ROOT
HETATM    1  N1  UNL     1      -0.477   6.413  28.189  1.00  0.00    -0.191 NA
HETATM    2  C1  UNL     1      -0.090   7.190  27.423  1.00  0.00     0.101 C 
HETATM    3  C2  UNL     1       0.415   8.153  26.475  1.00  0.00     0.060 A 
HETATM    4  C3  UNL     1       1.744   8.488  26.406  1.00  0.00     0.028 A 
HETATM    5  C4  UNL     1       2.158   9.424  25.468  1.00  0.00     0.050 A 
HETATM    6  C5  UNL     1       1.288  10.039  24.594  1.00  0.00     0.101 A 
HETATM    7  N7  UNL     1      -0.031   9.687  24.685  1.00  0.00    -0.351 N 
ATOM      8  H7  UNL     1      -0.713  10.117  24.059  1.00  0.00     0.166 HD
HETATM    9  C17 UNL     1      -0.434   8.782  25.590  1.00  0.00     0.112 A 
ENDROOT
BRANCH   6  10
HETATM   10  N2  UNL     1       1.647  10.907  23.719  1.00  0.00    -0.370 N 
ATOM     11  H2  UNL     1       1.818  11.869  24.014  1.00  0.00     0.161 HD
BRANCH  10  12
HETATM   12  C6  UNL     1       1.814  10.558  22.329  1.00  0.00     0.103 C 
HETATM   13  C7  UNL     1       0.525  10.830  21.557  1.00  0.00     0.047 C 
HETATM   14  C8  UNL     1       0.062   9.466  21.136  1.00  0.00     0.143 C 
HETATM   15  N3  UNL     1       1.294   8.722  21.012  1.00  0.00    -0.216 N 
HETATM   16  C16 UNL     1       2.111   9.087  22.147  1.00  0.00     0.166 C 
BRANCH  15  17
HETATM   17  C9  UNL     1       1.608   7.816  19.963  1.00  0.00     0.681 A 
HETATM   18  N4  UNL     1       2.690   8.066  19.172  1.00  0.00    -0.202 N 
HETATM   19  C10 UNL     1       3.012   7.225  18.174  1.00  0.00     0.110 A 
ATOM     20  H4  UNL     1       3.259   8.897  19.339  1.00  0.00     0.183 HD
HETATM   21  C11 UNL     1       2.277   6.090  17.906  1.00  0.00     0.066 A 
HETATM   22  C12 UNL     1       1.185   5.848  18.713  1.00  0.00     0.120 A 
HETATM   23  N6  UNL     1       0.889   6.716  19.711  1.00  0.00    -0.177 N 
ATOM     24  H6  UNL     1       0.079   6.521  20.298  1.00  0.00     0.186 HD
BRANCH  22  25
HETATM   25  N5  UNL     1       0.376   4.709  18.511  1.00  0.00    -0.367 N 
HETATM   26  C13 UNL     1       0.009   3.890  17.382  1.00  0.00     0.126 C 
HETATM   27  C14 UNL     1      -1.264   3.535  18.118  1.00  0.00     0.040 C 
HETATM   28  C15 UNL     1      -0.438   3.861  19.345  1.00  0.00     0.126 C 
ENDBRANCH  22  25
ENDBRANCH  15  17
ENDBRANCH  10  12
ENDBRANCH   6  10
TORSDOF 4
ENDMDL
MODEL 4
REMARK VINA RESULT: -6.488093218      1.977      8.911
REMARK  4 active torsions:
REMARK  status: ('A' for Active; 'I' for Inactive)
REMARK    1  A    between atoms: C5_6  and  N2_7 
REMARK    2  A    between atoms: N2_7  and  C6_9 
REMARK    3  A    between atoms: N3_12  and  C9_13 
REMARK    4  A    between atoms: C12_18  and  N5_19 
ROOT
HETATM    1  N1  UNL     1       0.674  10.674  29.619  1.00  0.00    -0.191 NA
HETATM    2  C1  UNL     1       0.979  10.413  28.532  1.00  0.00     0.101 C 
HETATM    3  C2  UNL     1       1.350  10.066  27.182  1.00  0.00     0.060 A 
HETATM    4  C3  UNL     1       1.294   8.778  26.714  1.00  0.00     0.028 A 
HETATM    5  C4  UNL     1       1.668   8.518  25.403  1.00  0.00     0.050 A 
HETATM    6  C5  UNL     1       2.097   9.504  24.540  1.00  0.00     0.101 A 
HETATM    7  N7  UNL     1       2.144  10.779  25.033  1.00  0.00    -0.351 N 
ATOM      8  H7  UNL     1       2.456  11.542  24.432  1.00  0.00     0.166 HD
HETATM    9  C17 UNL     1       1.783  11.033  26.300  1.00  0.00     0.112 A 
ENDROOT
BRANCH   6  10
HETATM   10  N2  UNL     1       2.447   9.288  23.324  1.00  0.00    -0.370 N 
ATOM     11  H2  UNL     1       3.165   9.878  22.901  1.00  0.00     0.161 HD
BRANCH  10  12
HETATM   12  C6  UNL     1       1.853   8.232  22.539  1.00  0.00     0.103 C 
HETATM   13  C7  UNL     1       2.830   7.758  21.466  1.00  0.00     0.047 C 
HETATM   14  C8  UNL     1       2.171   8.155  20.177  1.00  0.00     0.143 C 
HETATM   15  N3  UNL     1       0.763   8.105  20.497  1.00  0.00    -0.216 N 
HETATM   16  C16 UNL     1       0.617   8.700  21.806  1.00  0.00     0.166 C 
BRANCH  15  17
HETATM   17  C9  UNL     1      -0.254   7.567  19.663  1.00  0.00     0.681 A 
HETATM   18  N4  UNL     1      -1.370   8.310  19.415  1.00  0.00    -0.202 N 
HETATM   19  C10 UNL     1      -2.348   7.827  18.629  1.00  0.00     0.110 A 
ATOM     20  H4  UNL     1      -1.464   9.238  19.829  1.00  0.00     0.183 HD
HETATM   21  C11 UNL     1      -2.271   6.579  18.046  1.00  0.00     0.066 A 
HETATM   22  C12 UNL     1      -1.138   5.838  18.305  1.00  0.00     0.120 A 
HETATM   23  N6  UNL     1      -0.171   6.356  19.101  1.00  0.00    -0.177 N 
ATOM     24  H6  UNL     1       0.661   5.793  19.281  1.00  0.00     0.186 HD
BRANCH  22  25
HETATM   25  N5  UNL     1      -0.975   4.551  17.750  1.00  0.00    -0.367 N 
HETATM   26  C13 UNL     1      -0.509   3.272  18.227  1.00  0.00     0.126 C 
HETATM   27  C14 UNL     1      -0.127   2.935  16.802  1.00  0.00     0.040 C 
HETATM   28  C15 UNL     1      -1.202   3.946  16.461  1.00  0.00     0.126 C 
ENDBRANCH  22  25
ENDBRANCH  15  17
ENDBRANCH  10  12
ENDBRANCH   6  10
TORSDOF 4
ENDMDL
MODEL 5
REMARK VINA RESULT: -6.487214440      3.137      5.127
REMARK  4 active torsions:
REMARK  status: ('A' for Active; 'I' for Inactive)
REMARK    1  A    between atoms: C5_6  and  N2_7 
REMARK    2  A    between atoms: N2_7  and  C6_9 
REMARK    3  A    between atoms: N3_12  and  C9_13 
REMARK    4  A    between atoms: C12_18  and  N5_19 
ROOT
HETATM    1  N1  UNL     1      -0.453   2.567  15.571  1.00  0.00    -0.191 NA
HETATM    2  C1  UNL     1      -0.290   3.149  16.559  1.00  0.00     0.101 C 
HETATM    3  C2  UNL     1      -0.101   3.856  17.802  1.00  0.00     0.060 A 
HETATM    4  C3  UNL     1      -0.762   3.508  18.952  1.00  0.00     0.028 A 
HETATM    5  C4  UNL     1      -0.530   4.235  20.112  1.00  0.00     0.050 A 
HETATM    6  C5  UNL     1       0.343   5.300  20.162  1.00  0.00     0.101 A 
HETATM    7  N7  UNL     1       0.989   5.626  19.001  1.00  0.00    -0.351 N 
ATOM      8  H7  UNL     1       1.644   6.408  18.989  1.00  0.00     0.166 HD
HETATM    9  C17 UNL     1       0.767   4.925  17.878  1.00  0.00     0.112 A 
ENDROOT
BRANCH   6  10
HETATM   10  N2  UNL     1       0.574   5.988  21.222  1.00  0.00    -0.370 N 
ATOM     11  H2  UNL     1       0.376   5.576  22.134  1.00  0.00     0.161 HD
BRANCH  10  12
HETATM   12  C6  UNL     1       1.107   7.327  21.156  1.00  0.00     0.103 C 
HETATM   13  C7  UNL     1       2.147   7.537  22.255  1.00  0.00     0.047 C 
HETATM   14  C8  UNL     1       1.521   8.564  23.152  1.00  0.00     0.143 C 
HETATM   15  N3  UNL     1       0.689   9.327  22.252  1.00  0.00    -0.216 N 
HETATM   16  C16 UNL     1       0.038   8.373  21.383  1.00  0.00     0.166 C 
BRANCH  15  17
HETATM   17  C9  UNL     1       0.558  10.742  22.248  1.00  0.00     0.681 A 
HETATM   18  N4  UNL     1       1.368  11.485  23.056  1.00  0.00    -0.202 N 
HETATM   19  C10 UNL     1       1.267  12.826  23.072  1.00  0.00     0.110 A 
ATOM     20  H4  UNL     1       2.054  11.021  23.651  1.00  0.00     0.183 HD
HETATM   21  C11 UNL     1       0.356  13.502  22.287  1.00  0.00     0.066 A 
HETATM   22  C12 UNL     1      -0.457  12.739  21.476  1.00  0.00     0.120 A 
HETATM   23  N6  UNL     1      -0.328  11.391  21.484  1.00  0.00    -0.177 N 
ATOM     24  H6  UNL     1      -0.938  10.843  20.876  1.00  0.00     0.186 HD
BRANCH  22  25
HETATM   25  N5  UNL     1      -1.418  13.348  20.640  1.00  0.00    -0.367 N 
HETATM   26  C13 UNL     1      -2.089  14.624  20.597  1.00  0.00     0.126 C 
HETATM   27  C14 UNL     1      -3.230  13.943  19.873  1.00  0.00     0.040 C 
HETATM   28  C15 UNL     1      -2.150  12.963  19.460  1.00  0.00     0.126 C 
ENDBRANCH  22  25
ENDBRANCH  15  17
ENDBRANCH  10  12
ENDBRANCH   6  10
TORSDOF 4
ENDMDL
