MODEL 1
REMARK VINA RESULT: -6.508612424      0.000      0.000
REMARK  9 active torsions:
REMARK  status: ('A' for Active; 'I' for Inactive)
REMARK    1  A    between atoms: N1_1  and  C1_5 
REMARK    2  A    between atoms: C1_5  and  C2_6 
REMARK    3  A    between atoms: C2_6  and  N2_7 
REMARK    4  A    between atoms: N2_7  and  C3_8 
REMARK    5  A    between atoms: N2_7  and  C9_20 
REMARK    6  A    between atoms: C3_8  and  C4_9 
REMARK    7  A    between atoms: C4_9  and  C5_10 
REMARK    8  A    between atoms: C5_10  and  N3_11 
REMARK    9  A    between atoms: N3_11  and  C6_13 
ROOT
HETATM    1  N2  UNL     1     -26.218   1.118  -7.284  1.00  0.00    -0.387 N 
ENDROOT
BRANCH   1   2
HETATM    2  C2  UNL     1     -26.953   0.026  -6.821  1.00  0.00     0.085 C 
BRANCH   2   3
HETATM    3  C1  UNL     1     -28.422   0.346  -6.689  1.00  0.00     0.274 C 
BRANCH   3   4
HETATM    4  N1  UNL     1     -29.207  -0.079  -7.831  1.00  0.00    -0.075 N 
ATOM      5  H13 UNL     1     -29.017   0.510  -8.642  1.00  0.00     0.274 HD
ATOM      6  H12 UNL     1     -28.871  -0.973  -8.190  1.00  0.00     0.274 HD
ATOM      7  H11 UNL     1     -30.208  -0.120  -7.640  1.00  0.00     0.274 HD
ENDBRANCH   3   4
ENDBRANCH   2   3
ENDBRANCH   1   2
BRANCH   1   8
HETATM    8  C3  UNL     1     -25.917   1.003  -8.661  1.00  0.00     0.124 C 
BRANCH   8   9
HETATM    9  C4  UNL     1     -25.042  -0.139  -9.036  1.00  0.00     0.039 C 
BRANCH   9  10
HETATM   10  C5  UNL     1     -23.953   0.309  -9.976  1.00  0.00     0.124 C 
BRANCH  10  11
HETATM   11  N3  UNL     1     -22.655  -0.166  -9.561  1.00  0.00    -0.362 N 
ATOM     12  H3  UNL     1     -22.534  -0.674  -8.685  1.00  0.00     0.162 HD
BRANCH  11  13
HETATM   13  C6  UNL     1     -21.533   0.105 -10.432  1.00  0.00     0.171 C 
HETATM   14  N4  UNL     1     -21.537   0.824 -11.498  1.00  0.00    -0.361 N 
HETATM   15  C7  UNL     1     -20.237   0.884 -12.127  1.00  0.00     0.142 C 
ATOM     16  H4  UNL     1     -22.364   1.298 -11.858  1.00  0.00     0.162 HD
HETATM   17  C8  UNL     1     -19.309   0.185 -11.170  1.00  0.00     0.142 C 
HETATM   18  N5  UNL     1     -20.236  -0.400 -10.223  1.00  0.00    -0.361 N 
ATOM     19  H5  UNL     1     -19.985  -1.080  -9.506  1.00  0.00     0.162 HD
ENDBRANCH  11  13
ENDBRANCH  10  11
ENDBRANCH   9  10
ENDBRANCH   8   9
ENDBRANCH   1   8
BRANCH   1  20
HETATM   20  C9  UNL     1     -25.411   1.888  -6.436  1.00  0.00     0.087 C 
HETATM   21  C10 UNL     1     -24.520   2.887  -7.119  1.00  0.00     0.051 C 
HETATM   22  C11 UNL     1     -23.073   2.570  -7.065  1.00  0.00     0.169 C 
HETATM   23  O1  UNL     1     -22.620   2.047  -5.864  1.00  0.00    -0.391 OA
HETATM   24  C12 UNL     1     -23.273   0.837  -5.615  1.00  0.00     0.169 C 
HETATM   25  C13 UNL     1     -24.702   1.129  -5.333  1.00  0.00     0.051 C 
ENDBRANCH   1  20
TORSDOF 9
ENDMDL
MODEL 2
REMARK VINA RESULT: -6.459894287      1.032      1.403
REMARK  9 active torsions:
REMARK  status: ('A' for Active; 'I' for Inactive)
REMARK    1  A    between atoms: N1_1  and  C1_5 
REMARK    2  A    between atoms: C1_5  and  C2_6 
REMARK    3  A    between atoms: C2_6  and  N2_7 
REMARK    4  A    between atoms: N2_7  and  C3_8 
REMARK    5  A    between atoms: N2_7  and  C9_20 
REMARK    6  A    between atoms: C3_8  and  C4_9 
REMARK    7  A    between atoms: C4_9  and  C5_10 
REMARK    8  A    between atoms: C5_10  and  N3_11 
REMARK    9  A    between atoms: N3_11  and  C6_13 
ROOT
HETATM    1  N2  UNL     1     -26.180   1.146  -8.056  1.00  0.00    -0.387 N 
ENDROOT
BRANCH   1   2
HETATM    2  C2  UNL     1     -26.929  -0.006  -8.296  1.00  0.00     0.085 C 
BRANCH   2   3
HETATM    3  C1  UNL     1     -28.368   0.312  -8.621  1.00  0.00     0.274 C 
BRANCH   3   4
HETATM    4  N1  UNL     1     -29.291  -0.064  -7.567  1.00  0.00    -0.075 N 
ATOM      5  H13 UNL     1     -29.100  -1.011  -7.240  1.00  0.00     0.274 HD
ATOM      6  H12 UNL     1     -29.093   0.453  -6.710  1.00  0.00     0.274 HD
ATOM      7  H11 UNL     1     -30.270   0.037  -7.833  1.00  0.00     0.274 HD
ENDBRANCH   3   4
ENDBRANCH   2   3
ENDBRANCH   1   2
BRANCH   1   8
HETATM    8  C3  UNL     1     -25.257   1.400  -9.097  1.00  0.00     0.124 C 
BRANCH   8   9
HETATM    9  C4  UNL     1     -24.475   0.226  -9.565  1.00  0.00     0.039 C 
BRANCH   9  10
HETATM   10  C5  UNL     1     -23.089   0.238  -8.975  1.00  0.00     0.124 C 
BRANCH  10  11
HETATM   11  N3  UNL     1     -22.199  -0.657  -9.675  1.00  0.00    -0.362 N 
ATOM     12  H3  UNL     1     -22.292  -1.669  -9.588  1.00  0.00     0.162 HD
BRANCH  11  13
HETATM   13  C6  UNL     1     -21.171  -0.067 -10.504  1.00  0.00     0.171 C 
HETATM   14  N4  UNL     1     -19.902  -0.242 -10.403  1.00  0.00    -0.361 N 
HETATM   15  C7  UNL     1     -19.162   0.500 -11.399  1.00  0.00     0.142 C 
ATOM     16  H4  UNL     1     -19.466  -0.838  -9.700  1.00  0.00     0.162 HD
HETATM   17  C8  UNL     1     -20.211   1.090 -12.303  1.00  0.00     0.142 C 
HETATM   18  N5  UNL     1     -21.430   0.810 -11.573  1.00  0.00    -0.361 N 
ATOM     19  H5  UNL     1     -22.347   1.193 -11.801  1.00  0.00     0.162 HD
ENDBRANCH  11  13
ENDBRANCH  10  11
ENDBRANCH   9  10
ENDBRANCH   8   9
ENDBRANCH   1   8
BRANCH   1  20
HETATM   20  C9  UNL     1     -25.949   1.629  -6.760  1.00  0.00     0.087 C 
HETATM   21  C10 UNL     1     -24.746   2.516  -6.603  1.00  0.00     0.051 C 
HETATM   22  C11 UNL     1     -23.630   1.919  -5.830  1.00  0.00     0.169 C 
HETATM   23  O1  UNL     1     -24.002   1.168  -4.726  1.00  0.00    -0.391 OA
HETATM   24  C12 UNL     1     -24.780   0.087  -5.147  1.00  0.00     0.169 C 
HETATM   25  C13 UNL     1     -26.076   0.612  -5.645  1.00  0.00     0.051 C 
ENDBRANCH   1  20
TORSDOF 9
ENDMDL
MODEL 3
REMARK VINA RESULT: -6.384405452      2.274      3.787
REMARK  9 active torsions:
REMARK  status: ('A' for Active; 'I' for Inactive)
REMARK    1  A    between atoms: N1_1  and  C1_5 
REMARK    2  A    between atoms: C1_5  and  C2_6 
REMARK    3  A    between atoms: C2_6  and  N2_7 
REMARK    4  A    between atoms: N2_7  and  C3_8 
REMARK    5  A    between atoms: N2_7  and  C9_20 
REMARK    6  A    between atoms: C3_8  and  C4_9 
REMARK    7  A    between atoms: C4_9  and  C5_10 
REMARK    8  A    between atoms: C5_10  and  N3_11 
REMARK    9  A    between atoms: N3_11  and  C6_13 
ROOT
HETATM    1  N2  UNL     1     -23.348   2.371  -7.881  1.00  0.00    -0.387 N 
ENDROOT
BRANCH   1   2
HETATM    2  C2  UNL     1     -23.026   1.244  -8.638  1.00  0.00     0.085 C 
BRANCH   2   3
HETATM    3  C1  UNL     1     -24.166   0.814  -9.528  1.00  0.00     0.274 C 
BRANCH   3   4
HETATM    4  N1  UNL     1     -23.979   1.183 -10.918  1.00  0.00    -0.075 N 
ATOM      5  H13 UNL     1     -24.873   1.393 -11.361  1.00  0.00     0.274 HD
ATOM      6  H12 UNL     1     -23.535   2.098 -10.994  1.00  0.00     0.274 HD
ATOM      7  H11 UNL     1     -23.465   0.485 -11.455  1.00  0.00     0.274 HD
ENDBRANCH   3   4
ENDBRANCH   2   3
ENDBRANCH   1   2
BRANCH   1   8
HETATM    8  C3  UNL     1     -22.560   3.489  -8.241  1.00  0.00     0.124 C 
BRANCH   8   9
HETATM    9  C4  UNL     1     -21.190   3.523  -7.665  1.00  0.00     0.039 C 
BRANCH   9  10
HETATM   10  C5  UNL     1     -20.214   4.122  -8.643  1.00  0.00     0.124 C 
BRANCH  10  11
HETATM   11  N3  UNL     1     -19.168   3.193  -8.998  1.00  0.00    -0.362 N 
ATOM     12  H3  UNL     1     -18.287   3.168  -8.485  1.00  0.00     0.162 HD
BRANCH  11  13
HETATM   13  C6  UNL     1     -19.416   2.297 -10.106  1.00  0.00     0.171 C 
HETATM   14  N4  UNL     1     -18.734   1.256 -10.426  1.00  0.00    -0.361 N 
HETATM   15  C7  UNL     1     -19.263   0.586 -11.593  1.00  0.00     0.142 C 
ATOM     16  H4  UNL     1     -17.911   0.938  -9.914  1.00  0.00     0.162 HD
HETATM   17  C8  UNL     1     -20.550   1.303 -11.901  1.00  0.00     0.142 C 
HETATM   18  N5  UNL     1     -20.478   2.447 -11.016  1.00  0.00    -0.361 N 
ATOM     19  H5  UNL     1     -21.108   3.249 -11.048  1.00  0.00     0.162 HD
ENDBRANCH  11  13
ENDBRANCH  10  11
ENDBRANCH   9  10
ENDBRANCH   8   9
ENDBRANCH   1   8
BRANCH   1  20
HETATM   20  C9  UNL     1     -23.914   2.274  -6.603  1.00  0.00     0.087 C 
HETATM   21  C10 UNL     1     -23.378   1.168  -5.738  1.00  0.00     0.051 C 
HETATM   22  C11 UNL     1     -24.330   0.060  -5.484  1.00  0.00     0.169 C 
HETATM   23  O1  UNL     1     -25.645   0.440  -5.270  1.00  0.00    -0.391 OA
HETATM   24  C12 UNL     1     -26.128   1.088  -6.409  1.00  0.00     0.169 C 
HETATM   25  C13 UNL     1     -25.423   2.388  -6.539  1.00  0.00     0.051 C 
ENDBRANCH   1  20
TORSDOF 9
ENDMDL
MODEL 4
REMARK VINA RESULT: -6.355387939      1.955      3.442
REMARK  9 active torsions:
REMARK  status: ('A' for Active; 'I' for Inactive)
REMARK    1  A    between atoms: N1_1  and  C1_5 
REMARK    2  A    between atoms: C1_5  and  C2_6 
REMARK    3  A    between atoms: C2_6  and  N2_7 
REMARK    4  A    between atoms: N2_7  and  C3_8 
REMARK    5  A    between atoms: N2_7  and  C9_20 
REMARK    6  A    between atoms: C3_8  and  C4_9 
REMARK    7  A    between atoms: C4_9  and  C5_10 
REMARK    8  A    between atoms: C5_10  and  N3_11 
REMARK    9  A    between atoms: N3_11  and  C6_13 
ROOT
HETATM    1  N2  UNL     1     -24.118   1.558  -6.757  1.00  0.00    -0.387 N 
ENDROOT
BRANCH   1   2
HETATM    2  C2  UNL     1     -23.703   2.783  -7.279  1.00  0.00     0.085 C 
BRANCH   2   3
HETATM    3  C1  UNL     1     -22.231   3.027  -7.051  1.00  0.00     0.274 C 
BRANCH   3   4
HETATM    4  N1  UNL     1     -21.438   2.918  -8.260  1.00  0.00    -0.075 N 
ATOM      5  H13 UNL     1     -21.227   1.943  -8.469  1.00  0.00     0.274 HD
ATOM      6  H12 UNL     1     -21.997   3.149  -9.082  1.00  0.00     0.274 HD
ATOM      7  H11 UNL     1     -20.585   3.476  -8.234  1.00  0.00     0.274 HD
ENDBRANCH   3   4
ENDBRANCH   2   3
ENDBRANCH   1   2
BRANCH   1   8
HETATM    8  C3  UNL     1     -24.058   0.528  -7.724  1.00  0.00     0.124 C 
BRANCH   8   9
HETATM    9  C4  UNL     1     -24.532   0.892  -9.085  1.00  0.00     0.039 C 
BRANCH   9  10
HETATM   10  C5  UNL     1     -23.766   0.137 -10.139  1.00  0.00     0.124 C 
BRANCH  10  11
HETATM   11  N3  UNL     1     -22.442  -0.219  -9.689  1.00  0.00    -0.362 N 
ATOM     12  H3  UNL     1     -22.296  -0.687  -8.794  1.00  0.00     0.162 HD
BRANCH  11  13
HETATM   13  C6  UNL     1     -21.329   0.111 -10.552  1.00  0.00     0.171 C 
HETATM   14  N4  UNL     1     -21.362   0.839 -11.610  1.00  0.00    -0.361 N 
HETATM   15  C7  UNL     1     -20.063   0.965 -12.234  1.00  0.00     0.142 C 
ATOM     16  H4  UNL     1     -22.209   1.279 -11.970  1.00  0.00     0.162 HD
HETATM   17  C8  UNL     1     -19.108   0.299 -11.279  1.00  0.00     0.142 C 
HETATM   18  N5  UNL     1     -20.012  -0.337 -10.342  1.00  0.00    -0.361 N 
ATOM     19  H5  UNL     1     -19.733  -1.012  -9.631  1.00  0.00     0.162 HD
ENDBRANCH  11  13
ENDBRANCH  10  11
ENDBRANCH   9  10
ENDBRANCH   8   9
ENDBRANCH   1   8
BRANCH   1  20
HETATM   20  C9  UNL     1     -24.997   1.469  -5.670  1.00  0.00     0.087 C 
HETATM   21  C10 UNL     1     -24.611   0.486  -4.601  1.00  0.00     0.051 C 
HETATM   22  C11 UNL     1     -25.482  -0.711  -4.511  1.00  0.00     0.169 C 
HETATM   23  O1  UNL     1     -26.836  -0.478  -4.685  1.00  0.00    -0.391 OA
HETATM   24  C12 UNL     1     -27.052   0.041  -5.964  1.00  0.00     0.169 C 
HETATM   25  C13 UNL     1     -26.471   1.406  -6.016  1.00  0.00     0.051 C 
ENDBRANCH   1  20
TORSDOF 9
ENDMDL
MODEL 5
REMARK VINA RESULT: -6.334521669      2.416      3.959
REMARK  9 active torsions:
REMARK  status: ('A' for Active; 'I' for Inactive)
REMARK    1  A    between atoms: N1_1  and  C1_5 
REMARK    2  A    between atoms: C1_5  and  C2_6 
REMARK    3  A    between atoms: C2_6  and  N2_7 
REMARK    4  A    between atoms: N2_7  and  C3_8 
REMARK    5  A    between atoms: N2_7  and  C9_20 
REMARK    6  A    between atoms: C3_8  and  C4_9 
REMARK    7  A    between atoms: C4_9  and  C5_10 
REMARK    8  A    between atoms: C5_10  and  N3_11 
REMARK    9  A    between atoms: N3_11  and  C6_13 
ROOT
HETATM    1  N2  UNL     1     -23.336   2.448  -7.658  1.00  0.00    -0.387 N 
ENDROOT
BRANCH   1   2
HETATM    2  C2  UNL     1     -23.827   2.452  -6.352  1.00  0.00     0.085 C 
BRANCH   2   3
HETATM    3  C1  UNL     1     -23.341   1.263  -5.560  1.00  0.00     0.274 C 
BRANCH   3   4
HETATM    4  N1  UNL     1     -24.412   0.517  -4.929  1.00  0.00    -0.075 N 
ATOM      5  H13 UNL     1     -24.622   0.895  -4.005  1.00  0.00     0.274 HD
ATOM      6  H12 UNL     1     -25.302   0.699  -5.392  1.00  0.00     0.274 HD
ATOM      7  H11 UNL     1     -24.229  -0.485  -4.877  1.00  0.00     0.274 HD
ENDBRANCH   3   4
ENDBRANCH   2   3
ENDBRANCH   1   2
BRANCH   1   8
HETATM    8  C3  UNL     1     -22.571   3.605  -7.935  1.00  0.00     0.124 C 
BRANCH   8   9
HETATM    9  C4  UNL     1     -21.132   3.528  -7.572  1.00  0.00     0.039 C 
BRANCH   9  10
HETATM   10  C5  UNL     1     -20.272   4.095  -8.671  1.00  0.00     0.124 C 
BRANCH  10  11
HETATM   11  N3  UNL     1     -19.206   3.195  -9.040  1.00  0.00    -0.362 N 
ATOM     12  H3  UNL     1     -18.296   3.238  -8.581  1.00  0.00     0.162 HD
BRANCH  11  13
HETATM   13  C6  UNL     1     -19.476   2.229 -10.082  1.00  0.00     0.171 C 
HETATM   14  N4  UNL     1     -18.728   1.245 -10.436  1.00  0.00    -0.361 N 
HETATM   15  C7  UNL     1     -19.305   0.475 -11.515  1.00  0.00     0.142 C 
ATOM     16  H4  UNL     1     -17.829   1.033 -10.004  1.00  0.00     0.162 HD
HETATM   17  C8  UNL     1     -20.683   1.049 -11.709  1.00  0.00     0.142 C 
HETATM   18  N5  UNL     1     -20.636   2.235 -10.878  1.00  0.00    -0.361 N 
ATOM     19  H5  UNL     1     -21.343   2.969 -10.871  1.00  0.00     0.162 HD
ENDBRANCH  11  13
ENDBRANCH  10  11
ENDBRANCH   9  10
ENDBRANCH   8   9
ENDBRANCH   1   8
BRANCH   1  20
HETATM   20  C9  UNL     1     -23.967   1.742  -8.690  1.00  0.00     0.087 C 
HETATM   21  C10 UNL     1     -25.462   1.632  -8.582  1.00  0.00     0.051 C 
HETATM   22  C11 UNL     1     -25.966   0.270  -8.282  1.00  0.00     0.169 C 
HETATM   23  O1  UNL     1     -25.309  -0.766  -8.926  1.00  0.00    -0.391 OA
HETATM   24  C12 UNL     1     -23.968  -0.773  -8.534  1.00  0.00     0.169 C 
HETATM   25  C13 UNL     1     -23.313   0.436  -9.093  1.00  0.00     0.051 C 
ENDBRANCH   1  20
TORSDOF 9
ENDMDL
