MODEL 1
REMARK VINA RESULT: -6.505114184      0.000      0.000
REMARK  8 active torsions:
REMARK  status: ('A' for Active; 'I' for Inactive)
REMARK    1  A    between atoms: C4_4  and  N1_5 
REMARK    2  A    between atoms: N1_5  and  C5_7 
REMARK    3  A    between atoms: C5_7  and  C6_8 
REMARK    4  A    between atoms: C6_8  and  C7_9 
REMARK    5  A    between atoms: C7_9  and  N2_10 
REMARK    6  A    between atoms: N2_10  and  C8_13 
REMARK    7  A    between atoms: C8_13  and  C9_14 
REMARK    8  A    between atoms: C9_14  and  N3_15 
ROOT
HETATM    1  C7  UNL     1     -19.626   3.463  -9.863  1.00  0.00     0.237 C 
ENDROOT
BRANCH   1   2
HETATM    2  C6  UNL     1     -20.001   3.873  -8.423  1.00  0.00     0.072 C 
BRANCH   2   3
HETATM    3  C5  UNL     1     -21.434   3.483  -8.266  1.00  0.00     0.064 C 
BRANCH   3   4
HETATM    4  N1  UNL     1     -21.808   3.064  -6.977  1.00  0.00    -0.360 N 
ATOM      5  H1  UNL     1     -21.193   3.289  -6.195  1.00  0.00     0.166 HD
BRANCH   4   6
HETATM    6  C4  UNL     1     -23.000   2.344  -6.713  1.00  0.00     0.076 C 
HETATM    7  C3  UNL     1     -24.319   2.790  -7.118  1.00  0.00     0.076 C 
HETATM    8  C2  UNL     1     -25.468   1.953  -6.602  1.00  0.00     0.009 C 
HETATM    9  C1  UNL     1     -25.096   1.177  -5.384  1.00  0.00     0.020 C 
HETATM   10  C14 UNL     1     -23.864   0.337  -5.748  1.00  0.00     0.121 C 
HETATM   11  N4  UNL     1     -22.822   1.237  -6.097  1.00  0.00    -0.380 N 
ATOM     12  H4  UNL     1     -21.867   0.983  -5.841  1.00  0.00     0.160 HD
ENDBRANCH   4   6
ENDBRANCH   3   4
ENDBRANCH   2   3
ENDBRANCH   1   2
BRANCH   1  13
HETATM   13  N2  UNL     1     -18.790   2.318  -9.849  1.00  0.00    -0.073 N 
ATOM     14  H22 UNL     1     -17.910   2.488  -9.361  1.00  0.00     0.277 HD
ATOM     15  H21 UNL     1     -19.153   1.582  -9.242  1.00  0.00     0.277 HD
BRANCH  13  16
HETATM   16  C8  UNL     1     -18.581   1.851 -11.215  1.00  0.00     0.262 C 
BRANCH  16  17
HETATM   17  C9  UNL     1     -19.786   2.132 -12.061  1.00  0.00     0.300 C 
BRANCH  17  18
HETATM   18  N3  UNL     1     -20.389   0.899 -12.497  1.00  0.00     0.094 N 
HETATM   19  C10 UNL     1     -21.281   1.160 -13.629  1.00  0.00     0.298 C 
HETATM   20  C11 UNL     1     -22.449   1.967 -13.206  1.00  0.00     0.198 C 
HETATM   21  O1  UNL     1     -23.215   1.202 -12.294  1.00  0.00    -0.388 OA
HETATM   22  C12 UNL     1     -22.429   1.101 -11.141  1.00  0.00     0.198 C 
HETATM   23  C13 UNL     1     -21.162   0.325 -11.407  1.00  0.00     0.298 C 
ENDBRANCH  17  18
ENDBRANCH  16  17
ENDBRANCH  13  16
ENDBRANCH   1  13
TORSDOF 8
ENDMDL
MODEL 2
REMARK VINA RESULT: -6.472618784      2.068      6.249
REMARK  8 active torsions:
REMARK  status: ('A' for Active; 'I' for Inactive)
REMARK    1  A    between atoms: C4_4  and  N1_5 
REMARK    2  A    between atoms: N1_5  and  C5_7 
REMARK    3  A    between atoms: C5_7  and  C6_8 
REMARK    4  A    between atoms: C6_8  and  C7_9 
REMARK    5  A    between atoms: C7_9  and  N2_10 
REMARK    6  A    between atoms: N2_10  and  C8_13 
REMARK    7  A    between atoms: C8_13  and  C9_14 
REMARK    8  A    between atoms: C9_14  and  N3_15 
ROOT
HETATM    1  C7  UNL     1     -21.399   3.367  -7.013  1.00  0.00     0.237 C 
ENDROOT
BRANCH   1   2
HETATM    2  C6  UNL     1     -21.297   3.699  -8.516  1.00  0.00     0.072 C 
BRANCH   2   3
HETATM    3  C5  UNL     1     -19.856   4.012  -8.752  1.00  0.00     0.064 C 
BRANCH   3   4
HETATM    4  N1  UNL     1     -19.059   2.922  -9.143  1.00  0.00    -0.360 N 
ATOM      5  H1  UNL     1     -18.348   2.583  -8.495  1.00  0.00     0.166 HD
BRANCH   4   6
HETATM    6  C4  UNL     1     -19.196   2.273 -10.395  1.00  0.00     0.076 C 
HETATM    7  C3  UNL     1     -18.899   2.903 -11.668  1.00  0.00     0.076 C 
HETATM    8  C2  UNL     1     -19.261   2.088 -12.889  1.00  0.00     0.009 C 
HETATM    9  C1  UNL     1     -20.303   1.064 -12.594  1.00  0.00     0.020 C 
HETATM   10  C14 UNL     1     -19.770   0.203 -11.439  1.00  0.00     0.121 C 
HETATM   11  N4  UNL     1     -19.586   1.057 -10.319  1.00  0.00    -0.380 N 
ATOM     12  H4  UNL     1     -19.778   0.676  -9.393  1.00  0.00     0.160 HD
ENDBRANCH   4   6
ENDBRANCH   3   4
ENDBRANCH   2   3
ENDBRANCH   1   2
BRANCH   1  13
HETATM   13  N2  UNL     1     -22.513   2.524  -6.767  1.00  0.00    -0.073 N 
ATOM     14  H22 UNL     1     -22.309   1.546  -6.972  1.00  0.00     0.277 HD
ATOM     15  H21 UNL     1     -22.710   2.426  -5.771  1.00  0.00     0.277 HD
BRANCH  13  16
HETATM   16  C8  UNL     1     -23.668   3.014  -7.511  1.00  0.00     0.262 C 
BRANCH  16  17
HETATM   17  C9  UNL     1     -24.934   2.411  -6.983  1.00  0.00     0.300 C 
BRANCH  17  18
HETATM   18  N3  UNL     1     -24.774   0.991  -6.803  1.00  0.00     0.094 N 
HETATM   19  C10 UNL     1     -25.180   0.291  -8.025  1.00  0.00     0.298 C 
HETATM   20  C11 UNL     1     -26.637   0.433  -8.254  1.00  0.00     0.198 C 
HETATM   21  O1  UNL     1     -27.322  -0.220  -7.203  1.00  0.00    -0.388 OA
HETATM   22  C12 UNL     1     -27.075   0.552  -6.062  1.00  0.00     0.198 C 
HETATM   23  C13 UNL     1     -25.610   0.545  -5.700  1.00  0.00     0.298 C 
ENDBRANCH  17  18
ENDBRANCH  16  17
ENDBRANCH  13  16
ENDBRANCH   1  13
TORSDOF 8
ENDMDL
MODEL 3
REMARK VINA RESULT: -6.434539822      2.230      6.302
REMARK  8 active torsions:
REMARK  status: ('A' for Active; 'I' for Inactive)
REMARK    1  A    between atoms: C4_4  and  N1_5 
REMARK    2  A    between atoms: N1_5  and  C5_7 
REMARK    3  A    between atoms: C5_7  and  C6_8 
REMARK    4  A    between atoms: C6_8  and  C7_9 
REMARK    5  A    between atoms: C7_9  and  N2_10 
REMARK    6  A    between atoms: N2_10  and  C8_13 
REMARK    7  A    between atoms: C8_13  and  C9_14 
REMARK    8  A    between atoms: C9_14  and  N3_15 
ROOT
HETATM    1  C7  UNL     1     -21.771   3.490  -8.581  1.00  0.00     0.237 C 
ENDROOT
BRANCH   1   2
HETATM    2  C6  UNL     1     -20.346   3.858  -8.118  1.00  0.00     0.072 C 
BRANCH   2   3
HETATM    3  C5  UNL     1     -19.667   4.401  -9.332  1.00  0.00     0.064 C 
BRANCH   3   4
HETATM    4  N1  UNL     1     -18.755   3.530  -9.953  1.00  0.00    -0.360 N 
ATOM      5  H1  UNL     1     -17.761   3.646  -9.756  1.00  0.00     0.166 HD
BRANCH   4   6
HETATM    6  C4  UNL     1     -19.151   2.499 -10.841  1.00  0.00     0.076 C 
HETATM    7  C3  UNL     1     -19.780   2.737 -12.126  1.00  0.00     0.076 C 
HETATM    8  C2  UNL     1     -20.264   1.499 -12.846  1.00  0.00     0.009 C 
HETATM    9  C1  UNL     1     -20.488   0.358 -11.913  1.00  0.00     0.020 C 
HETATM   10  C14 UNL     1     -19.170   0.131 -11.158  1.00  0.00     0.121 C 
HETATM   11  N4  UNL     1     -18.887   1.317 -10.428  1.00  0.00    -0.380 N 
ATOM     12  H4  UNL     1     -18.445   1.220  -9.514  1.00  0.00     0.160 HD
ENDBRANCH   4   6
ENDBRANCH   3   4
ENDBRANCH   2   3
ENDBRANCH   1   2
BRANCH   1  13
HETATM   13  N2  UNL     1     -22.214   2.312  -7.927  1.00  0.00    -0.073 N 
ATOM     14  H22 UNL     1     -22.936   1.825  -8.457  1.00  0.00     0.277 HD
ATOM     15  H21 UNL     1     -21.507   1.577  -7.934  1.00  0.00     0.277 HD
BRANCH  13  16
HETATM   16  C8  UNL     1     -22.652   2.642  -6.575  1.00  0.00     0.262 C 
BRANCH  16  17
HETATM   17  C9  UNL     1     -24.086   2.258  -6.374  1.00  0.00     0.300 C 
BRANCH  17  18
HETATM   18  N3  UNL     1     -24.330   0.940  -6.902  1.00  0.00     0.094 N 
HETATM   19  C10 UNL     1     -25.745   0.805  -7.255  1.00  0.00     0.298 C 
HETATM   20  C11 UNL     1     -26.597   0.837  -6.043  1.00  0.00     0.198 C 
HETATM   21  O1  UNL     1     -26.297  -0.299  -5.255  1.00  0.00    -0.388 OA
HETATM   22  C12 UNL     1     -25.001  -0.086  -4.772  1.00  0.00     0.198 C 
HETATM   23  C13 UNL     1     -23.994  -0.055  -5.896  1.00  0.00     0.298 C 
ENDBRANCH  17  18
ENDBRANCH  16  17
ENDBRANCH  13  16
ENDBRANCH   1  13
TORSDOF 8
ENDMDL
MODEL 4
REMARK VINA RESULT: -6.400714473      1.252      1.786
REMARK  8 active torsions:
REMARK  status: ('A' for Active; 'I' for Inactive)
REMARK    1  A    between atoms: C4_4  and  N1_5 
REMARK    2  A    between atoms: N1_5  and  C5_7 
REMARK    3  A    between atoms: C5_7  and  C6_8 
REMARK    4  A    between atoms: C6_8  and  C7_9 
REMARK    5  A    between atoms: C7_9  and  N2_10 
REMARK    6  A    between atoms: N2_10  and  C8_13 
REMARK    7  A    between atoms: C8_13  and  C9_14 
REMARK    8  A    between atoms: C9_14  and  N3_15 
ROOT
HETATM    1  C7  UNL     1     -20.153   4.242  -8.345  1.00  0.00     0.237 C 
ENDROOT
BRANCH   1   2
HETATM    2  C6  UNL     1     -21.200   3.516  -7.475  1.00  0.00     0.072 C 
BRANCH   2   3
HETATM    3  C5  UNL     1     -22.494   3.677  -8.203  1.00  0.00     0.064 C 
BRANCH   3   4
HETATM    4  N1  UNL     1     -23.201   2.486  -8.447  1.00  0.00    -0.360 N 
ATOM      5  H1  UNL     1     -23.246   2.136  -9.404  1.00  0.00     0.166 HD
BRANCH   4   6
HETATM    6  C4  UNL     1     -23.853   1.751  -7.427  1.00  0.00     0.076 C 
HETATM    7  C3  UNL     1     -25.099   2.160  -6.807  1.00  0.00     0.076 C 
HETATM    8  C2  UNL     1     -25.543   1.316  -5.634  1.00  0.00     0.009 C 
HETATM    9  C1  UNL     1     -24.407   0.579  -5.010  1.00  0.00     0.020 C 
HETATM   10  C14 UNL     1     -23.744  -0.247  -6.122  1.00  0.00     0.121 C 
HETATM   11  N4  UNL     1     -23.263   0.663  -7.101  1.00  0.00    -0.380 N 
ATOM     12  H4  UNL     1     -22.390   0.435  -7.576  1.00  0.00     0.160 HD
ENDBRANCH   4   6
ENDBRANCH   3   4
ENDBRANCH   2   3
ENDBRANCH   1   2
BRANCH   1  13
HETATM   13  N2  UNL     1     -19.182   3.324  -8.820  1.00  0.00    -0.073 N 
ATOM     14  H22 UNL     1     -18.259   3.496  -8.421  1.00  0.00     0.277 HD
ATOM     15  H21 UNL     1     -19.327   2.384  -8.450  1.00  0.00     0.277 HD
BRANCH  13  16
HETATM   16  C8  UNL     1     -19.164   3.346 -10.278  1.00  0.00     0.262 C 
BRANCH  16  17
HETATM   17  C9  UNL     1     -19.256   1.956 -10.830  1.00  0.00     0.300 C 
BRANCH  17  18
HETATM   18  N3  UNL     1     -20.619   1.492 -10.793  1.00  0.00     0.094 N 
HETATM   19  C10 UNL     1     -20.678   0.099 -11.242  1.00  0.00     0.298 C 
HETATM   20  C11 UNL     1     -20.333  -0.008 -12.679  1.00  0.00     0.198 C 
HETATM   21  O1  UNL     1     -21.323   0.670 -13.429  1.00  0.00    -0.388 OA
HETATM   22  C12 UNL     1     -21.152   2.027 -13.132  1.00  0.00     0.198 C 
HETATM   23  C13 UNL     1     -21.434   2.311 -11.677  1.00  0.00     0.298 C 
ENDBRANCH  17  18
ENDBRANCH  16  17
ENDBRANCH  13  16
ENDBRANCH   1  13
TORSDOF 8
ENDMDL
MODEL 5
REMARK VINA RESULT: -6.395556727      2.361      6.406
REMARK  8 active torsions:
REMARK  status: ('A' for Active; 'I' for Inactive)
REMARK    1  A    between atoms: C4_4  and  N1_5 
REMARK    2  A    between atoms: N1_5  and  C5_7 
REMARK    3  A    between atoms: C5_7  and  C6_8 
REMARK    4  A    between atoms: C6_8  and  C7_9 
REMARK    5  A    between atoms: C7_9  and  N2_10 
REMARK    6  A    between atoms: N2_10  and  C8_13 
REMARK    7  A    between atoms: C8_13  and  C9_14 
REMARK    8  A    between atoms: C9_14  and  N3_15 
ROOT
HETATM    1  C7  UNL     1     -22.247   3.534  -8.329  1.00  0.00     0.237 C 
ENDROOT
BRANCH   1   2
HETATM    2  C6  UNL     1     -20.875   3.604  -7.626  1.00  0.00     0.072 C 
BRANCH   2   3
HETATM    3  C5  UNL     1     -19.937   4.150  -8.652  1.00  0.00     0.064 C 
BRANCH   3   4
HETATM    4  N1  UNL     1     -19.044   3.217  -9.210  1.00  0.00    -0.360 N 
ATOM      5  H1  UNL     1     -18.139   3.082  -8.760  1.00  0.00     0.166 HD
BRANCH   4   6
HETATM    6  C4  UNL     1     -19.344   2.457 -10.367  1.00  0.00     0.076 C 
HETATM    7  C3  UNL     1     -20.067   2.978 -11.512  1.00  0.00     0.076 C 
HETATM    8  C2  UNL     1     -20.416   1.959 -12.572  1.00  0.00     0.009 C 
HETATM    9  C1  UNL     1     -20.432   0.569 -12.033  1.00  0.00     0.020 C 
HETATM   10  C14 UNL     1     -19.057   0.320 -11.396  1.00  0.00     0.121 C 
HETATM   11  N4  UNL     1     -18.900   1.257 -10.340  1.00  0.00    -0.380 N 
ATOM     12  H4  UNL     1     -18.400   0.954  -9.505  1.00  0.00     0.160 HD
ENDBRANCH   4   6
ENDBRANCH   3   4
ENDBRANCH   2   3
ENDBRANCH   1   2
BRANCH   1  13
HETATM   13  N2  UNL     1     -22.491   2.222  -8.809  1.00  0.00    -0.073 N 
ATOM     14  H22 UNL     1     -22.361   2.151  -9.819  1.00  0.00     0.277 HD
ATOM     15  H21 UNL     1     -21.764   1.566  -8.523  1.00  0.00     0.277 HD
BRANCH  13  16
HETATM   16  C8  UNL     1     -23.820   1.790  -8.392  1.00  0.00     0.262 C 
BRANCH  16  17
HETATM   17  C9  UNL     1     -23.751   1.042  -7.096  1.00  0.00     0.300 C 
BRANCH  17  18
HETATM   18  N3  UNL     1     -24.514   1.725  -6.083  1.00  0.00     0.094 N 
HETATM   19  C10 UNL     1     -24.388   1.014  -4.808  1.00  0.00     0.298 C 
HETATM   20  C11 UNL     1     -25.045  -0.313  -4.877  1.00  0.00     0.198 C 
HETATM   21  O1  UNL     1     -26.433  -0.116  -5.061  1.00  0.00    -0.388 OA
HETATM   22  C12 UNL     1     -26.568   0.403  -6.353  1.00  0.00     0.198 C 
HETATM   23  C13 UNL     1     -25.915   1.759  -6.471  1.00  0.00     0.298 C 
ENDBRANCH  17  18
ENDBRANCH  16  17
ENDBRANCH  13  16
ENDBRANCH   1  13
TORSDOF 8
ENDMDL
