MODEL 1
REMARK VINA RESULT: -7.000725720      0.000      0.000
REMARK  8 active torsions:
REMARK  status: ('A' for Active; 'I' for Inactive)
REMARK    1  A    between atoms: O1_1  and  C1_3 
REMARK    2  A    between atoms: C1_3  and  C2_4 
REMARK    3  A    between atoms: N1_6  and  O2_7 
REMARK    4  A    between atoms: O2_7  and  C4_8 
REMARK    5  A    between atoms: C4_8  and  C5_9 
REMARK    6  A    between atoms: C5_9  and  C6_10 
REMARK    7  A    between atoms: C6_10  and  N2_11 
REMARK    8  A    between atoms: N2_11  and  C7_13 
ROOT
HETATM    1  C5  UNL     1     -21.107   3.528  -7.476  1.00  0.00     0.073 C 
ENDROOT
BRANCH   1   2
HETATM    2  C4  UNL     1     -22.594   3.602  -7.962  1.00  0.00     0.206 C 
BRANCH   2   3
HETATM    3  O2  UNL     1     -22.679   2.745  -8.974  1.00  0.00    -0.282 OA
BRANCH   3   4
HETATM    4  N1  UNL     1     -23.360   1.687  -8.682  1.00  0.00    -0.290 N 
HETATM    5  C3  UNL     1     -24.601   1.970  -8.010  1.00  0.00     0.183 C 
HETATM    6  C2  UNL     1     -25.281   0.729  -7.603  1.00  0.00     0.164 C 
HETATM    7  O3  UNL     1     -24.415  -0.269  -7.215  1.00  0.00    -0.380 OA
HETATM    8  C13 UNL     1     -23.613  -0.682  -8.285  1.00  0.00     0.190 C 
HETATM    9  C12 UNL     1     -23.336   0.455  -9.286  1.00  0.00     0.175 C 
BRANCH   6  10
HETATM   10  C1  UNL     1     -26.289   0.287  -8.636  1.00  0.00     0.197 C 
BRANCH  10  11
HETATM   11  O1  UNL     1     -27.195  -0.651  -8.209  1.00  0.00    -0.398 OA
ATOM     12  H1  UNL     1     -27.233  -1.445  -8.729  1.00  0.00     0.209 HD
ENDBRANCH  10  11
ENDBRANCH   6  10
ENDBRANCH   3   4
ENDBRANCH   2   3
ENDBRANCH   1   2
BRANCH   1  13
HETATM   13  C6  UNL     1     -20.275   3.951  -8.609  1.00  0.00     0.059 C 
BRANCH  13  14
HETATM   14  N2  UNL     1     -19.159   3.243  -9.105  1.00  0.00    -0.375 N 
ATOM     15  H2  UNL     1     -18.200   3.383  -8.791  1.00  0.00     0.160 HD
BRANCH  14  16
HETATM   16  C7  UNL     1     -19.537   2.344 -10.063  1.00  0.00     0.283 C 
HETATM   17  C8  UNL     1     -20.083   3.031 -11.319  1.00  0.00     0.054 C 
HETATM   18  C9  UNL     1     -20.720   2.062 -12.232  1.00  0.00     0.005 C 
HETATM   19  C10 UNL     1     -20.066   0.722 -12.283  1.00  0.00     0.028 C 
HETATM   20  C11 UNL     1     -19.469   0.222 -11.015  1.00  0.00     0.235 C 
HETATM   21  N3  UNL     1     -18.607   1.332 -10.487  1.00  0.00    -0.054 N 
ATOM     22  H32 UNL     1     -17.904   1.663 -11.148  1.00  0.00     0.279 HD
ATOM     23  H31 UNL     1     -17.952   1.040  -9.762  1.00  0.00     0.279 HD
ENDBRANCH  14  16
ENDBRANCH  13  14
ENDBRANCH   1  13
TORSDOF 8
ENDMDL
MODEL 2
REMARK VINA RESULT: -6.925779819      2.350      5.546
REMARK  8 active torsions:
REMARK  status: ('A' for Active; 'I' for Inactive)
REMARK    1  A    between atoms: O1_1  and  C1_3 
REMARK    2  A    between atoms: C1_3  and  C2_4 
REMARK    3  A    between atoms: N1_6  and  O2_7 
REMARK    4  A    between atoms: O2_7  and  C4_8 
REMARK    5  A    between atoms: C4_8  and  C5_9 
REMARK    6  A    between atoms: C5_9  and  C6_10 
REMARK    7  A    between atoms: C6_10  and  N2_11 
REMARK    8  A    between atoms: N2_11  and  C7_13 
ROOT
HETATM    1  C5  UNL     1     -20.999   3.712  -7.773  1.00  0.00     0.073 C 
ENDROOT
BRANCH   1   2
HETATM    2  C4  UNL     1     -21.067   3.994  -9.312  1.00  0.00     0.206 C 
BRANCH   2   3
HETATM    3  O2  UNL     1     -21.691   2.945  -9.837  1.00  0.00    -0.282 OA
BRANCH   3   4
HETATM    4  N1  UNL     1     -20.900   2.166 -10.496  1.00  0.00    -0.290 N 
HETATM    5  C3  UNL     1     -21.495   0.900 -10.839  1.00  0.00     0.183 C 
HETATM    6  C2  UNL     1     -20.517   0.011 -11.489  1.00  0.00     0.164 C 
HETATM    7  O3  UNL     1     -19.241   0.143 -10.991  1.00  0.00    -0.380 OA
HETATM    8  C13 UNL     1     -18.729   1.420 -11.250  1.00  0.00     0.190 C 
HETATM    9  C12 UNL     1     -19.830   2.497 -11.289  1.00  0.00     0.175 C 
BRANCH   6  10
HETATM   10  C1  UNL     1     -20.594   0.112 -12.993  1.00  0.00     0.197 C 
BRANCH  10  11
HETATM   11  O1  UNL     1     -20.354  -1.056 -13.673  1.00  0.00    -0.398 OA
ATOM     12  H1  UNL     1     -19.975  -0.952 -14.537  1.00  0.00     0.209 HD
ENDBRANCH  10  11
ENDBRANCH   6  10
ENDBRANCH   3   4
ENDBRANCH   2   3
ENDBRANCH   1   2
BRANCH   1  13
HETATM   13  C6  UNL     1     -22.320   3.208  -7.381  1.00  0.00     0.059 C 
BRANCH  13  14
HETATM   14  N2  UNL     1     -22.588   1.898  -6.929  1.00  0.00    -0.375 N 
ATOM     15  H2  UNL     1     -21.980   1.366  -6.308  1.00  0.00     0.160 HD
BRANCH  14  16
HETATM   16  C7  UNL     1     -23.771   1.438  -7.436  1.00  0.00     0.283 C 
HETATM   17  C8  UNL     1     -24.923   1.579  -6.437  1.00  0.00     0.054 C 
HETATM   18  C9  UNL     1     -26.125   0.852  -6.891  1.00  0.00     0.005 C 
HETATM   19  C10 UNL     1     -26.350   0.868  -8.366  1.00  0.00     0.028 C 
HETATM   20  C11 UNL     1     -25.136   0.848  -9.226  1.00  0.00     0.235 C 
HETATM   21  N3  UNL     1     -24.232   1.929  -8.708  1.00  0.00    -0.054 N 
ATOM     22  H32 UNL     1     -24.668   2.850  -8.666  1.00  0.00     0.279 HD
ATOM     23  H31 UNL     1     -23.483   2.187  -9.350  1.00  0.00     0.279 HD
ENDBRANCH  14  16
ENDBRANCH  13  14
ENDBRANCH   1  13
TORSDOF 8
ENDMDL
MODEL 3
REMARK VINA RESULT: -6.797641492      1.561      2.037
REMARK  8 active torsions:
REMARK  status: ('A' for Active; 'I' for Inactive)
REMARK    1  A    between atoms: O1_1  and  C1_3 
REMARK    2  A    between atoms: C1_3  and  C2_4 
REMARK    3  A    between atoms: N1_6  and  O2_7 
REMARK    4  A    between atoms: O2_7  and  C4_8 
REMARK    5  A    between atoms: C4_8  and  C5_9 
REMARK    6  A    between atoms: C5_9  and  C6_10 
REMARK    7  A    between atoms: C6_10  and  N2_11 
REMARK    8  A    between atoms: N2_11  and  C7_13 
ROOT
HETATM    1  C5  UNL     1     -20.788   3.787  -7.487  1.00  0.00     0.073 C 
ENDROOT
BRANCH   1   2
HETATM    2  C4  UNL     1     -22.193   3.180  -7.820  1.00  0.00     0.206 C 
BRANCH   2   3
HETATM    3  O2  UNL     1     -22.829   3.099  -6.656  1.00  0.00    -0.282 OA
BRANCH   3   4
HETATM    4  N1  UNL     1     -23.651   2.105  -6.599  1.00  0.00    -0.290 N 
HETATM    5  C3  UNL     1     -23.192   1.028  -5.760  1.00  0.00     0.183 C 
HETATM    6  C2  UNL     1     -24.112  -0.120  -5.819  1.00  0.00     0.164 C 
HETATM    7  O3  UNL     1     -24.675  -0.308  -7.061  1.00  0.00    -0.380 OA
HETATM    8  C13 UNL     1     -25.494   0.771  -7.411  1.00  0.00     0.190 C 
HETATM    9  C12 UNL     1     -25.009   2.099  -6.799  1.00  0.00     0.175 C 
BRANCH   6  10
HETATM   10  C1  UNL     1     -25.121  -0.078  -4.697  1.00  0.00     0.197 C 
BRANCH  10  11
HETATM   11  O1  UNL     1     -25.481  -1.300  -4.186  1.00  0.00    -0.398 OA
ATOM     12  H1  UNL     1     -25.986  -1.851  -4.772  1.00  0.00     0.209 HD
ENDBRANCH  10  11
ENDBRANCH   6  10
ENDBRANCH   3   4
ENDBRANCH   2   3
ENDBRANCH   1   2
BRANCH   1  13
HETATM   13  C6  UNL     1     -20.101   3.979  -8.769  1.00  0.00     0.059 C 
BRANCH  13  14
HETATM   14  N2  UNL     1     -19.029   3.190  -9.241  1.00  0.00    -0.375 N 
ATOM     15  H2  UNL     1     -18.061   3.290  -8.938  1.00  0.00     0.160 HD
BRANCH  14  16
HETATM   16  C7  UNL     1     -19.462   2.275 -10.159  1.00  0.00     0.283 C 
HETATM   17  C8  UNL     1     -19.981   2.938 -11.438  1.00  0.00     0.054 C 
HETATM   18  C9  UNL     1     -20.677   1.968 -12.306  1.00  0.00     0.005 C 
HETATM   19  C10 UNL     1     -20.096   0.594 -12.307  1.00  0.00     0.028 C 
HETATM   20  C11 UNL     1     -19.514   0.116 -11.023  1.00  0.00     0.235 C 
HETATM   21  N3  UNL     1     -18.590   1.198 -10.547  1.00  0.00    -0.054 N 
ATOM     22  H32 UNL     1     -17.877   1.464 -11.225  1.00  0.00     0.279 HD
ATOM     23  H31 UNL     1     -17.945   0.901  -9.815  1.00  0.00     0.279 HD
ENDBRANCH  14  16
ENDBRANCH  13  14
ENDBRANCH   1  13
TORSDOF 8
ENDMDL
MODEL 4
REMARK VINA RESULT: -6.790818913      2.443      6.068
REMARK  8 active torsions:
REMARK  status: ('A' for Active; 'I' for Inactive)
REMARK    1  A    between atoms: O1_1  and  C1_3 
REMARK    2  A    between atoms: C1_3  and  C2_4 
REMARK    3  A    between atoms: N1_6  and  O2_7 
REMARK    4  A    between atoms: O2_7  and  C4_8 
REMARK    5  A    between atoms: C4_8  and  C5_9 
REMARK    6  A    between atoms: C5_9  and  C6_10 
REMARK    7  A    between atoms: C6_10  and  N2_11 
REMARK    8  A    between atoms: N2_11  and  C7_13 
ROOT
HETATM    1  C5  UNL     1     -21.581   3.404  -7.219  1.00  0.00     0.073 C 
ENDROOT
BRANCH   1   2
HETATM    2  C4  UNL     1     -21.704   3.724  -8.747  1.00  0.00     0.206 C 
BRANCH   2   3
HETATM    3  O2  UNL     1     -22.155   2.606  -9.307  1.00  0.00    -0.282 OA
BRANCH   3   4
HETATM    4  N1  UNL     1     -21.275   2.024 -10.052  1.00  0.00    -0.290 N 
HETATM    5  C3  UNL     1     -21.767   0.837 -10.701  1.00  0.00     0.183 C 
HETATM    6  C2  UNL     1     -20.695   0.155 -11.445  1.00  0.00     0.164 C 
HETATM    7  O3  UNL     1     -19.466   0.233 -10.830  1.00  0.00    -0.380 OA
HETATM    8  C13 UNL     1     -19.016   1.557 -10.770  1.00  0.00     0.190 C 
HETATM    9  C12 UNL     1     -20.175   2.567 -10.668  1.00  0.00     0.175 C 
BRANCH   6  10
HETATM   10  C1  UNL     1     -20.674   0.576 -12.895  1.00  0.00     0.197 C 
BRANCH  10  11
HETATM   11  O1  UNL     1     -20.595  -0.451 -13.803  1.00  0.00    -0.398 OA
ATOM     12  H1  UNL     1     -21.279  -0.463 -14.461  1.00  0.00     0.209 HD
ENDBRANCH  10  11
ENDBRANCH   6  10
ENDBRANCH   3   4
ENDBRANCH   2   3
ENDBRANCH   1   2
BRANCH   1  13
HETATM   13  C6  UNL     1     -22.787   2.654  -6.850  1.00  0.00     0.059 C 
BRANCH  13  14
HETATM   14  N2  UNL     1     -22.905   1.247  -6.868  1.00  0.00    -0.375 N 
ATOM     15  H2  UNL     1     -22.141   0.606  -7.075  1.00  0.00     0.160 HD
BRANCH  14  16
HETATM   16  C7  UNL     1     -24.182   0.860  -6.569  1.00  0.00     0.283 C 
HETATM   17  C8  UNL     1     -24.385   0.642  -5.067  1.00  0.00     0.054 C 
HETATM   18  C9  UNL     1     -25.675  -0.017  -4.785  1.00  0.00     0.005 C 
HETATM   19  C10 UNL     1     -26.795   0.383  -5.686  1.00  0.00     0.028 C 
HETATM   20  C11 UNL     1     -26.440   0.683  -7.099  1.00  0.00     0.235 C 
HETATM   21  N3  UNL     1     -25.288   1.644  -7.052  1.00  0.00    -0.054 N 
ATOM     22  H32 UNL     1     -25.471   2.486  -6.506  1.00  0.00     0.279 HD
ATOM     23  H31 UNL     1     -25.106   2.119  -7.935  1.00  0.00     0.279 HD
ENDBRANCH  14  16
ENDBRANCH  13  14
ENDBRANCH   1  13
TORSDOF 8
ENDMDL
MODEL 5
REMARK VINA RESULT: -6.776326355      1.544      1.653
REMARK  8 active torsions:
REMARK  status: ('A' for Active; 'I' for Inactive)
REMARK    1  A    between atoms: O1_1  and  C1_3 
REMARK    2  A    between atoms: C1_3  and  C2_4 
REMARK    3  A    between atoms: N1_6  and  O2_7 
REMARK    4  A    between atoms: O2_7  and  C4_8 
REMARK    5  A    between atoms: C4_8  and  C5_9 
REMARK    6  A    between atoms: C5_9  and  C6_10 
REMARK    7  A    between atoms: C6_10  and  N2_11 
REMARK    8  A    between atoms: N2_11  and  C7_13 
ROOT
HETATM    1  C5  UNL     1     -20.698   3.818  -7.428  1.00  0.00     0.073 C 
ENDROOT
BRANCH   1   2
HETATM    2  C4  UNL     1     -22.080   3.101  -7.603  1.00  0.00     0.206 C 
BRANCH   2   3
HETATM    3  O2  UNL     1     -22.425   2.695  -6.386  1.00  0.00    -0.282 OA
BRANCH   3   4
HETATM    4  N1  UNL     1     -23.513   2.000  -6.376  1.00  0.00    -0.290 N 
HETATM    5  C3  UNL     1     -24.592   2.613  -7.106  1.00  0.00     0.183 C 
HETATM    6  C2  UNL     1     -25.835   1.835  -6.968  1.00  0.00     0.164 C 
HETATM    7  O3  UNL     1     -25.986   1.256  -5.728  1.00  0.00    -0.380 OA
HETATM    8  C13 UNL     1     -24.988   0.303  -5.494  1.00  0.00     0.190 C 
HETATM    9  C12 UNL     1     -23.667   0.647  -6.207  1.00  0.00     0.175 C 
BRANCH   6  10
HETATM   10  C1  UNL     1     -26.011   0.867  -8.114  1.00  0.00     0.197 C 
BRANCH  10  11
HETATM   11  O1  UNL     1     -25.846   1.404  -9.366  1.00  0.00    -0.398 OA
ATOM     12  H1  UNL     1     -26.555   1.961  -9.664  1.00  0.00     0.209 HD
ENDBRANCH  10  11
ENDBRANCH   6  10
ENDBRANCH   3   4
ENDBRANCH   2   3
ENDBRANCH   1   2
BRANCH   1  13
HETATM   13  C6  UNL     1     -20.116   3.937  -8.770  1.00  0.00     0.059 C 
BRANCH  13  14
HETATM   14  N2  UNL     1     -19.036   3.168  -9.257  1.00  0.00    -0.375 N 
ATOM     15  H2  UNL     1     -18.067   3.282  -8.963  1.00  0.00     0.160 HD
BRANCH  14  16
HETATM   16  C7  UNL     1     -19.464   2.251 -10.176  1.00  0.00     0.283 C 
HETATM   17  C8  UNL     1     -19.976   2.912 -11.459  1.00  0.00     0.054 C 
HETATM   18  C9  UNL     1     -20.667   1.941 -12.330  1.00  0.00     0.005 C 
HETATM   19  C10 UNL     1     -20.084   0.567 -12.325  1.00  0.00     0.028 C 
HETATM   20  C11 UNL     1     -19.510   0.091 -11.038  1.00  0.00     0.235 C 
HETATM   21  N3  UNL     1     -18.589   1.174 -10.558  1.00  0.00    -0.054 N 
ATOM     22  H32 UNL     1     -17.872   1.440 -11.233  1.00  0.00     0.279 HD
ATOM     23  H31 UNL     1     -17.948   0.879  -9.822  1.00  0.00     0.279 HD
ENDBRANCH  14  16
ENDBRANCH  13  14
ENDBRANCH   1  13
TORSDOF 8
ENDMDL
