MODEL 1
REMARK VINA RESULT: -7.035244351      0.000      0.000
REMARK  8 active torsions:
REMARK  status: ('A' for Active; 'I' for Inactive)
REMARK    1  A    between atoms: N1_1  and  C1_4 
REMARK    2  A    between atoms: C3_8  and  C4_9 
REMARK    3  A    between atoms: C4_9  and  C5_10 
REMARK    4  A    between atoms: C5_10  and  C6_11 
REMARK    5  A    between atoms: C6_11  and  O1_12 
REMARK    6  A    between atoms: O1_12  and  C7_13 
REMARK    7  A    between atoms: C7_13  and  C8_14 
REMARK    8  A    between atoms: C8_14  and  N3_15 
ROOT
HETATM    1  C1  UNL     1     -26.295  -1.115  -4.193  1.00  0.00     0.676 A 
HETATM    2  N2  UNL     1     -27.233  -0.539  -4.966  1.00  0.00    -0.202 N 
ATOM      3  H2  UNL     1     -28.180  -0.918  -4.957  1.00  0.00     0.183 HD
HETATM    4  C2  UNL     1     -26.965   0.519  -5.751  1.00  0.00     0.116 A 
HETATM    5  C3  UNL     1     -25.694   1.064  -5.792  1.00  0.00    -0.000 A 
HETATM    6  C13 UNL     1     -24.728   0.479  -5.001  1.00  0.00     0.139 A 
HETATM    7  N4  UNL     1     -23.393   0.975  -4.979  1.00  0.00    -0.082 NA
HETATM    8  N5  UNL     1     -25.059  -0.588  -4.229  1.00  0.00    -0.179 N 
ATOM      9  H5  UNL     1     -24.335  -1.011  -3.649  1.00  0.00     0.185 HD
ENDROOT
BRANCH   5  10
HETATM   10  C4  UNL     1     -25.346   2.225  -6.636  1.00  0.00     0.045 C 
BRANCH  10  11
HETATM   11  C5  UNL     1     -24.667   1.763  -7.910  1.00  0.00     0.031 C 
BRANCH  11  12
HETATM   12  C6  UNL     1     -25.674   1.559  -9.017  1.00  0.00     0.168 C 
BRANCH  12  13
HETATM   13  O1  UNL     1     -25.016   1.356 -10.200  1.00  0.00    -0.389 OA
BRANCH  13  14
HETATM   14  C7  UNL     1     -23.954   0.478 -10.157  1.00  0.00     0.198 C 
BRANCH  14  15
HETATM   15  C8  UNL     1     -22.860   0.929 -11.107  1.00  0.00     0.298 C 
BRANCH  15  16
HETATM   16  N3  UNL     1     -21.541   0.749 -10.479  1.00  0.00     0.090 N 
HETATM   17  C9  UNL     1     -20.990   2.023 -10.071  1.00  0.00     0.272 C 
HETATM   18  C10 UNL     1     -19.554   2.063 -10.510  1.00  0.00     0.032 C 
HETATM   19  C11 UNL     1     -19.299   0.633 -10.929  1.00  0.00     0.032 C 
HETATM   20  C12 UNL     1     -20.643   0.243 -11.512  1.00  0.00     0.272 C 
ENDBRANCH  15  16
ENDBRANCH  14  15
ENDBRANCH  13  14
ENDBRANCH  12  13
ENDBRANCH  11  12
ENDBRANCH  10  11
ENDBRANCH   5  10
BRANCH   1  21
HETATM   21  N1  UNL     1     -26.570  -2.138  -3.439  1.00  0.00    -0.234 N 
ATOM     22  H12 UNL     1     -26.458  -2.093  -2.426  1.00  0.00     0.174 HD
ATOM     23  H11 UNL     1     -26.907  -3.016  -3.833  1.00  0.00     0.174 HD
ENDBRANCH   1  21
TORSDOF 8
ENDMDL
MODEL 2
REMARK VINA RESULT: -6.982432160      1.039      1.587
REMARK  8 active torsions:
REMARK  status: ('A' for Active; 'I' for Inactive)
REMARK    1  A    between atoms: N1_1  and  C1_4 
REMARK    2  A    between atoms: C3_8  and  C4_9 
REMARK    3  A    between atoms: C4_9  and  C5_10 
REMARK    4  A    between atoms: C5_10  and  C6_11 
REMARK    5  A    between atoms: C6_11  and  O1_12 
REMARK    6  A    between atoms: O1_12  and  C7_13 
REMARK    7  A    between atoms: C7_13  and  C8_14 
REMARK    8  A    between atoms: C8_14  and  N3_15 
ROOT
HETATM    1  C1  UNL     1     -26.176  -1.086  -4.235  1.00  0.00     0.676 A 
HETATM    2  N2  UNL     1     -27.195  -0.531  -4.916  1.00  0.00    -0.202 N 
ATOM      3  H2  UNL     1     -28.141  -0.877  -4.756  1.00  0.00     0.183 HD
HETATM    4  C2  UNL     1     -27.008   0.465  -5.799  1.00  0.00     0.116 A 
HETATM    5  C3  UNL     1     -25.742   0.966  -6.044  1.00  0.00    -0.000 A 
HETATM    6  C13 UNL     1     -24.693   0.401  -5.349  1.00  0.00     0.139 A 
HETATM    7  N4  UNL     1     -23.356   0.853  -5.536  1.00  0.00    -0.082 NA
HETATM    8  N5  UNL     1     -24.944  -0.603  -4.469  1.00  0.00    -0.179 N 
ATOM      9  H5  UNL     1     -24.159  -1.011  -3.962  1.00  0.00     0.185 HD
ENDROOT
BRANCH   5  10
HETATM   10  C4  UNL     1     -25.482   2.058  -7.003  1.00  0.00     0.045 C 
BRANCH  10  11
HETATM   11  C5  UNL     1     -25.936   1.656  -8.392  1.00  0.00     0.031 C 
BRANCH  11  12
HETATM   12  C6  UNL     1     -24.954   0.701  -9.029  1.00  0.00     0.168 C 
BRANCH  12  13
HETATM   13  O1  UNL     1     -24.683   1.110 -10.306  1.00  0.00    -0.389 OA
BRANCH  13  14
HETATM   14  C7  UNL     1     -23.459   0.732 -10.815  1.00  0.00     0.198 C 
BRANCH  14  15
HETATM   15  C8  UNL     1     -22.382   0.880  -9.756  1.00  0.00     0.298 C 
BRANCH  15  16
HETATM   16  N3  UNL     1     -21.776   2.219  -9.836  1.00  0.00     0.090 N 
HETATM   17  C9  UNL     1     -20.362   2.125 -10.127  1.00  0.00     0.272 C 
HETATM   18  C10 UNL     1     -19.639   3.057  -9.196  1.00  0.00     0.032 C 
HETATM   19  C11 UNL     1     -20.770   3.852  -8.584  1.00  0.00     0.032 C 
HETATM   20  C12 UNL     1     -21.866   2.807  -8.504  1.00  0.00     0.272 C 
ENDBRANCH  15  16
ENDBRANCH  14  15
ENDBRANCH  13  14
ENDBRANCH  12  13
ENDBRANCH  11  12
ENDBRANCH  10  11
ENDBRANCH   5  10
BRANCH   1  21
HETATM   21  N1  UNL     1     -26.372  -2.049  -3.384  1.00  0.00    -0.234 N 
ATOM     22  H12 UNL     1     -26.697  -1.858  -2.436  1.00  0.00     0.174 HD
ATOM     23  H11 UNL     1     -26.210  -3.024  -3.634  1.00  0.00     0.174 HD
ENDBRANCH   1  21
TORSDOF 8
ENDMDL
MODEL 3
REMARK VINA RESULT: -6.977048944      2.485      5.579
REMARK  8 active torsions:
REMARK  status: ('A' for Active; 'I' for Inactive)
REMARK    1  A    between atoms: N1_1  and  C1_4 
REMARK    2  A    between atoms: C3_8  and  C4_9 
REMARK    3  A    between atoms: C4_9  and  C5_10 
REMARK    4  A    between atoms: C5_10  and  C6_11 
REMARK    5  A    between atoms: C6_11  and  O1_12 
REMARK    6  A    between atoms: O1_12  and  C7_13 
REMARK    7  A    between atoms: C7_13  and  C8_14 
REMARK    8  A    between atoms: C8_14  and  N3_15 
ROOT
HETATM    1  C1  UNL     1     -22.053   0.865 -10.371  1.00  0.00     0.676 A 
HETATM    2  N2  UNL     1     -23.157   1.167 -11.077  1.00  0.00    -0.202 N 
ATOM      3  H2  UNL     1     -23.068   1.755 -11.906  1.00  0.00     0.183 HD
HETATM    4  C2  UNL     1     -24.376   0.719 -10.729  1.00  0.00     0.116 A 
HETATM    5  C3  UNL     1     -24.542  -0.082  -9.614  1.00  0.00    -0.000 A 
HETATM    6  C13 UNL     1     -23.414  -0.396  -8.885  1.00  0.00     0.139 A 
HETATM    7  N4  UNL     1     -23.490  -1.216  -7.723  1.00  0.00    -0.082 NA
HETATM    8  N5  UNL     1     -22.210   0.087  -9.287  1.00  0.00    -0.179 N 
ATOM      9  H5  UNL     1     -21.384  -0.153  -8.739  1.00  0.00     0.185 HD
ENDROOT
BRANCH   5  10
HETATM   10  C4  UNL     1     -25.858  -0.600  -9.186  1.00  0.00     0.045 C 
BRANCH  10  11
HETATM   11  C5  UNL     1     -26.713   0.525  -8.640  1.00  0.00     0.031 C 
BRANCH  11  12
HETATM   12  C6  UNL     1     -27.600   0.038  -7.519  1.00  0.00     0.168 C 
BRANCH  12  13
HETATM   13  O1  UNL     1     -26.868  -0.061  -6.367  1.00  0.00    -0.389 OA
BRANCH  13  14
HETATM   14  C7  UNL     1     -26.419   1.129  -5.834  1.00  0.00     0.198 C 
BRANCH  14  15
HETATM   15  C8  UNL     1     -24.996   0.974  -5.328  1.00  0.00     0.298 C 
BRANCH  15  16
HETATM   16  N3  UNL     1     -24.214   2.179  -5.646  1.00  0.00     0.090 N 
HETATM   17  C9  UNL     1     -24.676   2.779  -6.879  1.00  0.00     0.272 C 
HETATM   18  C10 UNL     1     -23.470   3.113  -7.708  1.00  0.00     0.032 C 
HETATM   19  C11 UNL     1     -22.333   2.908  -6.731  1.00  0.00     0.032 C 
HETATM   20  C12 UNL     1     -22.847   1.742  -5.909  1.00  0.00     0.272 C 
ENDBRANCH  15  16
ENDBRANCH  14  15
ENDBRANCH  13  14
ENDBRANCH  12  13
ENDBRANCH  11  12
ENDBRANCH  10  11
ENDBRANCH   5  10
BRANCH   1  21
HETATM   21  N1  UNL     1     -20.881   1.306 -10.721  1.00  0.00    -0.234 N 
ATOM     22  H12 UNL     1     -20.045   0.732 -10.609  1.00  0.00     0.174 HD
ATOM     23  H11 UNL     1     -20.758   2.236 -11.120  1.00  0.00     0.174 HD
ENDBRANCH   1  21
TORSDOF 8
ENDMDL
MODEL 4
REMARK VINA RESULT: -6.957645789      1.877      6.820
REMARK  8 active torsions:
REMARK  status: ('A' for Active; 'I' for Inactive)
REMARK    1  A    between atoms: N1_1  and  C1_4 
REMARK    2  A    between atoms: C3_8  and  C4_9 
REMARK    3  A    between atoms: C4_9  and  C5_10 
REMARK    4  A    between atoms: C5_10  and  C6_11 
REMARK    5  A    between atoms: C6_11  and  O1_12 
REMARK    6  A    between atoms: O1_12  and  C7_13 
REMARK    7  A    between atoms: C7_13  and  C8_14 
REMARK    8  A    between atoms: C8_14  and  N3_15 
ROOT
HETATM    1  C1  UNL     1     -19.269   1.153 -10.849  1.00  0.00     0.676 A 
HETATM    2  N2  UNL     1     -20.022   0.041 -10.921  1.00  0.00    -0.202 N 
ATOM      3  H2  UNL     1     -19.606  -0.812 -11.295  1.00  0.00     0.183 HD
HETATM    4  C2  UNL     1     -21.304   0.015 -10.516  1.00  0.00     0.116 A 
HETATM    5  C3  UNL     1     -21.905   1.149 -10.002  1.00  0.00    -0.000 A 
HETATM    6  C13 UNL     1     -21.139   2.293  -9.925  1.00  0.00     0.139 A 
HETATM    7  N4  UNL     1     -21.676   3.507  -9.408  1.00  0.00    -0.082 NA
HETATM    8  N5  UNL     1     -19.850   2.258 -10.350  1.00  0.00    -0.179 N 
ATOM      9  H5  UNL     1     -19.295   3.111 -10.287  1.00  0.00     0.185 HD
ENDROOT
BRANCH   5  10
HETATM   10  C4  UNL     1     -23.309   1.175  -9.544  1.00  0.00     0.045 C 
BRANCH  10  11
HETATM   11  C5  UNL     1     -23.729  -0.197  -9.056  1.00  0.00     0.031 C 
BRANCH  11  12
HETATM   12  C6  UNL     1     -25.083  -0.577  -9.605  1.00  0.00     0.168 C 
BRANCH  12  13
HETATM   13  O1  UNL     1     -25.971  -0.716  -8.573  1.00  0.00    -0.389 OA
BRANCH  13  14
HETATM   14  C7  UNL     1     -26.632   0.430  -8.187  1.00  0.00     0.198 C 
BRANCH  14  15
HETATM   15  C8  UNL     1     -27.121   0.298  -6.756  1.00  0.00     0.298 C 
BRANCH  15  16
HETATM   16  N3  UNL     1     -26.311   1.144  -5.866  1.00  0.00     0.090 N 
HETATM   17  C9  UNL     1     -25.523   2.086  -6.631  1.00  0.00     0.272 C 
HETATM   18  C10 UNL     1     -24.126   2.070  -6.079  1.00  0.00     0.032 C 
HETATM   19  C11 UNL     1     -24.286   1.273  -4.804  1.00  0.00     0.032 C 
HETATM   20  C12 UNL     1     -25.348   0.269  -5.206  1.00  0.00     0.272 C 
ENDBRANCH  15  16
ENDBRANCH  14  15
ENDBRANCH  13  14
ENDBRANCH  12  13
ENDBRANCH  11  12
ENDBRANCH  10  11
ENDBRANCH   5  10
BRANCH   1  21
HETATM   21  N1  UNL     1     -18.031   1.163 -11.244  1.00  0.00    -0.234 N 
ATOM     22  H12 UNL     1     -17.481   0.304 -11.283  1.00  0.00     0.174 HD
ATOM     23  H11 UNL     1     -17.568   2.026 -11.529  1.00  0.00     0.174 HD
ENDBRANCH   1  21
TORSDOF 8
ENDMDL
MODEL 5
REMARK VINA RESULT: -6.957360007      2.283      3.499
REMARK  8 active torsions:
REMARK  status: ('A' for Active; 'I' for Inactive)
REMARK    1  A    between atoms: N1_1  and  C1_4 
REMARK    2  A    between atoms: C3_8  and  C4_9 
REMARK    3  A    between atoms: C4_9  and  C5_10 
REMARK    4  A    between atoms: C5_10  and  C6_11 
REMARK    5  A    between atoms: C6_11  and  O1_12 
REMARK    6  A    between atoms: O1_12  and  C7_13 
REMARK    7  A    between atoms: C7_13  and  C8_14 
REMARK    8  A    between atoms: C8_14  and  N3_15 
ROOT
HETATM    1  C1  UNL     1     -27.176   0.371  -7.277  1.00  0.00     0.676 A 
HETATM    2  N2  UNL     1     -26.527   0.906  -6.227  1.00  0.00    -0.202 N 
ATOM      3  H2  UNL     1     -26.900   0.756  -5.290  1.00  0.00     0.183 HD
HETATM    4  C2  UNL     1     -25.405   1.632  -6.371  1.00  0.00     0.116 A 
HETATM    5  C3  UNL     1     -24.865   1.858  -7.624  1.00  0.00    -0.000 A 
HETATM    6  C13 UNL     1     -25.525   1.312  -8.706  1.00  0.00     0.139 A 
HETATM    7  N4  UNL     1     -25.040   1.492 -10.033  1.00  0.00    -0.082 NA
HETATM    8  N5  UNL     1     -26.655   0.588  -8.498  1.00  0.00    -0.179 N 
ATOM      9  H5  UNL     1     -27.132   0.190  -9.306  1.00  0.00     0.185 HD
ENDROOT
BRANCH   5  10
HETATM   10  C4  UNL     1     -23.635   2.647  -7.839  1.00  0.00     0.045 C 
BRANCH  10  11
HETATM   11  C5  UNL     1     -22.788   2.651  -6.583  1.00  0.00     0.031 C 
BRANCH  11  12
HETATM   12  C6  UNL     1     -21.503   3.416  -6.797  1.00  0.00     0.168 C 
BRANCH  12  13
HETATM   13  O1  UNL     1     -21.394   3.764  -8.116  1.00  0.00    -0.389 OA
BRANCH  13  14
HETATM   14  C7  UNL     1     -20.115   3.789  -8.630  1.00  0.00     0.198 C 
BRANCH  14  15
HETATM   15  C8  UNL     1     -20.119   3.308 -10.070  1.00  0.00     0.298 C 
BRANCH  15  16
HETATM   16  N3  UNL     1     -20.018   1.841 -10.112  1.00  0.00     0.090 N 
HETATM   17  C9  UNL     1     -19.120   1.419 -11.165  1.00  0.00     0.272 C 
HETATM   18  C10 UNL     1     -19.783   0.298 -11.912  1.00  0.00     0.032 C 
HETATM   19  C11 UNL     1     -20.963  -0.034 -11.027  1.00  0.00     0.032 C 
HETATM   20  C12 UNL     1     -21.333   1.335 -10.490  1.00  0.00     0.272 C 
ENDBRANCH  15  16
ENDBRANCH  14  15
ENDBRANCH  13  14
ENDBRANCH  12  13
ENDBRANCH  11  12
ENDBRANCH  10  11
ENDBRANCH   5  10
BRANCH   1  21
HETATM   21  N1  UNL     1     -28.260  -0.328  -7.122  1.00  0.00    -0.234 N 
ATOM     22  H12 UNL     1     -28.454  -0.816  -6.247  1.00  0.00     0.174 HD
ATOM     23  H11 UNL     1     -28.952  -0.413  -7.867  1.00  0.00     0.174 HD
ENDBRANCH   1  21
TORSDOF 8
ENDMDL
