MODEL 1
REMARK VINA RESULT: -8.707984117      0.000      0.000
REMARK  20 active torsions:
REMARK  status: ('A' for Active; 'I' for Inactive)
REMARK    1  A    between atoms: C2_2  and  C3_3 
REMARK    2  A    between atoms: C3_3  and  C4_4 
REMARK    3  A    between atoms: C4_4  and  C5_5 
REMARK    4  A    between atoms: C5_5  and  C6_6 
REMARK    5  A    between atoms: C6_6  and  N1_7 
REMARK       I    between atoms: N1_7  and  C7_9 
REMARK       I    between atoms: C7_9  and  N2_11 
REMARK    6  A    between atoms: N2_11  and  C8_13 
REMARK    7  A    between atoms: C9_15  and  C10_16 
REMARK    8  A    between atoms: C10_16  and  O2_17 
REMARK    9  A    between atoms: C10_16  and  O3_19 
REMARK   10  A    between atoms: O3_19  and  C11_20 
REMARK   11  A    between atoms: C11_20  and  O4_21 
REMARK   12  A    between atoms: O4_21  and  C12_22 
REMARK   13  A    between atoms: C14_25  and  N3_26 
REMARK   14  A    between atoms: N3_26  and  C15_28 
REMARK   15  A    between atoms: C15_28  and  O6_29 
REMARK   16  A    between atoms: C15_28  and  C16_31 
REMARK   17  A    between atoms: N5_38  and  C19_39 
REMARK   18  A    between atoms: C23_44  and  O9_45 
REMARK   19  A    between atoms: C24_47  and  O10_48 
REMARK   20  A    between atoms: C25_50  and  O11_51 
ROOT
HETATM    1  C8  UNL     1     108.022  44.979  97.436  1.00  0.00     0.115 A 
HETATM    2  S1  UNL     1     106.883  46.086  96.765  1.00  0.00    -0.062 SA
HETATM    3  C9  UNL     1     107.546  47.085  95.526  1.00  0.00     0.094 A 
HETATM    4  C14 UNL     1     108.870  46.829  95.271  1.00  0.00     0.089 A 
HETATM    5  C24 UNL     1     109.666  45.912  95.890  1.00  0.00     0.130 A 
HETATM    6  C25 UNL     1     109.274  45.056  96.892  1.00  0.00     0.135 A 
ENDROOT
BRANCH   4   7
HETATM    7  N3  UNL     1     109.409  47.457  94.069  1.00  0.00    -0.356 N 
ATOM      8  H3  UNL     1     110.045  48.254  94.068  1.00  0.00     0.162 HD
BRANCH   7   9
HETATM    9  C15 UNL     1     108.914  46.788  92.870  1.00  0.00     0.262 C 
BRANCH   9  10
HETATM   10  O6  UNL     1     109.016  47.773  91.843  1.00  0.00    -0.372 OA
ATOM     11  H6  UNL     1     109.413  47.315  91.112  1.00  0.00     0.212 HD
ENDBRANCH   9  10
BRANCH   9  12
HETATM   12  C16 UNL     1     109.787  45.690  92.373  1.00  0.00     0.067 A 
HETATM   13  S2  UNL     1     109.364  44.181  91.713  1.00  0.00    -0.068 SA
HETATM   14  C17 UNL     1     110.927  43.512  91.518  1.00  0.00     0.097 A 
HETATM   15  N4  UNL     1     111.426  42.307  91.063  1.00  0.00    -0.301 N 
HETATM   16  C22 UNL     1     111.736  44.492  91.973  1.00  0.00     0.100 A 
HETATM   17  C18 UNL     1     112.770  42.099  91.072  1.00  0.00     0.330 A 
ATOM     18  H4  UNL     1     110.793  41.581  90.725  1.00  0.00     0.171 HD
HETATM   19  O7  UNL     1     113.191  40.963  90.642  1.00  0.00    -0.246 OA
HETATM   20  N5  UNL     1     113.580  43.035  91.508  1.00  0.00    -0.266 N 
HETATM   21  C21 UNL     1     113.114  44.207  91.954  1.00  0.00     0.267 A 
HETATM   22  O8  UNL     1     113.980  45.034  92.351  1.00  0.00    -0.267 OA
HETATM   23  C23 UNL     1     111.149  45.630  92.421  1.00  0.00     0.101 A 
BRANCH  20  24
HETATM   24  C19 UNL     1     115.043  42.803  91.531  1.00  0.00     0.132 C 
HETATM   25  C20 UNL     1     115.428  42.137  92.823  1.00  0.00     0.027 C 
ENDBRANCH  20  24
BRANCH  23  26
HETATM   26  O9  UNL     1     111.892  46.744  92.933  1.00  0.00    -0.358 OA
ATOM     27  H9  UNL     1     112.840  46.703  92.964  1.00  0.00     0.217 HD
ENDBRANCH  23  26
ENDBRANCH   9  12
ENDBRANCH   7   9
ENDBRANCH   4   7
BRANCH   3  28
HETATM   28  C10 UNL     1     106.738  48.191  94.980  1.00  0.00     0.200 C 
BRANCH  28  29
HETATM   29  O2  UNL     1     105.673  48.493  95.770  1.00  0.00    -0.340 OA
ATOM     30  H2  UNL     1     105.345  49.370  95.615  1.00  0.00     0.220 HD
ENDBRANCH  28  29
BRANCH  28  31
HETATM   31  O3  UNL     1     106.522  48.240  93.636  1.00  0.00    -0.303 OA
BRANCH  31  32
HETATM   32  C11 UNL     1     105.208  47.767  93.436  1.00  0.00     0.357 C 
BRANCH  32  33
HETATM   33  O4  UNL     1     104.288  48.861  93.452  1.00  0.00    -0.295 OA
BRANCH  33  34
HETATM   34  C12 UNL     1     103.126  48.791  92.681  1.00  0.00     0.256 C 
HETATM   35  C13 UNL     1     102.014  47.862  92.917  1.00  0.00     0.126 C 
HETATM   36  O5  UNL     1     103.080  49.624  91.706  1.00  0.00    -0.266 OA
ENDBRANCH  33  34
ENDBRANCH  32  33
ENDBRANCH  31  32
ENDBRANCH  28  31
ENDBRANCH   3  28
BRANCH   5  37
HETATM   37  O10 UNL     1     111.027  45.786  95.516  1.00  0.00    -0.356 OA
ATOM     38  H10 UNL     1     111.297  45.088  94.931  1.00  0.00     0.218 HD
ENDBRANCH   5  37
BRANCH   6  39
HETATM   39  O11 UNL     1     110.204  44.157  97.447  1.00  0.00    -0.356 OA
ATOM     40  H11 UNL     1     111.018  44.559  97.728  1.00  0.00     0.218 HD
ENDBRANCH   6  39
BRANCH   1  41
HETATM   41  N2  UNL     1     107.718  44.153  98.361  1.00  0.00    -0.300 N 
HETATM   42  C7  UNL     1     107.854  42.745  98.223  1.00  0.00     0.321 C 
HETATM   43  N1  UNL     1     108.649  42.020  99.137  1.00  0.00    -0.343 N 
HETATM   44  O1  UNL     1     107.279  42.168  97.294  1.00  0.00    -0.247 OA
ATOM     45  H1  UNL     1     109.104  42.492  99.919  1.00  0.00     0.164 HD
ATOM     46  H2  UNL     1     107.360  44.521  99.242  1.00  0.00     0.171 HD
BRANCH  43  47
HETATM   47  C6  UNL     1     108.807  40.580  98.939  1.00  0.00     0.124 C 
BRANCH  47  48
HETATM   48  C5  UNL     1     110.136  40.036  99.318  1.00  0.00     0.020 C 
BRANCH  48  49
HETATM   49  C4  UNL     1     110.261  38.574  98.981  1.00  0.00     0.002 C 
BRANCH  49  50
HETATM   50  C3  UNL     1     110.389  37.676 100.163  1.00  0.00    -0.000 C 
BRANCH  50  51
HETATM   51  C2  UNL     1     111.689  36.883 100.134  1.00  0.00    -0.005 C 
HETATM   52  C1  UNL     1     111.693  35.886 101.252  1.00  0.00     0.005 C 
ENDBRANCH  50  51
ENDBRANCH  49  50
ENDBRANCH  48  49
ENDBRANCH  47  48
ENDBRANCH  43  47
ENDBRANCH   1  41
TORSDOF 20
ENDMDL
MODEL 2
REMARK VINA RESULT: -8.675455411      3.988      7.892
REMARK  20 active torsions:
REMARK  status: ('A' for Active; 'I' for Inactive)
REMARK    1  A    between atoms: C2_2  and  C3_3 
REMARK    2  A    between atoms: C3_3  and  C4_4 
REMARK    3  A    between atoms: C4_4  and  C5_5 
REMARK    4  A    between atoms: C5_5  and  C6_6 
REMARK    5  A    between atoms: C6_6  and  N1_7 
REMARK       I    between atoms: N1_7  and  C7_9 
REMARK       I    between atoms: C7_9  and  N2_11 
REMARK    6  A    between atoms: N2_11  and  C8_13 
REMARK    7  A    between atoms: C9_15  and  C10_16 
REMARK    8  A    between atoms: C10_16  and  O2_17 
REMARK    9  A    between atoms: C10_16  and  O3_19 
REMARK   10  A    between atoms: O3_19  and  C11_20 
REMARK   11  A    between atoms: C11_20  and  O4_21 
REMARK   12  A    between atoms: O4_21  and  C12_22 
REMARK   13  A    between atoms: C14_25  and  N3_26 
REMARK   14  A    between atoms: N3_26  and  C15_28 
REMARK   15  A    between atoms: C15_28  and  O6_29 
REMARK   16  A    between atoms: C15_28  and  C16_31 
REMARK   17  A    between atoms: N5_38  and  C19_39 
REMARK   18  A    between atoms: C23_44  and  O9_45 
REMARK   19  A    between atoms: C24_47  and  O10_48 
REMARK   20  A    between atoms: C25_50  and  O11_51 
ROOT
HETATM    1  C8  UNL     1     109.662  46.451  92.047  1.00  0.00     0.115 A 
HETATM    2  S1  UNL     1     109.557  44.866  91.378  1.00  0.00    -0.062 SA
HETATM    3  C9  UNL     1     111.003  43.946  91.562  1.00  0.00     0.094 A 
HETATM    4  C14 UNL     1     111.999  44.624  92.220  1.00  0.00     0.089 A 
HETATM    5  C24 UNL     1     111.950  45.898  92.700  1.00  0.00     0.130 A 
HETATM    6  C25 UNL     1     110.869  46.744  92.620  1.00  0.00     0.135 A 
ENDROOT
BRANCH   4   7
HETATM    7  N3  UNL     1     113.142  43.815  92.629  1.00  0.00    -0.356 N 
ATOM      8  H3  UNL     1     113.080  42.971  93.198  1.00  0.00     0.162 HD
BRANCH   7   9
HETATM    9  C15 UNL     1     114.386  44.377  92.113  1.00  0.00     0.262 C 
BRANCH   9  10
HETATM   10  O6  UNL     1     115.248  44.442  93.247  1.00  0.00    -0.372 OA
ATOM     11  H6  UNL     1     115.400  45.371  93.378  1.00  0.00     0.212 HD
ENDBRANCH   9  10
BRANCH   9  12
HETATM   12  C16 UNL     1     115.124  43.485  91.178  1.00  0.00     0.067 A 
HETATM   13  S2  UNL     1     115.817  43.832  89.665  1.00  0.00    -0.068 SA
HETATM   14  C17 UNL     1     116.351  42.265  89.233  1.00  0.00     0.097 A 
HETATM   15  N4  UNL     1     116.988  41.714  88.138  1.00  0.00    -0.301 N 
HETATM   16  C22 UNL     1     115.973  41.514  90.290  1.00  0.00     0.100 A 
HETATM   17  C18 UNL     1     117.244  40.378  88.120  1.00  0.00     0.330 A 
ATOM     18  H4  UNL     1     117.262  42.303  87.351  1.00  0.00     0.171 HD
HETATM   19  O7  UNL     1     117.836  39.907  87.082  1.00  0.00    -0.246 OA
HETATM   20  N5  UNL     1     116.890  39.625  89.135  1.00  0.00    -0.266 N 
HETATM   21  C21 UNL     1     116.270  40.141  90.203  1.00  0.00     0.267 A 
HETATM   22  O8  UNL     1     115.973  39.327  91.120  1.00  0.00    -0.267 OA
HETATM   23  C23 UNL     1     115.333  42.143  91.307  1.00  0.00     0.101 A 
BRANCH  20  24
HETATM   24  C19 UNL     1     117.155  38.167  89.111  1.00  0.00     0.132 C 
HETATM   25  C20 UNL     1     115.974  37.449  88.519  1.00  0.00     0.027 C 
ENDBRANCH  20  24
BRANCH  23  26
HETATM   26  O9  UNL     1     114.877  41.463  92.483  1.00  0.00    -0.358 OA
ATOM     27  H9  UNL     1     115.505  41.032  93.051  1.00  0.00     0.217 HD
ENDBRANCH  23  26
ENDBRANCH   9  12
ENDBRANCH   7   9
ENDBRANCH   4   7
BRANCH   3  28
HETATM   28  C10 UNL     1     111.118  42.638  90.893  1.00  0.00     0.200 C 
BRANCH  28  29
HETATM   29  O2  UNL     1     111.942  41.786  91.560  1.00  0.00    -0.340 OA
ATOM     30  H2  UNL     1     111.719  41.714  92.481  1.00  0.00     0.220 HD
ENDBRANCH  28  29
BRANCH  28  31
HETATM   31  O3  UNL     1     111.193  42.604  89.533  1.00  0.00    -0.303 OA
BRANCH  31  32
HETATM   32  C11 UNL     1     111.836  41.391  89.208  1.00  0.00     0.357 C 
BRANCH  32  33
HETATM   33  O4  UNL     1     113.048  41.654  88.499  1.00  0.00    -0.295 OA
BRANCH  33  34
HETATM   34  C12 UNL     1     113.174  41.227  87.176  1.00  0.00     0.256 C 
HETATM   35  C13 UNL     1     113.876  40.011  86.747  1.00  0.00     0.126 C 
HETATM   36  O5  UNL     1     112.615  41.993  86.311  1.00  0.00    -0.266 OA
ENDBRANCH  33  34
ENDBRANCH  32  33
ENDBRANCH  31  32
ENDBRANCH  28  31
ENDBRANCH   3  28
BRANCH   5  37
HETATM   37  O10 UNL     1     113.081  46.458  93.344  1.00  0.00    -0.356 OA
ATOM     38  H10 UNL     1     113.955  46.244  93.042  1.00  0.00     0.218 HD
ENDBRANCH   5  37
BRANCH   6  39
HETATM   39  O11 UNL     1     110.955  48.042  93.159  1.00  0.00    -0.356 OA
ATOM     40  H11 UNL     1     111.730  48.525  92.895  1.00  0.00     0.218 HD
ENDBRANCH   6  39
BRANCH   1  41
HETATM   41  N2  UNL     1     108.691  47.280  92.014  1.00  0.00    -0.300 N 
HETATM   42  C7  UNL     1     107.519  47.139  92.805  1.00  0.00     0.321 C 
HETATM   43  N1  UNL     1     107.133  48.173  93.684  1.00  0.00    -0.343 N 
HETATM   44  O1  UNL     1     106.852  46.102  92.721  1.00  0.00    -0.247 OA
ATOM     45  H1  UNL     1     107.670  49.039  93.736  1.00  0.00     0.164 HD
ATOM     46  H2  UNL     1     108.760  48.083  91.388  1.00  0.00     0.171 HD
BRANCH  43  47
HETATM   47  C6  UNL     1     105.949  47.977  94.519  1.00  0.00     0.124 C 
BRANCH  47  48
HETATM   48  C5  UNL     1     106.229  47.625  95.935  1.00  0.00     0.020 C 
BRANCH  48  49
HETATM   49  C4  UNL     1     107.705  47.587  96.224  1.00  0.00     0.002 C 
BRANCH  49  50
HETATM   50  C3  UNL     1     108.146  46.416  97.034  1.00  0.00    -0.000 C 
BRANCH  50  51
HETATM   51  C2  UNL     1     109.299  45.672  96.373  1.00  0.00    -0.005 C 
HETATM   52  C1  UNL     1     109.916  44.726  97.359  1.00  0.00     0.005 C 
ENDBRANCH  50  51
ENDBRANCH  49  50
ENDBRANCH  48  49
ENDBRANCH  47  48
ENDBRANCH  43  47
ENDBRANCH   1  41
TORSDOF 20
ENDMDL
MODEL 3
REMARK VINA RESULT: -8.511676750      1.213      1.820
REMARK  20 active torsions:
REMARK  status: ('A' for Active; 'I' for Inactive)
REMARK    1  A    between atoms: C2_2  and  C3_3 
REMARK    2  A    between atoms: C3_3  and  C4_4 
REMARK    3  A    between atoms: C4_4  and  C5_5 
REMARK    4  A    between atoms: C5_5  and  C6_6 
REMARK    5  A    between atoms: C6_6  and  N1_7 
REMARK       I    between atoms: N1_7  and  C7_9 
REMARK       I    between atoms: C7_9  and  N2_11 
REMARK    6  A    between atoms: N2_11  and  C8_13 
REMARK    7  A    between atoms: C9_15  and  C10_16 
REMARK    8  A    between atoms: C10_16  and  O2_17 
REMARK    9  A    between atoms: C10_16  and  O3_19 
REMARK   10  A    between atoms: O3_19  and  C11_20 
REMARK   11  A    between atoms: C11_20  and  O4_21 
REMARK   12  A    between atoms: O4_21  and  C12_22 
REMARK   13  A    between atoms: C14_25  and  N3_26 
REMARK   14  A    between atoms: N3_26  and  C15_28 
REMARK   15  A    between atoms: C15_28  and  O6_29 
REMARK   16  A    between atoms: C15_28  and  C16_31 
REMARK   17  A    between atoms: N5_38  and  C19_39 
REMARK   18  A    between atoms: C23_44  and  O9_45 
REMARK   19  A    between atoms: C24_47  and  O10_48 
REMARK   20  A    between atoms: C25_50  and  O11_51 
ROOT
HETATM    1  C8  UNL     1     108.163  45.066  97.311  1.00  0.00     0.115 A 
HETATM    2  S1  UNL     1     106.991  46.089  96.569  1.00  0.00    -0.062 SA
HETATM    3  C9  UNL     1     107.622  47.022  95.264  1.00  0.00     0.094 A 
HETATM    4  C14 UNL     1     108.953  46.790  95.023  1.00  0.00     0.089 A 
HETATM    5  C24 UNL     1     109.777  45.942  95.700  1.00  0.00     0.130 A 
HETATM    6  C25 UNL     1     109.412  45.144  96.759  1.00  0.00     0.135 A 
ENDROOT
BRANCH   4   7
HETATM    7  N3  UNL     1     109.471  47.351  93.780  1.00  0.00    -0.356 N 
ATOM      8  H3  UNL     1     109.992  48.226  93.712  1.00  0.00     0.162 HD
BRANCH   7   9
HETATM    9  C15 UNL     1     109.145  46.491  92.647  1.00  0.00     0.262 C 
BRANCH   9  10
HETATM   10  O6  UNL     1     109.186  47.357  91.516  1.00  0.00    -0.372 OA
ATOM     11  H6  UNL     1     110.018  47.809  91.591  1.00  0.00     0.212 HD
ENDBRANCH   9  10
BRANCH   9  12
HETATM   12  C16 UNL     1     110.181  45.471  92.330  1.00  0.00     0.067 A 
HETATM   13  S2  UNL     1     111.876  45.588  92.392  1.00  0.00    -0.068 SA
HETATM   14  C17 UNL     1     112.287  44.044  91.779  1.00  0.00     0.097 A 
HETATM   15  N4  UNL     1     113.469  43.385  91.500  1.00  0.00    -0.301 N 
HETATM   16  C22 UNL     1     111.084  43.479  91.546  1.00  0.00     0.100 A 
HETATM   17  C18 UNL     1     113.421  42.130  90.977  1.00  0.00     0.330 A 
ATOM     18  H4  UNL     1     114.366  43.833  91.684  1.00  0.00     0.171 HD
HETATM   19  O7  UNL     1     114.543  41.553  90.731  1.00  0.00    -0.246 OA
HETATM   20  N5  UNL     1     112.265  41.556  90.742  1.00  0.00    -0.266 N 
HETATM   21  C21 UNL     1     111.111  42.181  91.004  1.00  0.00     0.267 A 
HETATM   22  O8  UNL     1     110.058  41.538  90.738  1.00  0.00    -0.267 OA
HETATM   23  C23 UNL     1     109.981  44.217  91.830  1.00  0.00     0.101 A 
BRANCH  20  24
HETATM   24  C19 UNL     1     112.212  40.195  90.159  1.00  0.00     0.132 C 
HETATM   25  C20 UNL     1     112.266  40.286  88.659  1.00  0.00     0.027 C 
ENDBRANCH  20  24
BRANCH  23  26
HETATM   26  O9  UNL     1     108.646  43.738  91.627  1.00  0.00    -0.358 OA
ATOM     27  H9  UNL     1     108.343  43.548  90.746  1.00  0.00     0.217 HD
ENDBRANCH  23  26
ENDBRANCH   9  12
ENDBRANCH   7   9
ENDBRANCH   4   7
BRANCH   3  28
HETATM   28  C10 UNL     1     106.781  48.063  94.646  1.00  0.00     0.200 C 
BRANCH  28  29
HETATM   29  O2  UNL     1     105.634  48.284  95.345  1.00  0.00    -0.340 OA
ATOM     30  H2  UNL     1     104.938  48.628  94.798  1.00  0.00     0.220 HD
ENDBRANCH  28  29
BRANCH  28  31
HETATM   31  O3  UNL     1     106.672  48.095  93.289  1.00  0.00    -0.303 OA
BRANCH  31  32
HETATM   32  C11 UNL     1     105.475  47.416  92.978  1.00  0.00     0.357 C 
BRANCH  32  33
HETATM   33  O4  UNL     1     104.641  48.243  92.164  1.00  0.00    -0.295 OA
BRANCH  33  34
HETATM   34  C12 UNL     1     103.332  48.508  92.571  1.00  0.00     0.256 C 
HETATM   35  C13 UNL     1     102.545  47.662  93.477  1.00  0.00     0.126 C 
HETATM   36  O5  UNL     1     102.829  49.585  92.087  1.00  0.00    -0.266 OA
ENDBRANCH  33  34
ENDBRANCH  32  33
ENDBRANCH  31  32
ENDBRANCH  28  31
ENDBRANCH   3  28
BRANCH   5  37
HETATM   37  O10 UNL     1     111.141  45.832  95.332  1.00  0.00    -0.356 OA
ATOM     38  H10 UNL     1     111.609  45.018  95.476  1.00  0.00     0.218 HD
ENDBRANCH   5  37
BRANCH   6  39
HETATM   39  O11 UNL     1     110.369  44.313  97.371  1.00  0.00    -0.356 OA
ATOM     40  H11 UNL     1     110.773  43.683  96.785  1.00  0.00     0.218 HD
ENDBRANCH   6  39
BRANCH   1  41
HETATM   41  N2  UNL     1     107.885  44.295  98.290  1.00  0.00    -0.300 N 
HETATM   42  C7  UNL     1     107.941  42.877  98.206  1.00  0.00     0.321 C 
HETATM   43  N1  UNL     1     108.761  42.150  99.093  1.00  0.00    -0.343 N 
HETATM   44  O1  UNL     1     107.272  42.295  97.344  1.00  0.00    -0.247 OA
ATOM     45  H1  UNL     1     109.294  42.628  99.820  1.00  0.00     0.164 HD
ATOM     46  H2  UNL     1     107.609  44.718  99.177  1.00  0.00     0.171 HD
BRANCH  43  47
HETATM   47  C6  UNL     1     108.832  40.696  98.949  1.00  0.00     0.124 C 
BRANCH  47  48
HETATM   48  C5  UNL     1     110.134  40.090  99.328  1.00  0.00     0.020 C 
BRANCH  48  49
HETATM   49  C4  UNL     1     110.193  38.626  98.987  1.00  0.00     0.002 C 
BRANCH  49  50
HETATM   50  C3  UNL     1     110.406  37.727 100.156  1.00  0.00    -0.000 C 
BRANCH  50  51
HETATM   51  C2  UNL     1     111.643  36.855  99.983  1.00  0.00    -0.005 C 
HETATM   52  C1  UNL     1     111.782  35.941 101.162  1.00  0.00     0.005 C 
ENDBRANCH  50  51
ENDBRANCH  49  50
ENDBRANCH  48  49
ENDBRANCH  47  48
ENDBRANCH  43  47
ENDBRANCH   1  41
TORSDOF 20
ENDMDL
MODEL 4
REMARK VINA RESULT: -8.364979024      0.998      1.147
REMARK  20 active torsions:
REMARK  status: ('A' for Active; 'I' for Inactive)
REMARK    1  A    between atoms: C2_2  and  C3_3 
REMARK    2  A    between atoms: C3_3  and  C4_4 
REMARK    3  A    between atoms: C4_4  and  C5_5 
REMARK    4  A    between atoms: C5_5  and  C6_6 
REMARK    5  A    between atoms: C6_6  and  N1_7 
REMARK       I    between atoms: N1_7  and  C7_9 
REMARK       I    between atoms: C7_9  and  N2_11 
REMARK    6  A    between atoms: N2_11  and  C8_13 
REMARK    7  A    between atoms: C9_15  and  C10_16 
REMARK    8  A    between atoms: C10_16  and  O2_17 
REMARK    9  A    between atoms: C10_16  and  O3_19 
REMARK   10  A    between atoms: O3_19  and  C11_20 
REMARK   11  A    between atoms: C11_20  and  O4_21 
REMARK   12  A    between atoms: O4_21  and  C12_22 
REMARK   13  A    between atoms: C14_25  and  N3_26 
REMARK   14  A    between atoms: N3_26  and  C15_28 
REMARK   15  A    between atoms: C15_28  and  O6_29 
REMARK   16  A    between atoms: C15_28  and  C16_31 
REMARK   17  A    between atoms: N5_38  and  C19_39 
REMARK   18  A    between atoms: C23_44  and  O9_45 
REMARK   19  A    between atoms: C24_47  and  O10_48 
REMARK   20  A    between atoms: C25_50  and  O11_51 
ROOT
HETATM    1  C8  UNL     1     108.350  45.152  96.909  1.00  0.00     0.115 A 
HETATM    2  S1  UNL     1     107.093  45.754  95.894  1.00  0.00    -0.062 SA
HETATM    3  C9  UNL     1     107.675  46.581  94.498  1.00  0.00     0.094 A 
HETATM    4  C14 UNL     1     109.046  46.617  94.419  1.00  0.00     0.089 A 
HETATM    5  C24 UNL     1     109.936  46.095  95.309  1.00  0.00     0.130 A 
HETATM    6  C25 UNL     1     109.615  45.418  96.462  1.00  0.00     0.135 A 
ENDROOT
BRANCH   4   7
HETATM    7  N3  UNL     1     109.587  47.071  93.143  1.00  0.00    -0.356 N 
ATOM      8  H3  UNL     1     110.060  47.964  92.999  1.00  0.00     0.162 HD
BRANCH   7   9
HETATM    9  C15 UNL     1     109.361  46.076  92.100  1.00  0.00     0.262 C 
BRANCH   9  10
HETATM   10  O6  UNL     1     109.370  46.821  90.884  1.00  0.00    -0.372 OA
ATOM     11  H6  UNL     1     109.715  46.217  90.237  1.00  0.00     0.212 HD
ENDBRANCH   9  10
BRANCH   9  12
HETATM   12  C16 UNL     1     110.481  45.113  91.915  1.00  0.00     0.067 A 
HETATM   13  S2  UNL     1     110.442  43.475  91.463  1.00  0.00    -0.068 SA
HETATM   14  C17 UNL     1     112.108  43.107  91.595  1.00  0.00     0.097 A 
HETATM   15  N4  UNL     1     112.877  41.973  91.418  1.00  0.00    -0.301 N 
HETATM   16  C22 UNL     1     112.648  44.280  91.986  1.00  0.00     0.100 A 
HETATM   17  C18 UNL     1     114.217  42.037  91.642  1.00  0.00     0.330 A 
ATOM     18  H4  UNL     1     112.445  41.097  91.123  1.00  0.00     0.171 HD
HETATM   19  O7  UNL     1     114.894  40.959  91.468  1.00  0.00    -0.246 OA
HETATM   20  N5  UNL     1     114.769  43.166  92.022  1.00  0.00    -0.266 N 
HETATM   21  C21 UNL     1     114.039  44.273  92.200  1.00  0.00     0.267 A 
HETATM   22  O8  UNL     1     114.671  45.302  92.567  1.00  0.00    -0.267 OA
HETATM   23  C23 UNL     1     111.807  45.331  92.155  1.00  0.00     0.101 A 
BRANCH  20  24
HETATM   24  C19 UNL     1     116.226  43.234  92.281  1.00  0.00     0.132 C 
HETATM   25  C20 UNL     1     116.493  42.963  93.735  1.00  0.00     0.027 C 
ENDBRANCH  20  24
BRANCH  23  26
HETATM   26  O9  UNL     1     112.250  46.629  92.570  1.00  0.00    -0.358 OA
ATOM     27  H9  UNL     1     112.711  46.727  93.395  1.00  0.00     0.217 HD
ENDBRANCH  23  26
ENDBRANCH   9  12
ENDBRANCH   7   9
ENDBRANCH   4   7
BRANCH   3  28
HETATM   28  C10 UNL     1     106.721  47.294  93.630  1.00  0.00     0.200 C 
BRANCH  28  29
HETATM   29  O2  UNL     1     106.654  46.754  92.383  1.00  0.00    -0.340 OA
ATOM     30  H2  UNL     1     105.912  46.170  92.281  1.00  0.00     0.220 HD
ENDBRANCH  28  29
BRANCH  28  31
HETATM   31  O3  UNL     1     106.664  48.653  93.699  1.00  0.00    -0.303 OA
BRANCH  31  32
HETATM   32  C11 UNL     1     105.390  48.963  94.221  1.00  0.00     0.357 C 
BRANCH  32  33
HETATM   33  O4  UNL     1     104.460  47.932  93.883  1.00  0.00    -0.295 OA
BRANCH  33  34
HETATM   34  C12 UNL     1     103.366  48.236  93.070  1.00  0.00     0.256 C 
HETATM   35  C13 UNL     1     102.027  47.651  93.209  1.00  0.00     0.126 C 
HETATM   36  O5  UNL     1     103.606  49.097  92.149  1.00  0.00    -0.266 OA
ENDBRANCH  33  34
ENDBRANCH  32  33
ENDBRANCH  31  32
ENDBRANCH  28  31
ENDBRANCH   3  28
BRANCH   5  37
HETATM   37  O10 UNL     1     111.328  46.235  95.085  1.00  0.00    -0.356 OA
ATOM     38  H10 UNL     1     111.727  47.097  95.092  1.00  0.00     0.218 HD
ENDBRANCH   5  37
BRANCH   6  39
HETATM   39  O11 UNL     1     110.639  44.932  97.296  1.00  0.00    -0.356 OA
ATOM     40  H11 UNL     1     111.504  45.270  97.092  1.00  0.00     0.218 HD
ENDBRANCH   6  39
BRANCH   1  41
HETATM   41  N2  UNL     1     108.117  44.508  97.987  1.00  0.00    -0.300 N 
HETATM   42  C7  UNL     1     108.045  43.089  98.045  1.00  0.00     0.321 C 
HETATM   43  N1  UNL     1     108.894  42.375  98.917  1.00  0.00    -0.343 N 
HETATM   44  O1  UNL     1     107.240  42.493  97.321  1.00  0.00    -0.247 OA
ATOM     45  H1  UNL     1     109.541  42.868  99.533  1.00  0.00     0.164 HD
ATOM     46  H2  UNL     1     107.977  45.037  98.848  1.00  0.00     0.171 HD
BRANCH  43  47
HETATM   47  C6  UNL     1     108.827  40.915  98.919  1.00  0.00     0.124 C 
BRANCH  47  48
HETATM   48  C5  UNL     1     110.100  40.228  99.257  1.00  0.00     0.020 C 
BRANCH  48  49
HETATM   49  C4  UNL     1     110.037  38.753  98.966  1.00  0.00     0.002 C 
BRANCH  49  50
HETATM   50  C3  UNL     1     110.235  37.879 100.158  1.00  0.00    -0.000 C 
BRANCH  50  51
HETATM   51  C2  UNL     1     111.471  37.001 100.018  1.00  0.00    -0.005 C 
HETATM   52  C1  UNL     1     111.574  36.087 101.201  1.00  0.00     0.005 C 
ENDBRANCH  50  51
ENDBRANCH  49  50
ENDBRANCH  48  49
ENDBRANCH  47  48
ENDBRANCH  43  47
ENDBRANCH   1  41
TORSDOF 20
ENDMDL
MODEL 5
REMARK VINA RESULT: -8.270348791      4.889      8.866
REMARK  20 active torsions:
REMARK  status: ('A' for Active; 'I' for Inactive)
REMARK    1  A    between atoms: C2_2  and  C3_3 
REMARK    2  A    between atoms: C3_3  and  C4_4 
REMARK    3  A    between atoms: C4_4  and  C5_5 
REMARK    4  A    between atoms: C5_5  and  C6_6 
REMARK    5  A    between atoms: C6_6  and  N1_7 
REMARK       I    between atoms: N1_7  and  C7_9 
REMARK       I    between atoms: C7_9  and  N2_11 
REMARK    6  A    between atoms: N2_11  and  C8_13 
REMARK    7  A    between atoms: C9_15  and  C10_16 
REMARK    8  A    between atoms: C10_16  and  O2_17 
REMARK    9  A    between atoms: C10_16  and  O3_19 
REMARK   10  A    between atoms: O3_19  and  C11_20 
REMARK   11  A    between atoms: C11_20  and  O4_21 
REMARK   12  A    between atoms: O4_21  and  C12_22 
REMARK   13  A    between atoms: C14_25  and  N3_26 
REMARK   14  A    between atoms: N3_26  and  C15_28 
REMARK   15  A    between atoms: C15_28  and  O6_29 
REMARK   16  A    between atoms: C15_28  and  C16_31 
REMARK   17  A    between atoms: N5_38  and  C19_39 
REMARK   18  A    between atoms: C23_44  and  O9_45 
REMARK   19  A    between atoms: C24_47  and  O10_48 
REMARK   20  A    between atoms: C25_50  and  O11_51 
ROOT
HETATM    1  C8  UNL     1     109.696  46.221  92.018  1.00  0.00     0.115 A 
HETATM    2  S1  UNL     1     109.579  44.619  91.395  1.00  0.00    -0.062 SA
HETATM    3  C9  UNL     1     111.028  43.703  91.578  1.00  0.00     0.094 A 
HETATM    4  C14 UNL     1     112.036  44.399  92.199  1.00  0.00     0.089 A 
HETATM    5  C24 UNL     1     111.995  45.685  92.646  1.00  0.00     0.130 A 
HETATM    6  C25 UNL     1     110.912  46.529  92.562  1.00  0.00     0.135 A 
ENDROOT
BRANCH   4   7
HETATM    7  N3  UNL     1     113.186  43.601  92.610  1.00  0.00    -0.356 N 
ATOM      8  H3  UNL     1     113.133  42.766  93.194  1.00  0.00     0.162 HD
BRANCH   7   9
HETATM    9  C15 UNL     1     114.423  44.158  92.070  1.00  0.00     0.262 C 
BRANCH   9  10
HETATM   10  O6  UNL     1     115.337  44.126  93.164  1.00  0.00    -0.372 OA
ATOM     11  H6  UNL     1     114.979  44.743  93.792  1.00  0.00     0.212 HD
ENDBRANCH   9  10
BRANCH   9  12
HETATM   12  C16 UNL     1     115.088  43.306  91.048  1.00  0.00     0.067 A 
HETATM   13  S2  UNL     1     115.571  43.687  89.464  1.00  0.00    -0.068 SA
HETATM   14  C17 UNL     1     116.133  42.150  88.963  1.00  0.00     0.097 A 
HETATM   15  N4  UNL     1     116.660  41.633  87.795  1.00  0.00    -0.301 N 
HETATM   16  C22 UNL     1     115.928  41.382  90.054  1.00  0.00     0.100 A 
HETATM   17  C18 UNL     1     116.984  40.313  87.741  1.00  0.00     0.330 A 
ATOM     18  H4  UNL     1     116.804  42.234  86.984  1.00  0.00     0.171 HD
HETATM   19  O7  UNL     1     117.470  39.873  86.635  1.00  0.00    -0.246 OA
HETATM   20  N5  UNL     1     116.798  39.543  88.787  1.00  0.00    -0.266 N 
HETATM   21  C21 UNL     1     116.286  40.027  89.925  1.00  0.00     0.267 A 
HETATM   22  O8  UNL     1     116.147  39.200  90.868  1.00  0.00    -0.267 OA
HETATM   23  C23 UNL     1     115.384  41.977  91.145  1.00  0.00     0.101 A 
BRANCH  20  24
HETATM   24  C19 UNL     1     117.137  38.102  88.724  1.00  0.00     0.132 C 
HETATM   25  C20 UNL     1     115.923  37.316  88.312  1.00  0.00     0.027 C 
ENDBRANCH  20  24
BRANCH  23  26
HETATM   26  O9  UNL     1     115.112  41.276  92.365  1.00  0.00    -0.358 OA
ATOM     27  H9  UNL     1     115.227  40.333  92.401  1.00  0.00     0.217 HD
ENDBRANCH  23  26
ENDBRANCH   9  12
ENDBRANCH   7   9
ENDBRANCH   4   7
BRANCH   3  28
HETATM   28  C10 UNL     1     111.132  42.377  90.942  1.00  0.00     0.200 C 
BRANCH  28  29
HETATM   29  O2  UNL     1     111.992  41.554  91.600  1.00  0.00    -0.340 OA
ATOM     30  H2  UNL     1     111.683  40.657  91.629  1.00  0.00     0.220 HD
ENDBRANCH  28  29
BRANCH  28  31
HETATM   31  O3  UNL     1     111.152  42.305  89.582  1.00  0.00    -0.303 OA
BRANCH  31  32
HETATM   32  C11 UNL     1     112.290  41.539  89.250  1.00  0.00     0.357 C 
BRANCH  32  33
HETATM   33  O4  UNL     1     112.675  41.796  87.898  1.00  0.00    -0.295 OA
BRANCH  33  34
HETATM   34  C12 UNL     1     113.182  40.754  87.120  1.00  0.00     0.256 C 
HETATM   35  C13 UNL     1     112.994  39.325  87.401  1.00  0.00     0.126 C 
HETATM   36  O5  UNL     1     113.855  41.131  86.094  1.00  0.00    -0.266 OA
ENDBRANCH  33  34
ENDBRANCH  32  33
ENDBRANCH  31  32
ENDBRANCH  28  31
ENDBRANCH   3  28
BRANCH   5  37
HETATM   37  O10 UNL     1     113.137  46.263  93.254  1.00  0.00    -0.356 OA
ATOM     38  H10 UNL     1     113.397  47.149  93.034  1.00  0.00     0.218 HD
ENDBRANCH   5  37
BRANCH   6  39
HETATM   39  O11 UNL     1     111.008  47.841  93.064  1.00  0.00    -0.356 OA
ATOM     40  H11 UNL     1     111.192  47.892  93.995  1.00  0.00     0.218 HD
ENDBRANCH   6  39
BRANCH   1  41
HETATM   41  N2  UNL     1     108.724  47.049  91.980  1.00  0.00    -0.300 N 
HETATM   42  C7  UNL     1     107.632  47.012  92.889  1.00  0.00     0.321 C 
HETATM   43  N1  UNL     1     107.329  48.144  93.674  1.00  0.00    -0.343 N 
HETATM   44  O1  UNL     1     106.962  45.978  92.989  1.00  0.00    -0.247 OA
ATOM     45  H1  UNL     1     107.866  49.006  93.574  1.00  0.00     0.164 HD
ATOM     46  H2  UNL     1     108.732  47.773  91.261  1.00  0.00     0.171 HD
BRANCH  43  47
HETATM   47  C6  UNL     1     106.229  48.057  94.633  1.00  0.00     0.124 C 
BRANCH  47  48
HETATM   48  C5  UNL     1     105.131  49.035  94.422  1.00  0.00     0.020 C 
BRANCH  48  49
HETATM   49  C4  UNL     1     103.862  48.366  93.968  1.00  0.00     0.002 C 
BRANCH  49  50
HETATM   50  C3  UNL     1     103.351  48.839  92.650  1.00  0.00    -0.000 C 
BRANCH  50  51
HETATM   51  C2  UNL     1     102.279  47.912  92.092  1.00  0.00    -0.005 C 
HETATM   52  C1  UNL     1     101.340  47.513  93.189  1.00  0.00     0.005 C 
ENDBRANCH  50  51
ENDBRANCH  49  50
ENDBRANCH  48  49
ENDBRANCH  47  48
ENDBRANCH  43  47
ENDBRANCH   1  41
TORSDOF 20
ENDMDL
