MODEL 1
REMARK VINA RESULT: -9.487358585      0.000      0.000
REMARK  17 active torsions:
REMARK  status: ('A' for Active; 'I' for Inactive)
REMARK    1  A    between atoms: O1_2  and  C2_3 
REMARK    2  A    between atoms: C2_3  and  C3_5 
REMARK    3  A    between atoms: C5_7  and  O3_8 
REMARK    4  A    between atoms: N1_18  and  C12_19 
REMARK    5  A    between atoms: C12_19  and  C13_20 
REMARK    6  A    between atoms: C13_20  and  C14_21 
REMARK    7  A    between atoms: C14_21  and  N2_22 
REMARK    8  A    between atoms: N2_22  and  C15_25 
REMARK    9  A    between atoms: C15_25  and  C16_26 
REMARK   10  A    between atoms: C16_26  and  C17_27 
REMARK   11  A    between atoms: C17_27  and  N3_28 
REMARK       I    between atoms: N3_28  and  C18_30 
REMARK   12  A    between atoms: C18_30  and  C19_32 
REMARK   13  A    between atoms: C22_38  and  O7_39 
REMARK   14  A    between atoms: C24_42  and  O8_43 
REMARK   15  A    between atoms: C24_42  and  C25_45 
REMARK   16  A    between atoms: C25_45  and  O9_46 
REMARK   17  A    between atoms: C27_50  and  O10_51 
ROOT
HETATM    1  C3  UNL     1     116.599  43.158  91.703  1.00  0.00     0.043 A 
HETATM    2  C4  UNL     1     116.056  42.085  91.032  1.00  0.00     0.055 A 
HETATM    3  C5  UNL     1     114.706  41.944  90.819  1.00  0.00     0.082 A 
HETATM    4  C6  UNL     1     113.817  42.910  91.286  1.00  0.00     0.065 A 
HETATM    5  C7  UNL     1     112.486  42.723  91.045  1.00  0.00     0.202 A 
HETATM    6  O4  UNL     1     112.153  41.664  90.404  1.00  0.00    -0.286 OA
HETATM    7  C8  UNL     1     111.452  43.555  91.417  1.00  0.00     0.084 A 
HETATM    8  C9  UNL     1     111.579  44.723  92.101  1.00  0.00     0.094 A 
HETATM    9  S1  UNL     1     113.201  45.123  92.494  1.00  0.00    -0.070 SA
HETATM   10  C10 UNL     1     114.344  43.981  91.954  1.00  0.00     0.025 A 
HETATM   11  C11 UNL     1     115.707  44.101  92.156  1.00  0.00     0.037 A 
HETATM   12  N1  UNL     1     110.459  45.584  92.477  1.00  0.00    -0.337 N 
HETATM   13  C23 UNL     1     109.165  45.204  92.116  1.00  0.00     0.094 A 
HETATM   14  C24 UNL     1     108.105  45.933  92.246  1.00  0.00     0.095 C 
HETATM   15  C26 UNL     1     109.025  43.910  91.364  1.00  0.00     0.110 A 
HETATM   16  N6  UNL     1     107.715  43.468  90.980  1.00  0.00    -0.097 NA
HETATM   17  C27 UNL     1     110.075  43.180  91.059  1.00  0.00     0.109 A 
ENDROOT
BRANCH  12  18
HETATM   18  C12 UNL     1     110.872  46.647  93.347  1.00  0.00     0.132 C 
BRANCH  18  19
HETATM   19  C13 UNL     1     110.860  46.374  94.800  1.00  0.00     0.048 C 
BRANCH  19  20
HETATM   20  C14 UNL     1     109.843  45.460  95.366  1.00  0.00     0.234 C 
BRANCH  20  21
HETATM   21  N2  UNL     1     108.832  46.179  96.149  1.00  0.00    -0.075 N 
ATOM     22  H22 UNL     1     109.218  46.933  96.717  1.00  0.00     0.277 HD
ATOM     23  H21 UNL     1     108.212  46.756  95.582  1.00  0.00     0.277 HD
BRANCH  21  24
HETATM   24  C15 UNL     1     108.136  45.173  96.922  1.00  0.00     0.234 C 
BRANCH  24  25
HETATM   25  C16 UNL     1     109.017  44.275  97.720  1.00  0.00     0.047 C 
BRANCH  25  26
HETATM   26  C17 UNL     1     108.295  43.219  98.513  1.00  0.00     0.124 C 
BRANCH  26  27
HETATM   27  N3  UNL     1     109.066  42.005  98.555  1.00  0.00    -0.355 N 
HETATM   28  C18 UNL     1     108.650  40.885  99.361  1.00  0.00     0.278 C 
HETATM   29  O5  UNL     1     107.597  40.992 100.031  1.00  0.00    -0.265 OA
ATOM     30  H3  UNL     1     109.922  41.936  98.005  1.00  0.00     0.162 HD
BRANCH  28  31
HETATM   31  C19 UNL     1     109.453  39.675  99.374  1.00  0.00     0.180 A 
HETATM   32  O6  UNL     1     110.250  39.283  98.420  1.00  0.00    -0.285 OA
HETATM   33  C20 UNL     1     110.848  38.164  98.690  1.00  0.00     0.185 A 
HETATM   34  N4  UNL     1     111.777  37.456  97.881  1.00  0.00    -0.072 NA
HETATM   35  C21 UNL     1     110.418  37.776  99.924  1.00  0.00     0.130 A 
HETATM   36  N5  UNL     1     110.804  36.604 100.631  1.00  0.00    -0.095 NA
HETATM   37  C22 UNL     1     109.515  38.740 100.384  1.00  0.00     0.133 A 
BRANCH  37  38
HETATM   38  O7  UNL     1     108.862  38.704 101.594  1.00  0.00    -0.356 OA
ATOM     39  H7  UNL     1     109.025  38.163 102.358  1.00  0.00     0.218 HD
ENDBRANCH  37  38
ENDBRANCH  28  31
ENDBRANCH  26  27
ENDBRANCH  25  26
ENDBRANCH  24  25
ENDBRANCH  21  24
ENDBRANCH  20  21
ENDBRANCH  19  20
ENDBRANCH  18  19
ENDBRANCH  12  18
BRANCH  14  40
HETATM   40  O8  UNL     1     106.852  45.304  91.799  1.00  0.00    -0.360 OA
ATOM     41  H8  UNL     1     106.730  45.271  90.857  1.00  0.00     0.217 HD
ENDBRANCH  14  40
BRANCH  14  42
HETATM   42  C25 UNL     1     107.813  47.262  92.733  1.00  0.00     0.230 C 
BRANCH  42  43
HETATM   43  O9  UNL     1     107.102  47.236  93.960  1.00  0.00    -0.394 OA
ATOM     44  H9  UNL     1     106.676  48.065  94.142  1.00  0.00     0.209 HD
ENDBRANCH  42  43
ENDBRANCH  14  42
BRANCH  17  45
HETATM   45  O10 UNL     1     109.839  41.998  90.359  1.00  0.00    -0.358 OA
ATOM     46  H10 UNL     1     109.363  42.023  89.537  1.00  0.00     0.217 HD
ENDBRANCH  17  45
BRANCH   3  47
HETATM   47  O3  UNL     1     114.254  40.834  90.137  1.00  0.00    -0.360 OA
ATOM     48  H3  UNL     1     114.401  40.781  89.200  1.00  0.00     0.217 HD
ENDBRANCH   3  47
BRANCH   1  49
HETATM   49  C2  UNL     1     118.020  43.279  91.907  1.00  0.00     0.293 C 
HETATM   50  O2  UNL     1     118.657  42.311  92.443  1.00  0.00    -0.259 OA
BRANCH  49  51
HETATM   51  O1  UNL     1     118.759  44.394  91.557  1.00  0.00    -0.323 OA
HETATM   52  C1  UNL     1     118.864  44.767  90.180  1.00  0.00     0.213 C 
ENDBRANCH  49  51
ENDBRANCH   1  49
TORSDOF 17
ENDMDL
MODEL 2
REMARK VINA RESULT: -9.475915220      1.405      1.688
REMARK  17 active torsions:
REMARK  status: ('A' for Active; 'I' for Inactive)
REMARK    1  A    between atoms: O1_2  and  C2_3 
REMARK    2  A    between atoms: C2_3  and  C3_5 
REMARK    3  A    between atoms: C5_7  and  O3_8 
REMARK    4  A    between atoms: N1_18  and  C12_19 
REMARK    5  A    between atoms: C12_19  and  C13_20 
REMARK    6  A    between atoms: C13_20  and  C14_21 
REMARK    7  A    between atoms: C14_21  and  N2_22 
REMARK    8  A    between atoms: N2_22  and  C15_25 
REMARK    9  A    between atoms: C15_25  and  C16_26 
REMARK   10  A    between atoms: C16_26  and  C17_27 
REMARK   11  A    between atoms: C17_27  and  N3_28 
REMARK       I    between atoms: N3_28  and  C18_30 
REMARK   12  A    between atoms: C18_30  and  C19_32 
REMARK   13  A    between atoms: C22_38  and  O7_39 
REMARK   14  A    between atoms: C24_42  and  O8_43 
REMARK   15  A    between atoms: C24_42  and  C25_45 
REMARK   16  A    between atoms: C25_45  and  O9_46 
REMARK   17  A    between atoms: C27_50  and  O10_51 
ROOT
HETATM    1  C3  UNL     1     117.026  42.955  91.690  1.00  0.00     0.043 A 
HETATM    2  C4  UNL     1     116.519  41.773  91.198  1.00  0.00     0.055 A 
HETATM    3  C5  UNL     1     115.177  41.565  90.993  1.00  0.00     0.082 A 
HETATM    4  C6  UNL     1     114.258  42.571  91.284  1.00  0.00     0.065 A 
HETATM    5  C7  UNL     1     112.937  42.314  91.059  1.00  0.00     0.202 A 
HETATM    6  O4  UNL     1     112.638  41.157  90.596  1.00  0.00    -0.286 OA
HETATM    7  C8  UNL     1     111.878  43.169  91.276  1.00  0.00     0.084 A 
HETATM    8  C9  UNL     1     111.966  44.437  91.760  1.00  0.00     0.094 A 
HETATM    9  S1  UNL     1     113.572  44.936  92.103  1.00  0.00    -0.070 SA
HETATM   10  C10 UNL     1     114.750  43.750  91.773  1.00  0.00     0.025 A 
HETATM   11  C11 UNL     1     116.106  43.936  91.971  1.00  0.00     0.037 A 
HETATM   12  N1  UNL     1     110.821  45.319  91.975  1.00  0.00    -0.337 N 
HETATM   13  C23 UNL     1     109.542  44.853  91.665  1.00  0.00     0.094 A 
HETATM   14  C24 UNL     1     108.463  45.567  91.660  1.00  0.00     0.095 C 
HETATM   15  C26 UNL     1     109.445  43.450  91.134  1.00  0.00     0.110 A 
HETATM   16  N6  UNL     1     108.151  42.919  90.811  1.00  0.00    -0.097 NA
HETATM   17  C27 UNL     1     110.516  42.707  90.966  1.00  0.00     0.109 A 
ENDROOT
BRANCH  12  18
HETATM   18  C12 UNL     1     111.195  46.521  92.664  1.00  0.00     0.132 C 
BRANCH  18  19
HETATM   19  C13 UNL     1     111.264  46.460  94.140  1.00  0.00     0.048 C 
BRANCH  19  20
HETATM   20  C14 UNL     1     110.026  46.248  94.923  1.00  0.00     0.234 C 
BRANCH  20  21
HETATM   21  N2  UNL     1     109.126  47.404  94.855  1.00  0.00    -0.075 N 
ATOM     22  H22 UNL     1     109.589  48.292  95.047  1.00  0.00     0.277 HD
ATOM     23  H21 UNL     1     108.821  47.626  93.907  1.00  0.00     0.277 HD
BRANCH  21  24
HETATM   24  C15 UNL     1     108.035  47.114  95.758  1.00  0.00     0.234 C 
BRANCH  24  25
HETATM   25  C16 UNL     1     108.428  46.412  97.012  1.00  0.00     0.047 C 
BRANCH  25  26
HETATM   26  C17 UNL     1     107.575  45.225  97.369  1.00  0.00     0.124 C 
BRANCH  26  27
HETATM   27  N3  UNL     1     108.399  44.101  97.726  1.00  0.00    -0.355 N 
HETATM   28  C18 UNL     1     107.816  42.852  98.148  1.00  0.00     0.278 C 
HETATM   29  O5  UNL     1     106.567  42.766  98.200  1.00  0.00    -0.265 OA
ATOM     30  H3  UNL     1     109.415  44.189  97.679  1.00  0.00     0.162 HD
BRANCH  28  31
HETATM   31  C19 UNL     1     108.681  41.739  98.495  1.00  0.00     0.180 A 
HETATM   32  O6  UNL     1     109.853  41.836  99.058  1.00  0.00    -0.285 OA
HETATM   33  C20 UNL     1     110.413  40.683  99.258  1.00  0.00     0.185 A 
HETATM   34  N4  UNL     1     111.680  40.421  99.846  1.00  0.00    -0.072 NA
HETATM   35  C21 UNL     1     109.547  39.738  98.794  1.00  0.00     0.130 A 
HETATM   36  N5  UNL     1     109.738  38.330  98.802  1.00  0.00    -0.095 NA
HETATM   37  C22 UNL     1     108.420  40.401  98.297  1.00  0.00     0.133 A 
BRANCH  37  38
HETATM   38  O7  UNL     1     107.320  39.790  97.740  1.00  0.00    -0.356 OA
ATOM     39  H7  UNL     1     106.763  39.104  98.089  1.00  0.00     0.218 HD
ENDBRANCH  37  38
ENDBRANCH  28  31
ENDBRANCH  26  27
ENDBRANCH  25  26
ENDBRANCH  24  25
ENDBRANCH  21  24
ENDBRANCH  20  21
ENDBRANCH  19  20
ENDBRANCH  18  19
ENDBRANCH  12  18
BRANCH  14  40
HETATM   40  O8  UNL     1     107.233  44.842  91.305  1.00  0.00    -0.360 OA
ATOM     41  H8  UNL     1     106.803  45.139  90.511  1.00  0.00     0.217 HD
ENDBRANCH  14  40
BRANCH  14  42
HETATM   42  C25 UNL     1     108.134  46.950  91.917  1.00  0.00     0.230 C 
BRANCH  42  43
HETATM   43  O9  UNL     1     106.850  47.091  92.505  1.00  0.00    -0.394 OA
ATOM     44  H9  UNL     1     106.508  47.971  92.406  1.00  0.00     0.209 HD
ENDBRANCH  42  43
ENDBRANCH  14  42
BRANCH  17  45
HETATM   45  O10 UNL     1     110.318  41.420  90.467  1.00  0.00    -0.358 OA
ATOM     46  H10 UNL     1     109.451  41.032  90.493  1.00  0.00     0.217 HD
ENDBRANCH  17  45
BRANCH   3  47
HETATM   47  O3  UNL     1     114.762  40.347  90.497  1.00  0.00    -0.360 OA
ATOM     48  H3  UNL     1     113.993  39.937  90.875  1.00  0.00     0.217 HD
ENDBRANCH   3  47
BRANCH   1  49
HETATM   49  C2  UNL     1     118.441  43.143  91.891  1.00  0.00     0.293 C 
HETATM   50  O2  UNL     1     119.099  42.266  92.545  1.00  0.00    -0.259 OA
BRANCH  49  51
HETATM   51  O1  UNL     1     119.150  44.229  91.414  1.00  0.00    -0.323 OA
HETATM   52  C1  UNL     1     119.218  44.466  90.005  1.00  0.00     0.213 C 
ENDBRANCH  49  51
ENDBRANCH   1  49
TORSDOF 17
ENDMDL
MODEL 3
REMARK VINA RESULT: -9.287859776      1.612      2.062
REMARK  17 active torsions:
REMARK  status: ('A' for Active; 'I' for Inactive)
REMARK    1  A    between atoms: O1_2  and  C2_3 
REMARK    2  A    between atoms: C2_3  and  C3_5 
REMARK    3  A    between atoms: C5_7  and  O3_8 
REMARK    4  A    between atoms: N1_18  and  C12_19 
REMARK    5  A    between atoms: C12_19  and  C13_20 
REMARK    6  A    between atoms: C13_20  and  C14_21 
REMARK    7  A    between atoms: C14_21  and  N2_22 
REMARK    8  A    between atoms: N2_22  and  C15_25 
REMARK    9  A    between atoms: C15_25  and  C16_26 
REMARK   10  A    between atoms: C16_26  and  C17_27 
REMARK   11  A    between atoms: C17_27  and  N3_28 
REMARK       I    between atoms: N3_28  and  C18_30 
REMARK   12  A    between atoms: C18_30  and  C19_32 
REMARK   13  A    between atoms: C22_38  and  O7_39 
REMARK   14  A    between atoms: C24_42  and  O8_43 
REMARK   15  A    between atoms: C24_42  and  C25_45 
REMARK   16  A    between atoms: C25_45  and  O9_46 
REMARK   17  A    between atoms: C27_50  and  O10_51 
ROOT
HETATM    1  C3  UNL     1     117.075  42.146  91.941  1.00  0.00     0.043 A 
HETATM    2  C4  UNL     1     116.442  41.030  91.438  1.00  0.00     0.055 A 
HETATM    3  C5  UNL     1     115.097  40.997  91.163  1.00  0.00     0.082 A 
HETATM    4  C6  UNL     1     114.305  42.121  91.390  1.00  0.00     0.065 A 
HETATM    5  C7  UNL     1     112.975  42.035  91.097  1.00  0.00     0.202 A 
HETATM    6  O4  UNL     1     112.551  40.917  90.635  1.00  0.00    -0.286 OA
HETATM    7  C8  UNL     1     112.028  43.026  91.245  1.00  0.00     0.084 A 
HETATM    8  C9  UNL     1     112.258  44.281  91.716  1.00  0.00     0.094 A 
HETATM    9  S1  UNL     1     113.895  44.572  92.139  1.00  0.00    -0.070 SA
HETATM   10  C10 UNL     1     114.922  43.235  91.889  1.00  0.00     0.025 A 
HETATM   11  C11 UNL     1     116.279  43.245  92.158  1.00  0.00     0.037 A 
HETATM   12  N1  UNL     1     111.230  45.310  91.856  1.00  0.00    -0.337 N 
HETATM   13  C23 UNL     1     109.919  45.009  91.482  1.00  0.00     0.094 A 
HETATM   14  C24 UNL     1     108.946  45.858  91.409  1.00  0.00     0.095 C 
HETATM   15  C26 UNL     1     109.665  43.620  90.967  1.00  0.00     0.110 A 
HETATM   16  N6  UNL     1     108.331  43.257  90.581  1.00  0.00    -0.097 NA
HETATM   17  C27 UNL     1     110.635  42.740  90.867  1.00  0.00     0.109 A 
ENDROOT
BRANCH  12  18
HETATM   18  C12 UNL     1     111.723  46.466  92.547  1.00  0.00     0.132 C 
BRANCH  18  19
HETATM   19  C13 UNL     1     111.793  46.392  94.023  1.00  0.00     0.048 C 
BRANCH  19  20
HETATM   20  C14 UNL     1     110.544  46.295  94.811  1.00  0.00     0.234 C 
BRANCH  20  21
HETATM   21  N2  UNL     1     110.110  44.905  94.987  1.00  0.00    -0.075 N 
ATOM     22  H22 UNL     1     110.433  44.281  94.246  1.00  0.00     0.277 HD
ATOM     23  H21 UNL     1     110.574  44.428  95.760  1.00  0.00     0.277 HD
BRANCH  21  24
HETATM   24  C15 UNL     1     108.671  44.949  95.117  1.00  0.00     0.234 C 
BRANCH  24  25
HETATM   25  C16 UNL     1     108.162  45.914  96.131  1.00  0.00     0.047 C 
BRANCH  25  26
HETATM   26  C17 UNL     1     107.637  45.289  97.396  1.00  0.00     0.124 C 
BRANCH  26  27
HETATM   27  N3  UNL     1     108.430  44.144  97.759  1.00  0.00    -0.355 N 
HETATM   28  C18 UNL     1     107.812  42.907  98.164  1.00  0.00     0.278 C 
HETATM   29  O5  UNL     1     106.561  42.849  98.196  1.00  0.00    -0.265 OA
ATOM     30  H3  UNL     1     109.448  44.210  97.730  1.00  0.00     0.162 HD
BRANCH  28  31
HETATM   31  C19 UNL     1     108.646  41.772  98.520  1.00  0.00     0.180 A 
HETATM   32  O6  UNL     1     109.841  41.842  99.036  1.00  0.00    -0.285 OA
HETATM   33  C20 UNL     1     110.364  40.675  99.257  1.00  0.00     0.185 A 
HETATM   34  N4  UNL     1     111.641  40.383  99.807  1.00  0.00    -0.072 NA
HETATM   35  C21 UNL     1     109.445  39.751  98.858  1.00  0.00     0.130 A 
HETATM   36  N5  UNL     1     109.582  38.337  98.909  1.00  0.00    -0.095 NA
HETATM   37  C22 UNL     1     108.327  40.440  98.378  1.00  0.00     0.133 A 
BRANCH  37  38
HETATM   38  O7  UNL     1     107.184  39.855  97.884  1.00  0.00    -0.356 OA
ATOM     39  H7  UNL     1     106.965  38.936  97.784  1.00  0.00     0.218 HD
ENDBRANCH  37  38
ENDBRANCH  28  31
ENDBRANCH  26  27
ENDBRANCH  25  26
ENDBRANCH  24  25
ENDBRANCH  21  24
ENDBRANCH  20  21
ENDBRANCH  19  20
ENDBRANCH  18  19
ENDBRANCH  12  18
BRANCH  14  40
HETATM   40  O8  UNL     1     107.651  45.294  90.998  1.00  0.00    -0.360 OA
ATOM     41  H8  UNL     1     107.006  45.212  91.691  1.00  0.00     0.217 HD
ENDBRANCH  14  40
BRANCH  14  42
HETATM   42  C25 UNL     1     108.789  47.278  91.629  1.00  0.00     0.230 C 
BRANCH  42  43
HETATM   43  O9  UNL     1     108.164  47.558  92.872  1.00  0.00    -0.394 OA
ATOM     44  H9  UNL     1     108.255  48.470  93.118  1.00  0.00     0.209 HD
ENDBRANCH  42  43
ENDBRANCH  14  42
BRANCH  17  45
HETATM   45  O10 UNL     1     110.296  41.480  90.376  1.00  0.00    -0.358 OA
ATOM     46  H10 UNL     1     110.962  40.934  89.976  1.00  0.00     0.217 HD
ENDBRANCH  17  45
BRANCH   3  47
HETATM   47  O3  UNL     1     114.551  39.833  90.663  1.00  0.00    -0.360 OA
ATOM     48  H3  UNL     1     114.052  39.873  89.855  1.00  0.00     0.217 HD
ENDBRANCH   3  47
BRANCH   1  49
HETATM   49  C2  UNL     1     118.490  42.150  92.216  1.00  0.00     0.293 C 
HETATM   50  O2  UNL     1     119.190  43.154  91.855  1.00  0.00    -0.259 OA
BRANCH  49  51
HETATM   51  O1  UNL     1     119.155  41.121  92.856  1.00  0.00    -0.323 OA
HETATM   52  C1  UNL     1     118.752  40.730  94.171  1.00  0.00     0.213 C 
ENDBRANCH  49  51
ENDBRANCH   1  49
TORSDOF 17
ENDMDL
MODEL 4
REMARK VINA RESULT: -9.206911848      0.640      1.043
REMARK  17 active torsions:
REMARK  status: ('A' for Active; 'I' for Inactive)
REMARK    1  A    between atoms: O1_2  and  C2_3 
REMARK    2  A    between atoms: C2_3  and  C3_5 
REMARK    3  A    between atoms: C5_7  and  O3_8 
REMARK    4  A    between atoms: N1_18  and  C12_19 
REMARK    5  A    between atoms: C12_19  and  C13_20 
REMARK    6  A    between atoms: C13_20  and  C14_21 
REMARK    7  A    between atoms: C14_21  and  N2_22 
REMARK    8  A    between atoms: N2_22  and  C15_25 
REMARK    9  A    between atoms: C15_25  and  C16_26 
REMARK   10  A    between atoms: C16_26  and  C17_27 
REMARK   11  A    between atoms: C17_27  and  N3_28 
REMARK       I    between atoms: N3_28  and  C18_30 
REMARK   12  A    between atoms: C18_30  and  C19_32 
REMARK   13  A    between atoms: C22_38  and  O7_39 
REMARK   14  A    between atoms: C24_42  and  O8_43 
REMARK   15  A    between atoms: C24_42  and  C25_45 
REMARK   16  A    between atoms: C25_45  and  O9_46 
REMARK   17  A    between atoms: C27_50  and  O10_51 
ROOT
HETATM    1  C3  UNL     1     116.372  42.714  91.852  1.00  0.00     0.043 A 
HETATM    2  C4  UNL     1     115.757  41.682  91.180  1.00  0.00     0.055 A 
HETATM    3  C5  UNL     1     114.404  41.647  90.944  1.00  0.00     0.082 A 
HETATM    4  C6  UNL     1     113.586  42.684  91.390  1.00  0.00     0.065 A 
HETATM    5  C7  UNL     1     112.249  42.601  91.127  1.00  0.00     0.202 A 
HETATM    6  O4  UNL     1     111.843  41.567  90.488  1.00  0.00    -0.286 OA
HETATM    7  C8  UNL     1     111.278  43.515  91.476  1.00  0.00     0.084 A 
HETATM    8  C9  UNL     1     111.486  44.676  92.154  1.00  0.00     0.094 A 
HETATM    9  S1  UNL     1     113.128  44.949  92.572  1.00  0.00    -0.070 SA
HETATM   10  C10 UNL     1     114.186  43.715  92.059  1.00  0.00     0.025 A 
HETATM   11  C11 UNL     1     115.551  43.728  92.284  1.00  0.00     0.037 A 
HETATM   12  N1  UNL     1     110.432  45.625  92.505  1.00  0.00    -0.337 N 
HETATM   13  C23 UNL     1     109.119  45.347  92.125  1.00  0.00     0.094 A 
HETATM   14  C24 UNL     1     108.117  46.158  92.232  1.00  0.00     0.095 C 
HETATM   15  C26 UNL     1     108.889  44.061  91.380  1.00  0.00     0.110 A 
HETATM   16  N6  UNL     1     107.554  43.722  90.977  1.00  0.00    -0.097 NA
HETATM   17  C27 UNL     1     109.882  43.248  91.097  1.00  0.00     0.109 A 
ENDROOT
BRANCH  12  18
HETATM   18  C12 UNL     1     110.914  46.660  93.374  1.00  0.00     0.132 C 
BRANCH  18  19
HETATM   19  C13 UNL     1     110.842  46.407  94.830  1.00  0.00     0.048 C 
BRANCH  19  20
HETATM   20  C14 UNL     1     109.755  45.563  95.374  1.00  0.00     0.234 C 
BRANCH  20  21
HETATM   21  N2  UNL     1     109.503  45.836  96.793  1.00  0.00    -0.075 N 
ATOM     22  H22 UNL     1     110.204  46.440  97.221  1.00  0.00     0.277 HD
ATOM     23  H21 UNL     1     108.700  46.444  96.954  1.00  0.00     0.277 HD
BRANCH  21  24
HETATM   24  C15 UNL     1     109.385  44.545  97.433  1.00  0.00     0.234 C 
BRANCH  24  25
HETATM   25  C16 UNL     1     108.056  43.890  97.286  1.00  0.00     0.047 C 
BRANCH  25  26
HETATM   26  C17 UNL     1     107.673  42.967  98.412  1.00  0.00     0.124 C 
BRANCH  26  27
HETATM   27  N3  UNL     1     108.527  41.809  98.426  1.00  0.00    -0.355 N 
HETATM   28  C18 UNL     1     108.409  40.808  99.457  1.00  0.00     0.278 C 
HETATM   29  O5  UNL     1     107.544  40.971 100.348  1.00  0.00    -0.265 OA
ATOM     30  H3  UNL     1     109.228  41.694  97.694  1.00  0.00     0.162 HD
BRANCH  28  31
HETATM   31  C19 UNL     1     109.286  39.651  99.436  1.00  0.00     0.180 A 
HETATM   32  O6  UNL     1     110.069  39.312  98.450  1.00  0.00    -0.285 OA
HETATM   33  C20 UNL     1     110.746  38.231  98.694  1.00  0.00     0.185 A 
HETATM   34  N4  UNL     1     111.686  37.584  97.847  1.00  0.00    -0.072 NA
HETATM   35  C21 UNL     1     110.389  37.816  99.942  1.00  0.00     0.130 A 
HETATM   36  N5  UNL     1     110.874  36.670 100.629  1.00  0.00    -0.095 NA
HETATM   37  C22 UNL     1     109.446  38.721 100.439  1.00  0.00     0.133 A 
BRANCH  37  38
HETATM   38  O7  UNL     1     108.843  38.643 101.673  1.00  0.00    -0.356 OA
ATOM     39  H7  UNL     1     108.788  37.913 102.278  1.00  0.00     0.218 HD
ENDBRANCH  37  38
ENDBRANCH  28  31
ENDBRANCH  26  27
ENDBRANCH  25  26
ENDBRANCH  24  25
ENDBRANCH  21  24
ENDBRANCH  20  21
ENDBRANCH  19  20
ENDBRANCH  18  19
ENDBRANCH  12  18
BRANCH  14  40
HETATM   40  O8  UNL     1     106.826  45.627  91.768  1.00  0.00    -0.360 OA
ATOM     41  H8  UNL     1     106.082  45.831  92.322  1.00  0.00     0.217 HD
ENDBRANCH  14  40
BRANCH  14  42
HETATM   42  C25 UNL     1     107.925  47.511  92.705  1.00  0.00     0.230 C 
BRANCH  42  43
HETATM   43  O9  UNL     1     106.578  47.758  93.076  1.00  0.00    -0.394 OA
ATOM     44  H9  UNL     1     106.516  48.229  93.898  1.00  0.00     0.209 HD
ENDBRANCH  42  43
ENDBRANCH  14  42
BRANCH  17  45
HETATM   45  O10 UNL     1     109.564  42.083  90.402  1.00  0.00    -0.358 OA
ATOM     46  H10 UNL     1     108.749  41.631  90.587  1.00  0.00     0.217 HD
ENDBRANCH  17  45
BRANCH   3  47
HETATM   47  O3  UNL     1     113.876  40.570  90.263  1.00  0.00    -0.360 OA
ATOM     48  H3  UNL     1     113.472  39.869  90.759  1.00  0.00     0.217 HD
ENDBRANCH   3  47
BRANCH   1  49
HETATM   49  C2  UNL     1     117.795  42.723  92.079  1.00  0.00     0.293 C 
HETATM   50  O2  UNL     1     118.465  43.771  91.791  1.00  0.00    -0.259 OA
BRANCH  49  51
HETATM   51  O1  UNL     1     118.500  41.654  92.598  1.00  0.00    -0.323 OA
HETATM   52  C1  UNL     1     118.225  41.205  93.928  1.00  0.00     0.213 C 
ENDBRANCH  49  51
ENDBRANCH   1  49
TORSDOF 17
ENDMDL
MODEL 5
REMARK VINA RESULT: -9.131515832      0.709      1.251
REMARK  17 active torsions:
REMARK  status: ('A' for Active; 'I' for Inactive)
REMARK    1  A    between atoms: O1_2  and  C2_3 
REMARK    2  A    between atoms: C2_3  and  C3_5 
REMARK    3  A    between atoms: C5_7  and  O3_8 
REMARK    4  A    between atoms: N1_18  and  C12_19 
REMARK    5  A    between atoms: C12_19  and  C13_20 
REMARK    6  A    between atoms: C13_20  and  C14_21 
REMARK    7  A    between atoms: C14_21  and  N2_22 
REMARK    8  A    between atoms: N2_22  and  C15_25 
REMARK    9  A    between atoms: C15_25  and  C16_26 
REMARK   10  A    between atoms: C16_26  and  C17_27 
REMARK   11  A    between atoms: C17_27  and  N3_28 
REMARK       I    between atoms: N3_28  and  C18_30 
REMARK   12  A    between atoms: C18_30  and  C19_32 
REMARK   13  A    between atoms: C22_38  and  O7_39 
REMARK   14  A    between atoms: C24_42  and  O8_43 
REMARK   15  A    between atoms: C24_42  and  C25_45 
REMARK   16  A    between atoms: C25_45  and  O9_46 
REMARK   17  A    between atoms: C27_50  and  O10_51 
ROOT
HETATM    1  C3  UNL     1     116.504  42.696  91.874  1.00  0.00     0.043 A 
HETATM    2  C4  UNL     1     115.893  41.629  91.254  1.00  0.00     0.055 A 
HETATM    3  C5  UNL     1     114.539  41.574  91.025  1.00  0.00     0.082 A 
HETATM    4  C6  UNL     1     113.717  42.625  91.424  1.00  0.00     0.065 A 
HETATM    5  C7  UNL     1     112.379  42.522  91.172  1.00  0.00     0.202 A 
HETATM    6  O4  UNL     1     111.978  41.456  90.584  1.00  0.00    -0.286 OA
HETATM    7  C8  UNL     1     111.404  43.445  91.481  1.00  0.00     0.084 A 
HETATM    8  C9  UNL     1     111.606  44.638  92.102  1.00  0.00     0.094 A 
HETATM    9  S1  UNL     1     113.248  44.941  92.499  1.00  0.00    -0.070 SA
HETATM   10  C10 UNL     1     114.312  43.691  92.041  1.00  0.00     0.025 A 
HETATM   11  C11 UNL     1     115.678  43.724  92.260  1.00  0.00     0.037 A 
HETATM   12  N1  UNL     1     110.547  45.596  92.411  1.00  0.00    -0.337 N 
HETATM   13  C23 UNL     1     109.234  45.291  92.050  1.00  0.00     0.094 A 
HETATM   14  C24 UNL     1     108.228  46.100  92.123  1.00  0.00     0.095 C 
HETATM   15  C26 UNL     1     109.010  43.971  91.368  1.00  0.00     0.110 A 
HETATM   16  N6  UNL     1     107.676  43.604  90.986  1.00  0.00    -0.097 NA
HETATM   17  C27 UNL     1     110.008  43.151  91.120  1.00  0.00     0.109 A 
ENDROOT
BRANCH  12  18
HETATM   18  C12 UNL     1     111.026  46.674  93.228  1.00  0.00     0.132 C 
BRANCH  18  19
HETATM   19  C13 UNL     1     110.962  46.490  94.694  1.00  0.00     0.048 C 
BRANCH  19  20
HETATM   20  C14 UNL     1     109.814  45.771  95.293  1.00  0.00     0.234 C 
BRANCH  20  21
HETATM   21  N2  UNL     1     108.782  46.692  95.781  1.00  0.00    -0.075 N 
ATOM     22  H22 UNL     1     109.090  47.664  95.823  1.00  0.00     0.277 HD
ATOM     23  H21 UNL     1     108.017  46.833  95.121  1.00  0.00     0.277 HD
BRANCH  21  24
HETATM   24  C15 UNL     1     108.351  46.169  97.058  1.00  0.00     0.234 C 
BRANCH  24  25
HETATM   25  C16 UNL     1     109.000  44.891  97.464  1.00  0.00     0.047 C 
BRANCH  25  26
HETATM   26  C17 UNL     1     108.082  43.889  98.110  1.00  0.00     0.124 C 
BRANCH  26  27
HETATM   27  N3  UNL     1     108.706  42.594  98.165  1.00  0.00    -0.355 N 
HETATM   28  C18 UNL     1     108.618  41.772  99.347  1.00  0.00     0.278 C 
HETATM   29  O5  UNL     1     107.983  42.214 100.332  1.00  0.00    -0.265 OA
ATOM     30  H3  UNL     1     109.221  42.251  97.354  1.00  0.00     0.162 HD
BRANCH  28  31
HETATM   31  C19 UNL     1     109.258  40.469  99.362  1.00  0.00     0.180 A 
HETATM   32  O6  UNL     1     108.860  39.437 100.052  1.00  0.00    -0.285 OA
HETATM   33  C20 UNL     1     109.616  38.395  99.881  1.00  0.00     0.185 A 
HETATM   34  N4  UNL     1     109.474  37.111 100.473  1.00  0.00    -0.072 NA
HETATM   35  C21 UNL     1     110.597  38.759  99.008  1.00  0.00     0.130 A 
HETATM   36  N5  UNL     1     111.656  37.942  98.528  1.00  0.00    -0.095 NA
HETATM   37  C22 UNL     1     110.383  40.097  98.660  1.00  0.00     0.133 A 
BRANCH  37  38
HETATM   38  O7  UNL     1     111.166  40.828  97.796  1.00  0.00    -0.356 OA
ATOM     39  H7  UNL     1     111.025  41.044  96.881  1.00  0.00     0.218 HD
ENDBRANCH  37  38
ENDBRANCH  28  31
ENDBRANCH  26  27
ENDBRANCH  25  26
ENDBRANCH  24  25
ENDBRANCH  21  24
ENDBRANCH  20  21
ENDBRANCH  19  20
ENDBRANCH  18  19
ENDBRANCH  12  18
BRANCH  14  40
HETATM   40  O8  UNL     1     106.939  45.540  91.689  1.00  0.00    -0.360 OA
ATOM     41  H8  UNL     1     106.183  45.829  92.187  1.00  0.00     0.217 HD
ENDBRANCH  14  40
BRANCH  14  42
HETATM   42  C25 UNL     1     108.028  47.472  92.531  1.00  0.00     0.230 C 
BRANCH  42  43
HETATM   43  O9  UNL     1     107.040  47.588  93.542  1.00  0.00    -0.394 OA
ATOM     44  H9  UNL     1     106.588  48.422  93.505  1.00  0.00     0.209 HD
ENDBRANCH  42  43
ENDBRANCH  14  42
BRANCH  17  45
HETATM   45  O10 UNL     1     109.695  41.952  90.482  1.00  0.00    -0.358 OA
ATOM     46  H10 UNL     1     108.786  41.729  90.316  1.00  0.00     0.217 HD
ENDBRANCH  17  45
BRANCH   3  47
HETATM   47  O3  UNL     1     114.016  40.463  90.398  1.00  0.00    -0.360 OA
ATOM     48  H3  UNL     1     113.784  40.524  89.479  1.00  0.00     0.217 HD
ENDBRANCH   3  47
BRANCH   1  49
HETATM   49  C2  UNL     1     117.928  42.725  92.095  1.00  0.00     0.293 C 
HETATM   50  O2  UNL     1     118.467  41.808  92.800  1.00  0.00    -0.259 OA
BRANCH  49  51
HETATM   51  O1  UNL     1     118.768  43.698  91.587  1.00  0.00    -0.323 OA
HETATM   52  C1  UNL     1     118.608  44.134  90.234  1.00  0.00     0.213 C 
ENDBRANCH  49  51
ENDBRANCH   1  49
TORSDOF 17
ENDMDL
