MODEL 1
REMARK VINA RESULT: -9.377197330      0.000      0.000
REMARK  16 active torsions:
REMARK  status: ('A' for Active; 'I' for Inactive)
REMARK    1  A    between atoms: O1_2  and  C2_3 
REMARK    2  A    between atoms: C3_4  and  O2_5 
REMARK    3  A    between atoms: C5_8  and  C6_9 
REMARK    4  A    between atoms: C6_9  and  N7_27 
REMARK    5  A    between atoms: N1_10  and  N2_12 
REMARK    6  A    between atoms: C7_14  and  C9_16 
REMARK    7  A    between atoms: N7_27  and  C12_29 
REMARK    8  A    between atoms: C12_29  and  C13_30 
REMARK    9  A    between atoms: C13_30  and  C14_31 
REMARK   10  A    between atoms: C14_31  and  N8_32 
REMARK   11  A    between atoms: N8_32  and  C15_34 
REMARK   12  A    between atoms: C15_34  and  C16_35 
REMARK   13  A    between atoms: C16_35  and  N9_36 
REMARK   14  A    between atoms: N9_36  and  C17_38 
REMARK   15  A    between atoms: C22_46  and  O4_47 
REMARK   16  A    between atoms: C27_56  and  N11_57 
ROOT
HETATM    1  C6  UNL     1     114.629  42.068  90.714  1.00  0.00     0.126 C 
HETATM    2  N1  UNL     1     115.577  42.858  90.820  1.00  0.00    -0.285 N 
ATOM      3  H1  UNL     1     116.190  42.782  90.008  1.00  0.00     0.188 HD
ENDROOT
BRANCH   1   4
HETATM    4  C5  UNL     1     114.594  41.218  89.477  1.00  0.00     0.014 A 
HETATM    5  C4  UNL     1     113.819  41.546  88.394  1.00  0.00     0.054 A 
HETATM    6  C3  UNL     1     113.810  40.743  87.264  1.00  0.00     0.102 A 
HETATM    7  C2  UNL     1     114.589  39.600  87.223  1.00  0.00     0.134 A 
HETATM    8  C27 UNL     1     115.385  39.233  88.293  1.00  0.00     0.139 A 
HETATM    9  C26 UNL     1     115.358  40.065  89.394  1.00  0.00     0.054 A 
BRANCH   6  10
HETATM   10  O2  UNL     1     113.043  41.038  86.149  1.00  0.00    -0.358 OA
ATOM     11  H2  UNL     1     112.236  41.522  86.284  1.00  0.00     0.217 HD
ENDBRANCH   6  10
BRANCH   7  12
HETATM   12  O1  UNL     1     114.584  38.787  86.085  1.00  0.00    -0.351 OA
HETATM   13  C1  UNL     1     115.396  39.055  84.976  1.00  0.00     0.210 C 
ENDBRANCH   7  12
BRANCH   8  14
HETATM   14  N11 UNL     1     116.176  38.065  88.224  1.00  0.00    -0.113 N 
HETATM   15  O8  UNL     1     115.799  36.976  88.685  1.00  0.00    -0.532 OA
HETATM   16  O9  UNL     1     117.404  38.134  87.627  1.00  0.00    -0.532 OA
ENDBRANCH   8  14
ENDBRANCH   1   4
BRANCH   1  17
HETATM   17  N7  UNL     1     113.587  41.900  91.651  1.00  0.00    -0.374 N 
ATOM     18  H7  UNL     1     113.755  41.250  92.418  1.00  0.00     0.161 HD
BRANCH  17  19
HETATM   19  C12 UNL     1     112.311  42.562  91.623  1.00  0.00     0.123 C 
BRANCH  19  20
HETATM   20  C13 UNL     1     111.153  41.863  91.073  1.00  0.00     0.039 C 
BRANCH  20  21
HETATM   21  C14 UNL     1     110.282  42.478  90.053  1.00  0.00     0.120 C 
BRANCH  21  22
HETATM   22  N8  UNL     1     108.879  42.510  90.260  1.00  0.00    -0.401 N 
ATOM     23  H8  UNL     1     108.365  41.640  90.392  1.00  0.00     0.158 HD
BRANCH  22  24
HETATM   24  C15 UNL     1     108.199  43.735  90.282  1.00  0.00     0.075 C 
BRANCH  24  25
HETATM   25  C16 UNL     1     108.779  44.908  89.569  1.00  0.00     0.165 C 
BRANCH  25  26
HETATM   26  N9  UNL     1     109.358  45.918  90.373  1.00  0.00    -0.369 N 
ATOM     27  H9  UNL     1     109.685  46.748  89.878  1.00  0.00     0.161 HD
BRANCH  26  28
HETATM   28  C17 UNL     1     109.541  45.926  91.760  1.00  0.00     0.138 A 
HETATM   29  N10 UNL     1     110.550  45.503  92.526  1.00  0.00    -0.244 N 
HETATM   30  O3  UNL     1     110.333  45.687  93.786  1.00  0.00    -0.235 OA
ATOM     31  H10 UNL     1     111.401  45.079  92.156  1.00  0.00     0.196 HD
HETATM   32  C18 UNL     1     109.172  46.247  93.965  1.00  0.00     0.116 A 
HETATM   33  C19 UNL     1     108.481  46.650  95.108  1.00  0.00     0.059 A 
HETATM   34  C23 UNL     1     108.615  46.425  92.706  1.00  0.00     0.079 A 
HETATM   35  C20 UNL     1     107.236  47.231  95.044  1.00  0.00     0.061 A 
HETATM   36  C21 UNL     1     106.692  47.404  93.792  1.00  0.00     0.090 A 
HETATM   37  C25 UNL     1     106.335  47.726  96.079  1.00  0.00     0.302 A 
HETATM   38  C22 UNL     1     107.370  47.005  92.629  1.00  0.00     0.100 A 
HETATM   39  C24 UNL     1     105.402  48.027  94.016  1.00  0.00     0.304 A 
HETATM   40  O5  UNL     1     104.582  48.352  93.110  1.00  0.00    -0.259 OA
HETATM   41  O6  UNL     1     105.208  48.212  95.399  1.00  0.00    -0.237 OA
HETATM   42  O7  UNL     1     106.511  47.728  97.329  1.00  0.00    -0.259 OA
BRANCH  38  43
HETATM   43  O4  UNL     1     106.791  47.192  91.393  1.00  0.00    -0.358 OA
ATOM     44  H4  UNL     1     106.759  48.061  91.008  1.00  0.00     0.217 HD
ENDBRANCH  38  43
ENDBRANCH  26  28
ENDBRANCH  25  26
ENDBRANCH  24  25
ENDBRANCH  22  24
ENDBRANCH  21  22
ENDBRANCH  20  21
ENDBRANCH  19  20
ENDBRANCH  17  19
ENDBRANCH   1  17
BRANCH   2  45
HETATM   45  N2  UNL     1     116.042  43.775  91.662  1.00  0.00    -0.301 N 
HETATM   46  C7  UNL     1     116.713  43.713  92.741  1.00  0.00     0.052 C 
HETATM   47  C8  UNL     1     117.041  45.010  93.399  1.00  0.00     0.072 C 
ATOM     48  H2  UNL     1     115.813  44.729  91.384  1.00  0.00     0.186 HD
BRANCH  46  49
HETATM   49  C9  UNL     1     117.182  42.464  93.378  1.00  0.00     0.114 A 
HETATM   50  N3  UNL     1     116.989  42.059  94.630  1.00  0.00    -0.187 N 
HETATM   51  C10 UNL     1     117.562  40.869  94.848  1.00  0.00     0.677 A 
ATOM     52  H3  UNL     1     116.471  42.586  95.333  1.00  0.00     0.184 HD
HETATM   53  N4  UNL     1     117.561  40.184  95.972  1.00  0.00    -0.234 N 
HETATM   54  N5  UNL     1     118.135  40.514  93.692  1.00  0.00    -0.177 N 
ATOM     55  H42 UNL     1     117.124  40.456  96.853  1.00  0.00     0.174 HD
ATOM     56  H41 UNL     1     117.997  39.278  96.138  1.00  0.00     0.174 HD
HETATM   57  C11 UNL     1     117.927  41.467  92.757  1.00  0.00     0.161 A 
ATOM     58  H5  UNL     1     118.653  39.649  93.539  1.00  0.00     0.185 HD
HETATM   59  N6  UNL     1     118.377  41.465  91.406  1.00  0.00    -0.080 NA
ENDBRANCH  46  49
ENDBRANCH   2  45
TORSDOF 16
ENDMDL
MODEL 2
REMARK VINA RESULT: -9.359823230      3.348      9.752
REMARK  16 active torsions:
REMARK  status: ('A' for Active; 'I' for Inactive)
REMARK    1  A    between atoms: O1_2  and  C2_3 
REMARK    2  A    between atoms: C3_4  and  O2_5 
REMARK    3  A    between atoms: C5_8  and  C6_9 
REMARK    4  A    between atoms: C6_9  and  N7_27 
REMARK    5  A    between atoms: N1_10  and  N2_12 
REMARK    6  A    between atoms: C7_14  and  C9_16 
REMARK    7  A    between atoms: N7_27  and  C12_29 
REMARK    8  A    between atoms: C12_29  and  C13_30 
REMARK    9  A    between atoms: C13_30  and  C14_31 
REMARK   10  A    between atoms: C14_31  and  N8_32 
REMARK   11  A    between atoms: N8_32  and  C15_34 
REMARK   12  A    between atoms: C15_34  and  C16_35 
REMARK   13  A    between atoms: C16_35  and  N9_36 
REMARK   14  A    between atoms: N9_36  and  C17_38 
REMARK   15  A    between atoms: C22_46  and  O4_47 
REMARK   16  A    between atoms: C27_56  and  N11_57 
ROOT
HETATM    1  C6  UNL     1     109.698  45.933  93.713  1.00  0.00     0.126 C 
HETATM    2  N1  UNL     1     108.725  45.785  94.465  1.00  0.00    -0.285 N 
ATOM      3  H1  UNL     1     108.306  44.866  94.321  1.00  0.00     0.188 HD
ENDROOT
BRANCH   1   4
HETATM    4  C5  UNL     1     110.030  44.786  92.804  1.00  0.00     0.014 A 
HETATM    5  C4  UNL     1     111.195  44.074  92.932  1.00  0.00     0.054 A 
HETATM    6  C3  UNL     1     111.472  43.016  92.080  1.00  0.00     0.102 A 
HETATM    7  C2  UNL     1     110.568  42.671  91.090  1.00  0.00     0.134 A 
HETATM    8  C27 UNL     1     109.381  43.363  90.928  1.00  0.00     0.139 A 
HETATM    9  C26 UNL     1     109.153  44.407  91.801  1.00  0.00     0.054 A 
BRANCH   6  10
HETATM   10  O2  UNL     1     112.636  42.271  92.175  1.00  0.00    -0.358 OA
ATOM     11  H2  UNL     1     112.620  41.495  92.724  1.00  0.00     0.217 HD
ENDBRANCH   6  10
BRANCH   7  12
HETATM   12  O1  UNL     1     110.843  41.604  90.229  1.00  0.00    -0.351 OA
HETATM   13  C1  UNL     1     110.937  40.284  90.686  1.00  0.00     0.210 C 
ENDBRANCH   7  12
BRANCH   8  14
HETATM   14  N11 UNL     1     108.472  42.987  89.915  1.00  0.00    -0.113 N 
HETATM   15  O8  UNL     1     108.675  43.225  88.714  1.00  0.00    -0.532 OA
HETATM   16  O9  UNL     1     107.323  42.336  90.268  1.00  0.00    -0.532 OA
ENDBRANCH   8  14
ENDBRANCH   1   4
BRANCH   1  17
HETATM   17  N7  UNL     1     110.515  47.082  93.639  1.00  0.00    -0.374 N 
ATOM     18  H7  UNL     1     110.606  47.641  94.487  1.00  0.00     0.161 HD
BRANCH  17  19
HETATM   19  C12 UNL     1     111.230  47.537  92.477  1.00  0.00     0.123 C 
BRANCH  19  20
HETATM   20  C13 UNL     1     112.673  47.332  92.398  1.00  0.00     0.039 C 
BRANCH  20  21
HETATM   21  C14 UNL     1     113.339  46.201  93.074  1.00  0.00     0.120 C 
BRANCH  21  22
HETATM   22  N8  UNL     1     114.061  45.254  92.304  1.00  0.00    -0.401 N 
ATOM     23  H8  UNL     1     113.771  45.049  91.348  1.00  0.00     0.158 HD
BRANCH  22  24
HETATM   24  C15 UNL     1     115.170  44.598  92.854  1.00  0.00     0.075 C 
BRANCH  24  25
HETATM   25  C16 UNL     1     115.836  43.512  92.082  1.00  0.00     0.165 C 
BRANCH  25  26
HETATM   26  N9  UNL     1     115.780  43.609  90.671  1.00  0.00    -0.369 N 
ATOM     27  H9  UNL     1     115.172  44.339  90.300  1.00  0.00     0.161 HD
BRANCH  26  28
HETATM   28  C17 UNL     1     116.451  42.833  89.720  1.00  0.00     0.138 A 
HETATM   29  N10 UNL     1     117.751  42.676  89.457  1.00  0.00    -0.244 N 
HETATM   30  O3  UNL     1     117.969  41.859  88.481  1.00  0.00    -0.235 OA
ATOM     31  H10 UNL     1     118.492  43.149  89.973  1.00  0.00     0.196 HD
HETATM   32  C18 UNL     1     116.842  41.405  88.014  1.00  0.00     0.116 A 
HETATM   33  C19 UNL     1     116.533  40.515  86.985  1.00  0.00     0.059 A 
HETATM   34  C23 UNL     1     115.832  41.992  88.765  1.00  0.00     0.079 A 
HETATM   35  C20 UNL     1     115.236  40.182  86.670  1.00  0.00     0.061 A 
HETATM   36  C21 UNL     1     114.242  40.768  87.419  1.00  0.00     0.090 A 
HETATM   37  C25 UNL     1     114.674  39.294  85.659  1.00  0.00     0.302 A 
HETATM   38  C22 UNL     1     114.532  41.668  88.459  1.00  0.00     0.100 A 
HETATM   39  C24 UNL     1     112.999  40.249  86.884  1.00  0.00     0.304 A 
HETATM   40  O5  UNL     1     111.844  40.547  87.301  1.00  0.00    -0.259 OA
HETATM   41  O6  UNL     1     113.282  39.364  85.825  1.00  0.00    -0.237 OA
HETATM   42  O7  UNL     1     115.290  38.598  84.804  1.00  0.00    -0.259 OA
BRANCH  38  43
HETATM   43  O4  UNL     1     113.508  42.236  89.185  1.00  0.00    -0.358 OA
ATOM     44  H4  UNL     1     112.955  42.900  88.790  1.00  0.00     0.217 HD
ENDBRANCH  38  43
ENDBRANCH  26  28
ENDBRANCH  25  26
ENDBRANCH  24  25
ENDBRANCH  22  24
ENDBRANCH  21  22
ENDBRANCH  20  21
ENDBRANCH  19  20
ENDBRANCH  17  19
ENDBRANCH   1  17
BRANCH   2  45
HETATM   45  N2  UNL     1     108.058  46.451  95.401  1.00  0.00    -0.301 N 
HETATM   46  C7  UNL     1     107.693  46.168  96.586  1.00  0.00     0.052 C 
HETATM   47  C8  UNL     1     106.940  47.223  97.325  1.00  0.00     0.072 C 
ATOM     48  H2  UNL     1     107.780  47.388  95.107  1.00  0.00     0.186 HD
BRANCH  46  49
HETATM   49  C9  UNL     1     107.959  44.886  97.272  1.00  0.00     0.114 A 
HETATM   50  N3  UNL     1     107.078  43.979  97.687  1.00  0.00    -0.187 N 
HETATM   51  C10 UNL     1     107.690  42.939  98.266  1.00  0.00     0.677 A 
ATOM     52  H3  UNL     1     106.067  44.065  97.578  1.00  0.00     0.184 HD
HETATM   53  N4  UNL     1     107.118  41.872  98.783  1.00  0.00    -0.234 N 
HETATM   54  N5  UNL     1     109.001  43.201  98.213  1.00  0.00    -0.177 N 
ATOM     55  H42 UNL     1     106.119  41.673  98.823  1.00  0.00     0.174 HD
ATOM     56  H41 UNL     1     107.584  41.080  99.224  1.00  0.00     0.174 HD
HETATM   57  C11 UNL     1     109.214  44.390  97.609  1.00  0.00     0.161 A 
ATOM     58  H5  UNL     1     109.734  42.591  98.575  1.00  0.00     0.185 HD
HETATM   59  N6  UNL     1     110.466  45.023  97.362  1.00  0.00    -0.080 NA
ENDBRANCH  46  49
ENDBRANCH   2  45
TORSDOF 16
ENDMDL
MODEL 3
REMARK VINA RESULT: -9.311331412      1.475      2.645
REMARK  16 active torsions:
REMARK  status: ('A' for Active; 'I' for Inactive)
REMARK    1  A    between atoms: O1_2  and  C2_3 
REMARK    2  A    between atoms: C3_4  and  O2_5 
REMARK    3  A    between atoms: C5_8  and  C6_9 
REMARK    4  A    between atoms: C6_9  and  N7_27 
REMARK    5  A    between atoms: N1_10  and  N2_12 
REMARK    6  A    between atoms: C7_14  and  C9_16 
REMARK    7  A    between atoms: N7_27  and  C12_29 
REMARK    8  A    between atoms: C12_29  and  C13_30 
REMARK    9  A    between atoms: C13_30  and  C14_31 
REMARK   10  A    between atoms: C14_31  and  N8_32 
REMARK   11  A    between atoms: N8_32  and  C15_34 
REMARK   12  A    between atoms: C15_34  and  C16_35 
REMARK   13  A    between atoms: C16_35  and  N9_36 
REMARK   14  A    between atoms: N9_36  and  C17_38 
REMARK   15  A    between atoms: C22_46  and  O4_47 
REMARK   16  A    between atoms: C27_56  and  N11_57 
ROOT
HETATM    1  C6  UNL     1     114.682  42.377  90.586  1.00  0.00     0.126 C 
HETATM    2  N1  UNL     1     115.557  43.232  90.778  1.00  0.00    -0.285 N 
ATOM      3  H1  UNL     1     116.108  43.367  89.930  1.00  0.00     0.188 HD
ENDROOT
BRANCH   1   4
HETATM    4  C5  UNL     1     114.628  41.761  89.219  1.00  0.00     0.014 A 
HETATM    5  C4  UNL     1     115.757  41.580  88.461  1.00  0.00     0.054 A 
HETATM    6  C3  UNL     1     115.677  41.006  87.201  1.00  0.00     0.102 A 
HETATM    7  C2  UNL     1     114.448  40.609  86.701  1.00  0.00     0.134 A 
HETATM    8  C27 UNL     1     113.286  40.773  87.433  1.00  0.00     0.139 A 
HETATM    9  C26 UNL     1     113.420  41.350  88.679  1.00  0.00     0.054 A 
BRANCH   6  10
HETATM   10  O2  UNL     1     116.791  40.804  86.404  1.00  0.00    -0.358 OA
ATOM     11  H2  UNL     1     117.559  41.336  86.577  1.00  0.00     0.217 HD
ENDBRANCH   6  10
BRANCH   7  12
HETATM   12  O1  UNL     1     114.362  40.028  85.431  1.00  0.00    -0.351 OA
HETATM   13  C1  UNL     1     114.849  38.743  85.166  1.00  0.00     0.210 C 
ENDBRANCH   7  12
BRANCH   8  14
HETATM   14  N11 UNL     1     112.046  40.355  86.902  1.00  0.00    -0.113 N 
HETATM   15  O8  UNL     1     111.225  41.149  86.418  1.00  0.00    -0.532 OA
HETATM   16  O9  UNL     1     111.737  39.023  86.920  1.00  0.00    -0.532 OA
ENDBRANCH   8  14
ENDBRANCH   1   4
BRANCH   1  17
HETATM   17  N7  UNL     1     113.739  41.936  91.539  1.00  0.00    -0.374 N 
ATOM     18  H7  UNL     1     113.789  40.957  91.822  1.00  0.00     0.161 HD
BRANCH  17  19
HETATM   19  C12 UNL     1     112.714  42.740  92.147  1.00  0.00     0.123 C 
BRANCH  19  20
HETATM   20  C13 UNL     1     111.610  43.234  91.328  1.00  0.00     0.039 C 
BRANCH  20  21
HETATM   21  C14 UNL     1     110.609  42.325  90.737  1.00  0.00     0.120 C 
BRANCH  21  22
HETATM   22  N8  UNL     1     109.273  42.770  90.572  1.00  0.00    -0.401 N 
ATOM     23  H8  UNL     1     108.582  42.582  91.298  1.00  0.00     0.158 HD
BRANCH  22  24
HETATM   24  C15 UNL     1     108.900  43.466  89.415  1.00  0.00     0.075 C 
BRANCH  24  25
HETATM   25  C16 UNL     1     108.754  44.948  89.466  1.00  0.00     0.165 C 
BRANCH  25  26
HETATM   26  N9  UNL     1     108.891  45.556  90.737  1.00  0.00    -0.369 N 
ATOM     27  H9  UNL     1     109.812  45.482  91.168  1.00  0.00     0.161 HD
BRANCH  26  28
HETATM   28  C17 UNL     1     107.926  46.247  91.478  1.00  0.00     0.138 A 
HETATM   29  N10 UNL     1     106.822  46.901  91.108  1.00  0.00    -0.244 N 
HETATM   30  O3  UNL     1     106.187  47.416  92.108  1.00  0.00    -0.235 OA
ATOM     31  H10 UNL     1     106.512  46.985  90.140  1.00  0.00     0.196 HD
HETATM   32  C18 UNL     1     106.809  47.150  93.221  1.00  0.00     0.116 A 
HETATM   33  C19 UNL     1     106.543  47.467  94.553  1.00  0.00     0.059 A 
HETATM   34  C23 UNL     1     107.930  46.404  92.884  1.00  0.00     0.079 A 
HETATM   35  C20 UNL     1     107.366  47.064  95.579  1.00  0.00     0.061 A 
HETATM   36  C21 UNL     1     108.475  46.325  95.236  1.00  0.00     0.090 A 
HETATM   37  C25 UNL     1     107.299  47.267  97.021  1.00  0.00     0.302 A 
HETATM   38  C22 UNL     1     108.761  45.996  93.900  1.00  0.00     0.100 A 
HETATM   39  C24 UNL     1     109.150  46.040  96.487  1.00  0.00     0.304 A 
HETATM   40  O5  UNL     1     110.220  45.379  96.604  1.00  0.00    -0.259 OA
HETATM   41  O6  UNL     1     108.425  46.616  97.549  1.00  0.00    -0.237 OA
HETATM   42  O7  UNL     1     106.422  47.894  97.680  1.00  0.00    -0.259 OA
BRANCH  38  43
HETATM   43  O4  UNL     1     109.883  45.257  93.596  1.00  0.00    -0.358 OA
ATOM     44  H4  UNL     1     109.805  44.462  93.082  1.00  0.00     0.217 HD
ENDBRANCH  38  43
ENDBRANCH  26  28
ENDBRANCH  25  26
ENDBRANCH  24  25
ENDBRANCH  22  24
ENDBRANCH  21  22
ENDBRANCH  20  21
ENDBRANCH  19  20
ENDBRANCH  17  19
ENDBRANCH   1  17
BRANCH   2  45
HETATM   45  N2  UNL     1     116.001  44.029  91.744  1.00  0.00    -0.301 N 
HETATM   46  C7  UNL     1     116.676  43.829  92.804  1.00  0.00     0.052 C 
HETATM   47  C8  UNL     1     116.972  45.025  93.643  1.00  0.00     0.072 C 
ATOM     48  H2  UNL     1     115.747  45.007  91.607  1.00  0.00     0.186 HD
BRANCH  46  49
HETATM   49  C9  UNL     1     117.179  42.514  93.254  1.00  0.00     0.114 A 
HETATM   50  N3  UNL     1     117.039  41.947  94.450  1.00  0.00    -0.187 N 
HETATM   51  C10 UNL     1     117.628  40.746  94.488  1.00  0.00     0.677 A 
ATOM     52  H3  UNL     1     116.547  42.372  95.235  1.00  0.00     0.184 HD
HETATM   53  N4  UNL     1     117.677  39.921  95.512  1.00  0.00    -0.234 N 
HETATM   54  N5  UNL     1     118.156  40.550  93.274  1.00  0.00    -0.177 N 
ATOM     55  H42 UNL     1     117.274  40.070  96.437  1.00  0.00     0.174 HD
ATOM     56  H41 UNL     1     118.126  39.006  95.542  1.00  0.00     0.174 HD
HETATM   57  C11 UNL     1     117.905  41.614  92.480  1.00  0.00     0.161 A 
ATOM     58  H5  UNL     1     118.673  39.719  92.989  1.00  0.00     0.185 HD
HETATM   59  N6  UNL     1     118.299  41.793  91.123  1.00  0.00    -0.080 NA
ENDBRANCH  46  49
ENDBRANCH   2  45
TORSDOF 16
ENDMDL
MODEL 4
REMARK VINA RESULT: -9.221286809      0.889      2.000
REMARK  16 active torsions:
REMARK  status: ('A' for Active; 'I' for Inactive)
REMARK    1  A    between atoms: O1_2  and  C2_3 
REMARK    2  A    between atoms: C3_4  and  O2_5 
REMARK    3  A    between atoms: C5_8  and  C6_9 
REMARK    4  A    between atoms: C6_9  and  N7_27 
REMARK    5  A    between atoms: N1_10  and  N2_12 
REMARK    6  A    between atoms: C7_14  and  C9_16 
REMARK    7  A    between atoms: N7_27  and  C12_29 
REMARK    8  A    between atoms: C12_29  and  C13_30 
REMARK    9  A    between atoms: C13_30  and  C14_31 
REMARK   10  A    between atoms: C14_31  and  N8_32 
REMARK   11  A    between atoms: N8_32  and  C15_34 
REMARK   12  A    between atoms: C15_34  and  C16_35 
REMARK   13  A    between atoms: C16_35  and  N9_36 
REMARK   14  A    between atoms: N9_36  and  C17_38 
REMARK   15  A    between atoms: C22_46  and  O4_47 
REMARK   16  A    between atoms: C27_56  and  N11_57 
ROOT
HETATM    1  C6  UNL     1     114.599  42.033  90.750  1.00  0.00     0.126 C 
HETATM    2  N1  UNL     1     115.537  42.836  90.847  1.00  0.00    -0.285 N 
ATOM      3  H1  UNL     1     116.140  42.773  90.026  1.00  0.00     0.188 HD
ENDROOT
BRANCH   1   4
HETATM    4  C5  UNL     1     114.558  41.190  89.509  1.00  0.00     0.014 A 
HETATM    5  C4  UNL     1     113.752  41.507  88.445  1.00  0.00     0.054 A 
HETATM    6  C3  UNL     1     113.737  40.711  87.309  1.00  0.00     0.102 A 
HETATM    7  C2  UNL     1     114.542  39.586  87.245  1.00  0.00     0.134 A 
HETATM    8  C27 UNL     1     115.369  39.232  88.295  1.00  0.00     0.139 A 
HETATM    9  C26 UNL     1     115.346  40.056  89.401  1.00  0.00     0.054 A 
BRANCH   6  10
HETATM   10  O2  UNL     1     112.940  40.995  86.213  1.00  0.00    -0.358 OA
ATOM     11  H2  UNL     1     112.116  41.441  86.371  1.00  0.00     0.217 HD
ENDBRANCH   6  10
BRANCH   7  12
HETATM   12  O1  UNL     1     114.531  38.781  86.101  1.00  0.00    -0.351 OA
HETATM   13  C1  UNL     1     115.379  39.022  85.013  1.00  0.00     0.210 C 
ENDBRANCH   7  12
BRANCH   8  14
HETATM   14  N11 UNL     1     116.185  38.083  88.202  1.00  0.00    -0.113 N 
HETATM   15  O8  UNL     1     115.809  36.965  88.586  1.00  0.00    -0.532 OA
HETATM   16  O9  UNL     1     117.437  38.205  87.667  1.00  0.00    -0.532 OA
ENDBRANCH   8  14
ENDBRANCH   1   4
BRANCH   1  17
HETATM   17  N7  UNL     1     113.574  41.845  91.702  1.00  0.00    -0.374 N 
ATOM     18  H7  UNL     1     113.479  40.913  92.103  1.00  0.00     0.161 HD
BRANCH  17  19
HETATM   19  C12 UNL     1     112.650  42.849  92.157  1.00  0.00     0.123 C 
BRANCH  19  20
HETATM   20  C13 UNL     1     111.570  43.281  91.274  1.00  0.00     0.039 C 
BRANCH  20  21
HETATM   21  C14 UNL     1     110.670  42.317  90.611  1.00  0.00     0.120 C 
BRANCH  21  22
HETATM   22  N8  UNL     1     109.311  42.661  90.401  1.00  0.00    -0.401 N 
ATOM     23  H8  UNL     1     108.596  42.328  91.048  1.00  0.00     0.158 HD
BRANCH  22  24
HETATM   24  C15 UNL     1     108.947  43.458  89.307  1.00  0.00     0.075 C 
BRANCH  24  25
HETATM   25  C16 UNL     1     108.752  44.922  89.501  1.00  0.00     0.165 C 
BRANCH  25  26
HETATM   26  N9  UNL     1     108.843  45.406  90.827  1.00  0.00    -0.369 N 
ATOM     27  H9  UNL     1     109.704  45.178  91.325  1.00  0.00     0.161 HD
BRANCH  26  28
HETATM   28  C17 UNL     1     107.906  46.158  91.544  1.00  0.00     0.138 A 
HETATM   29  N10 UNL     1     106.835  46.853  91.152  1.00  0.00    -0.244 N 
HETATM   30  O3  UNL     1     106.219  47.420  92.134  1.00  0.00    -0.235 OA
ATOM     31  H10 UNL     1     106.536  46.927  90.180  1.00  0.00     0.196 HD
HETATM   32  C18 UNL     1     106.821  47.152  93.258  1.00  0.00     0.116 A 
HETATM   33  C19 UNL     1     106.562  47.513  94.580  1.00  0.00     0.059 A 
HETATM   34  C23 UNL     1     107.910  46.348  92.946  1.00  0.00     0.079 A 
HETATM   35  C20 UNL     1     107.360  47.099  95.621  1.00  0.00     0.061 A 
HETATM   36  C21 UNL     1     108.436  46.302  95.304  1.00  0.00     0.090 A 
HETATM   37  C25 UNL     1     107.293  47.340  97.058  1.00  0.00     0.302 A 
HETATM   38  C22 UNL     1     108.715  45.928  93.978  1.00  0.00     0.100 A 
HETATM   39  C24 UNL     1     109.089  46.017  96.566  1.00  0.00     0.304 A 
HETATM   40  O5  UNL     1     110.128  45.311  96.706  1.00  0.00    -0.259 OA
HETATM   41  O6  UNL     1     108.385  46.651  97.609  1.00  0.00    -0.237 OA
HETATM   42  O7  UNL     1     106.442  48.021  97.695  1.00  0.00    -0.259 OA
BRANCH  38  43
HETATM   43  O4  UNL     1     109.804  45.132  93.700  1.00  0.00    -0.358 OA
ATOM     44  H4  UNL     1     109.880  44.272  94.099  1.00  0.00     0.217 HD
ENDBRANCH  38  43
ENDBRANCH  26  28
ENDBRANCH  25  26
ENDBRANCH  24  25
ENDBRANCH  22  24
ENDBRANCH  21  22
ENDBRANCH  20  21
ENDBRANCH  19  20
ENDBRANCH  17  19
ENDBRANCH   1  17
BRANCH   2  45
HETATM   45  N2  UNL     1     116.003  43.753  91.688  1.00  0.00    -0.301 N 
HETATM   46  C7  UNL     1     116.691  43.695  92.756  1.00  0.00     0.052 C 
HETATM   47  C8  UNL     1     117.011  44.992  93.418  1.00  0.00     0.072 C 
ATOM     48  H2  UNL     1     115.756  44.706  91.420  1.00  0.00     0.186 HD
BRANCH  46  49
HETATM   49  C9  UNL     1     117.188  42.449  93.377  1.00  0.00     0.114 A 
HETATM   50  N3  UNL     1     116.960  41.998  94.609  1.00  0.00    -0.187 N 
HETATM   51  C10 UNL     1     117.575  40.828  94.818  1.00  0.00     0.677 A 
ATOM     52  H3  UNL     1     116.392  42.482  95.304  1.00  0.00     0.184 HD
HETATM   53  N4  UNL     1     117.558  40.111  95.921  1.00  0.00    -0.234 N 
HETATM   54  N5  UNL     1     118.211  40.532  93.678  1.00  0.00    -0.177 N 
ATOM     55  H42 UNL     1     117.073  40.337  96.790  1.00  0.00     0.174 HD
ATOM     56  H41 UNL     1     118.026  39.220  96.081  1.00  0.00     0.174 HD
HETATM   57  C11 UNL     1     118.001  41.502  92.762  1.00  0.00     0.161 A 
ATOM     58  H5  UNL     1     118.772  39.695  93.523  1.00  0.00     0.185 HD
HETATM   59  N6  UNL     1     118.505  41.560  91.431  1.00  0.00    -0.080 NA
ENDBRANCH  46  49
ENDBRANCH   2  45
TORSDOF 16
ENDMDL
MODEL 5
REMARK VINA RESULT: -9.206243025      3.093      9.415
REMARK  16 active torsions:
REMARK  status: ('A' for Active; 'I' for Inactive)
REMARK    1  A    between atoms: O1_2  and  C2_3 
REMARK    2  A    between atoms: C3_4  and  O2_5 
REMARK    3  A    between atoms: C5_8  and  C6_9 
REMARK    4  A    between atoms: C6_9  and  N7_27 
REMARK    5  A    between atoms: N1_10  and  N2_12 
REMARK    6  A    between atoms: C7_14  and  C9_16 
REMARK    7  A    between atoms: N7_27  and  C12_29 
REMARK    8  A    between atoms: C12_29  and  C13_30 
REMARK    9  A    between atoms: C13_30  and  C14_31 
REMARK   10  A    between atoms: C14_31  and  N8_32 
REMARK   11  A    between atoms: N8_32  and  C15_34 
REMARK   12  A    between atoms: C15_34  and  C16_35 
REMARK   13  A    between atoms: C16_35  and  N9_36 
REMARK   14  A    between atoms: N9_36  and  C17_38 
REMARK   15  A    between atoms: C22_46  and  O4_47 
REMARK   16  A    between atoms: C27_56  and  N11_57 
ROOT
HETATM    1  C6  UNL     1     109.595  45.895  93.738  1.00  0.00     0.126 C 
HETATM    2  N1  UNL     1     108.495  46.130  94.256  1.00  0.00    -0.285 N 
ATOM      3  H1  UNL     1     107.751  45.682  93.720  1.00  0.00     0.188 HD
ENDROOT
BRANCH   1   4
HETATM    4  C5  UNL     1     109.591  45.047  92.500  1.00  0.00     0.014 A 
HETATM    5  C4  UNL     1     108.834  45.371  91.402  1.00  0.00     0.054 A 
HETATM    6  C3  UNL     1     108.853  44.569  90.271  1.00  0.00     0.102 A 
HETATM    7  C2  UNL     1     109.641  43.431  90.245  1.00  0.00     0.134 A 
HETATM    8  C27 UNL     1     110.418  43.069  91.331  1.00  0.00     0.139 A 
HETATM    9  C26 UNL     1     110.364  43.899  92.431  1.00  0.00     0.054 A 
BRANCH   6  10
HETATM   10  O2  UNL     1     108.106  44.860  89.142  1.00  0.00    -0.358 OA
ATOM     11  H2  UNL     1     107.956  45.776  88.936  1.00  0.00     0.217 HD
ENDBRANCH   6  10
BRANCH   7  12
HETATM   12  O1  UNL     1     109.663  42.619  89.106  1.00  0.00    -0.351 OA
HETATM   13  C1  UNL     1     110.787  42.534  88.276  1.00  0.00     0.210 C 
ENDBRANCH   7  12
BRANCH   8  14
HETATM   14  N11 UNL     1     111.218  41.906  91.276  1.00  0.00    -0.113 N 
HETATM   15  O8  UNL     1     110.733  40.766  91.196  1.00  0.00    -0.532 OA
HETATM   16  O9  UNL     1     112.578  42.039  91.313  1.00  0.00    -0.532 OA
ENDBRANCH   8  14
ENDBRANCH   1   4
BRANCH   1  17
HETATM   17  N7  UNL     1     110.843  46.356  94.210  1.00  0.00    -0.374 N 
ATOM     18  H7  UNL     1     111.124  46.057  95.143  1.00  0.00     0.161 HD
BRANCH  17  19
HETATM   19  C12 UNL     1     111.753  47.209  93.495  1.00  0.00     0.123 C 
BRANCH  19  20
HETATM   20  C13 UNL     1     113.132  46.773  93.290  1.00  0.00     0.039 C 
BRANCH  20  21
HETATM   21  C14 UNL     1     113.456  45.504  92.609  1.00  0.00     0.120 C 
BRANCH  21  22
HETATM   22  N8  UNL     1     114.628  44.795  92.975  1.00  0.00    -0.401 N 
ATOM     23  H8  UNL     1     115.077  44.982  93.872  1.00  0.00     0.158 HD
BRANCH  22  24
HETATM   24  C15 UNL     1     115.173  43.839  92.107  1.00  0.00     0.075 C 
BRANCH  24  25
HETATM   25  C16 UNL     1     116.508  44.084  91.493  1.00  0.00     0.165 C 
BRANCH  25  26
HETATM   26  N9  UNL     1     117.052  43.034  90.715  1.00  0.00    -0.369 N 
ATOM     27  H9  UNL     1     117.860  43.278  90.142  1.00  0.00     0.161 HD
BRANCH  26  28
HETATM   28  C17 UNL     1     116.625  41.704  90.631  1.00  0.00     0.138 A 
HETATM   29  N10 UNL     1     116.878  40.639  91.396  1.00  0.00    -0.244 N 
HETATM   30  O3  UNL     1     116.287  39.570  90.976  1.00  0.00    -0.235 OA
ATOM     31  H10 UNL     1     117.473  40.667  92.224  1.00  0.00     0.196 HD
HETATM   32  C18 UNL     1     115.595  39.830  89.905  1.00  0.00     0.116 A 
HETATM   33  C19 UNL     1     114.792  39.040  89.082  1.00  0.00     0.059 A 
HETATM   34  C23 UNL     1     115.772  41.180  89.632  1.00  0.00     0.079 A 
HETATM   35  C20 UNL     1     114.148  39.552  87.979  1.00  0.00     0.061 A 
HETATM   36  C21 UNL     1     114.328  40.890  87.717  1.00  0.00     0.090 A 
HETATM   37  C25 UNL     1     113.272  38.938  86.988  1.00  0.00     0.302 A 
HETATM   38  C22 UNL     1     115.133  41.703  88.532  1.00  0.00     0.100 A 
HETATM   39  C24 UNL     1     113.550  41.157  86.523  1.00  0.00     0.304 A 
HETATM   40  O5  UNL     1     113.452  42.280  85.951  1.00  0.00    -0.259 OA
HETATM   41  O6  UNL     1     112.923  39.968  86.101  1.00  0.00    -0.237 OA
HETATM   42  O7  UNL     1     112.893  37.735  86.921  1.00  0.00    -0.259 OA
BRANCH  38  43
HETATM   43  O4  UNL     1     115.291  43.039  88.235  1.00  0.00    -0.358 OA
ATOM     44  H4  UNL     1     114.952  43.702  88.825  1.00  0.00     0.217 HD
ENDBRANCH  38  43
ENDBRANCH  26  28
ENDBRANCH  25  26
ENDBRANCH  24  25
ENDBRANCH  22  24
ENDBRANCH  21  22
ENDBRANCH  20  21
ENDBRANCH  19  20
ENDBRANCH  17  19
ENDBRANCH   1  17
BRANCH   2  45
HETATM   45  N2  UNL     1     107.982  46.782  95.294  1.00  0.00    -0.301 N 
HETATM   46  C7  UNL     1     107.747  46.461  96.502  1.00  0.00     0.052 C 
HETATM   47  C8  UNL     1     107.147  47.515  97.370  1.00  0.00     0.072 C 
ATOM     48  H2  UNL     1     107.722  47.744  95.075  1.00  0.00     0.186 HD
BRANCH  46  49
HETATM   49  C9  UNL     1     108.023  45.136  97.096  1.00  0.00     0.114 A 
HETATM   50  N3  UNL     1     107.150  44.187  97.427  1.00  0.00    -0.187 N 
HETATM   51  C10 UNL     1     107.769  43.117  97.939  1.00  0.00     0.677 A 
ATOM     52  H3  UNL     1     106.140  44.265  97.306  1.00  0.00     0.184 HD
HETATM   53  N4  UNL     1     107.207  42.006  98.366  1.00  0.00    -0.234 N 
HETATM   54  N5  UNL     1     109.077  43.402  97.930  1.00  0.00    -0.177 N 
ATOM     55  H42 UNL     1     106.211  41.789  98.373  1.00  0.00     0.174 HD
ATOM     56  H41 UNL     1     107.679  41.191  98.756  1.00  0.00     0.174 HD
HETATM   57  C11 UNL     1     109.280  44.637  97.420  1.00  0.00     0.161 A 
ATOM     58  H5  UNL     1     109.813  42.779  98.260  1.00  0.00     0.185 HD
HETATM   59  N6  UNL     1     110.525  45.305  97.243  1.00  0.00    -0.080 NA
ENDBRANCH  46  49
ENDBRANCH   2  45
TORSDOF 16
ENDMDL
