MODEL 1
REMARK VINA RESULT: -9.064126506      0.000      0.000
REMARK  14 active torsions:
REMARK  status: ('A' for Active; 'I' for Inactive)
REMARK    1  A    between atoms: C2_2  and  N1_3 
REMARK    2  A    between atoms: C2_2  and  S4_53 
REMARK    3  A    between atoms: C4_8  and  N3_9 
REMARK    4  A    between atoms: N4_11  and  C5_13 
REMARK    5  A    between atoms: C5_13  and  C6_14 
REMARK    6  A    between atoms: C5_13  and  C10_24 
REMARK    7  A    between atoms: C6_14  and  C7_15 
REMARK       I    between atoms: C10_24  and  N7_26 
REMARK    8  A    between atoms: N7_26  and  C11_28 
REMARK    9  A    between atoms: C11_28  and  C12_29 
REMARK   10  A    between atoms: C11_28  and  C15_41 
REMARK   11  A    between atoms: C13_34  and  N10_35 
REMARK   12  A    between atoms: N10_35  and  O2_37 
REMARK   13  A    between atoms: C17_44  and  N12_45 
REMARK   14  A    between atoms: C18_50  and  O3_51 
ROOT
HETATM    1  C5  UNL     1     112.073  43.224  91.479  1.00  0.00     0.197 C 
ENDROOT
BRANCH   1   2
HETATM    2  N4  UNL     1     112.703  42.447  92.493  1.00  0.00    -0.321 N 
HETATM    3  N3  UNL     1     113.892  42.185  92.533  1.00  0.00    -0.285 N 
ATOM      4  H3  UNL     1     114.153  41.617  93.339  1.00  0.00     0.188 HD
ATOM      5  H4  UNL     1     112.114  42.082  93.242  1.00  0.00     0.181 HD
BRANCH   3   6
HETATM    6  C4  UNL     1     114.970  42.498  91.708  1.00  0.00     0.174 A 
HETATM    7  N2  UNL     1     115.673  43.645  91.575  1.00  0.00    -0.317 N 
HETATM    8  C3  UNL     1     116.620  43.465  90.644  1.00  0.00     0.162 A 
ATOM      9  H2  UNL     1     115.510  44.506  92.098  1.00  0.00     0.169 HD
HETATM   10  N1  UNL     1     116.557  42.234  90.161  1.00  0.00    -0.283 N 
HETATM   11  S1  UNL     1     117.832  44.681  90.082  1.00  0.00    -0.013 SA
HETATM   12  C18 UNL     1     115.550  41.605  90.793  1.00  0.00     0.192 A 
BRANCH  10  13
HETATM   13  C2  UNL     1     117.360  41.576  89.145  1.00  0.00     0.234 C 
HETATM   14  C1  UNL     1     118.054  40.339  89.663  1.00  0.00     0.052 C 
BRANCH  13  15
HETATM   15  S4  UNL     1     116.419  41.126  87.711  1.00  0.00     0.125 S 
HETATM   16  O4  UNL     1     117.314  41.078  86.506  1.00  0.00    -0.594 OA
HETATM   17  O5  UNL     1     115.718  39.794  87.904  1.00  0.00    -0.594 OA
HETATM   18  O6  UNL     1     115.238  42.280  87.477  1.00  0.00    -0.594 OA
ENDBRANCH  13  15
ENDBRANCH  10  13
BRANCH  12  19
HETATM   19  O3  UNL     1     115.105  40.298  90.623  1.00  0.00    -0.343 OA
ATOM     20  H3  UNL     1     114.257  39.998  90.316  1.00  0.00     0.219 HD
ENDBRANCH  12  19
ENDBRANCH   3   6
ENDBRANCH   1   2
BRANCH   1  21
HETATM   21  C6  UNL     1     110.919  42.530  90.821  1.00  0.00     0.093 C 
BRANCH  21  22
HETATM   22  C7  UNL     1     111.442  41.481  89.849  1.00  0.00     0.020 A 
HETATM   23  C8  UNL     1     111.611  40.164  90.175  1.00  0.00     0.078 A 
HETATM   24  S2  UNL     1     112.169  39.489  88.710  1.00  0.00    -0.064 SA
HETATM   25  C9  UNL     1     112.158  40.905  87.769  1.00  0.00     0.142 A 
HETATM   26  N5  UNL     1     112.498  41.039  86.502  1.00  0.00    -0.380 N 
HETATM   27  N6  UNL     1     111.732  41.834  88.606  1.00  0.00    -0.340 N 
ATOM     28  H52 UNL     1     112.828  40.322  85.856  1.00  0.00     0.158 HD
ATOM     29  H51 UNL     1     112.492  41.889  85.937  1.00  0.00     0.158 HD
ATOM     30  H6  UNL     1     111.628  42.802  88.300  1.00  0.00     0.167 HD
ENDBRANCH  21  22
ENDBRANCH   1  21
BRANCH   1  31
HETATM   31  C10 UNL     1     111.539  44.474  92.146  1.00  0.00     0.243 C 
HETATM   32  O1  UNL     1     112.146  45.572  92.072  1.00  0.00    -0.271 OA
HETATM   33  N7  UNL     1     110.325  44.419  92.874  1.00  0.00    -0.342 N 
ATOM     34  H7  UNL     1     109.819  43.536  92.940  1.00  0.00     0.163 HD
BRANCH  33  35
HETATM   35  C11 UNL     1     109.794  45.595  93.525  1.00  0.00     0.204 C 
BRANCH  35  36
HETATM   36  C12 UNL     1     108.543  46.057  92.856  1.00  0.00     0.127 A 
HETATM   37  N8  UNL     1     108.193  45.811  91.561  1.00  0.00    -0.284 N 
HETATM   38  N9  UNL     1     107.021  46.367  91.299  1.00  0.00    -0.273 N 
ATOM     39  H8  UNL     1     108.752  45.278  90.894  1.00  0.00     0.188 HD
HETATM   40  C13 UNL     1     106.590  46.975  92.397  1.00  0.00     0.199 A 
ATOM     41  H9  UNL     1     106.532  46.334  90.404  1.00  0.00     0.189 HD
HETATM   42  N11 UNL     1     107.524  46.782  93.345  1.00  0.00    -0.316 N 
ATOM     43  H11 UNL     1     107.467  47.136  94.300  1.00  0.00     0.170 HD
BRANCH  40  44
HETATM   44  N10 UNL     1     105.379  47.679  92.517  1.00  0.00    -0.136 NA
HETATM   45  C14 UNL     1     105.020  47.846  93.913  1.00  0.00     0.153 C 
BRANCH  44  46
HETATM   46  O2  UNL     1     104.336  47.034  91.933  1.00  0.00    -0.306 OA
ATOM     47  H2  UNL     1     103.861  46.479  92.540  1.00  0.00     0.237 HD
ENDBRANCH  44  46
ENDBRANCH  40  44
ENDBRANCH  35  36
BRANCH  35  48
HETATM   48  C15 UNL     1     109.413  45.250  94.960  1.00  0.00     0.048 A 
HETATM   49  C16 UNL     1     109.990  45.912  96.005  1.00  0.00     0.081 A 
HETATM   50  S3  UNL     1     109.248  45.174  97.352  1.00  0.00    -0.064 SA
HETATM   51  C17 UNL     1     108.253  44.073  96.513  1.00  0.00     0.142 A 
HETATM   52  N13 UNL     1     108.533  44.320  95.236  1.00  0.00    -0.338 N 
ATOM     53  H13 UNL     1     108.073  43.798  94.489  1.00  0.00     0.168 HD
BRANCH  51  54
HETATM   54  N12 UNL     1     107.404  43.182  96.982  1.00  0.00    -0.380 N 
ATOM     55 2H12 UNL     1     106.521  42.892  96.561  1.00  0.00     0.158 HD
ATOM     56 1H12 UNL     1     107.453  42.621  97.832  1.00  0.00     0.158 HD
ENDBRANCH  51  54
ENDBRANCH  35  48
ENDBRANCH  33  35
ENDBRANCH   1  31
TORSDOF 14
ENDMDL
MODEL 2
REMARK VINA RESULT: -8.702499892      1.986      3.611
REMARK  14 active torsions:
REMARK  status: ('A' for Active; 'I' for Inactive)
REMARK    1  A    between atoms: C2_2  and  N1_3 
REMARK    2  A    between atoms: C2_2  and  S4_53 
REMARK    3  A    between atoms: C4_8  and  N3_9 
REMARK    4  A    between atoms: N4_11  and  C5_13 
REMARK    5  A    between atoms: C5_13  and  C6_14 
REMARK    6  A    between atoms: C5_13  and  C10_24 
REMARK    7  A    between atoms: C6_14  and  C7_15 
REMARK       I    between atoms: C10_24  and  N7_26 
REMARK    8  A    between atoms: N7_26  and  C11_28 
REMARK    9  A    between atoms: C11_28  and  C12_29 
REMARK   10  A    between atoms: C11_28  and  C15_41 
REMARK   11  A    between atoms: C13_34  and  N10_35 
REMARK   12  A    between atoms: N10_35  and  O2_37 
REMARK   13  A    between atoms: C17_44  and  N12_45 
REMARK   14  A    between atoms: C18_50  and  O3_51 
ROOT
HETATM    1  C5  UNL     1     111.932  44.717  92.550  1.00  0.00     0.197 C 
ENDROOT
BRANCH   1   2
HETATM    2  N4  UNL     1     110.803  44.337  91.769  1.00  0.00    -0.321 N 
HETATM    3  N3  UNL     1     110.770  43.388  91.006  1.00  0.00    -0.285 N 
ATOM      4  H3  UNL     1     109.871  43.277  90.538  1.00  0.00     0.188 HD
ATOM      5  H4  UNL     1     109.958  44.903  91.855  1.00  0.00     0.181 HD
BRANCH   3   6
HETATM    6  C4  UNL     1     111.704  42.421  90.640  1.00  0.00     0.174 A 
HETATM    7  N2  UNL     1     112.706  41.852  91.346  1.00  0.00    -0.317 N 
HETATM    8  C3  UNL     1     113.343  40.974  90.559  1.00  0.00     0.162 A 
ATOM      9  H2  UNL     1     112.939  42.056  92.318  1.00  0.00     0.169 HD
HETATM   10  N1  UNL     1     112.789  40.952  89.357  1.00  0.00    -0.283 N 
HETATM   11  S1  UNL     1     114.757  39.943  91.009  1.00  0.00    -0.013 SA
HETATM   12  C18 UNL     1     111.773  41.833  89.367  1.00  0.00     0.192 A 
BRANCH  10  13
HETATM   13  C2  UNL     1     113.126  40.176  88.176  1.00  0.00     0.234 C 
HETATM   14  C1  UNL     1     111.958  39.373  87.656  1.00  0.00     0.052 C 
BRANCH  13  15
HETATM   15  S4  UNL     1     113.747  41.176  86.850  1.00  0.00     0.125 S 
HETATM   16  O4  UNL     1     114.471  40.315  85.855  1.00  0.00    -0.594 OA
HETATM   17  O5  UNL     1     112.632  41.949  86.171  1.00  0.00    -0.594 OA
HETATM   18  O6  UNL     1     114.807  42.293  87.490  1.00  0.00    -0.594 OA
ENDBRANCH  13  15
ENDBRANCH  10  13
BRANCH  12  19
HETATM   19  O3  UNL     1     110.899  42.156  88.333  1.00  0.00    -0.343 OA
ATOM     20  H3  UNL     1     109.965  42.322  88.381  1.00  0.00     0.219 HD
ENDBRANCH  12  19
ENDBRANCH   3   6
ENDBRANCH   1   2
BRANCH   1  21
HETATM   21  C6  UNL     1     112.926  45.552  91.801  1.00  0.00     0.093 C 
BRANCH  21  22
HETATM   22  C7  UNL     1     114.261  44.821  91.737  1.00  0.00     0.020 A 
HETATM   23  C8  UNL     1     114.942  44.391  92.842  1.00  0.00     0.078 A 
HETATM   24  S2  UNL     1     116.307  43.627  92.160  1.00  0.00    -0.064 SA
HETATM   25  C9  UNL     1     115.943  43.892  90.521  1.00  0.00     0.142 A 
HETATM   26  N5  UNL     1     116.642  43.525  89.465  1.00  0.00    -0.380 N 
HETATM   27  N6  UNL     1     114.799  44.550  90.558  1.00  0.00    -0.340 N 
ATOM     28  H52 UNL     1     117.526  43.016  89.438  1.00  0.00     0.158 HD
ATOM     29  H51 UNL     1     116.424  43.683  88.481  1.00  0.00     0.158 HD
ATOM     30  H6  UNL     1     114.340  44.845  89.695  1.00  0.00     0.167 HD
ENDBRANCH  21  22
ENDBRANCH   1  21
BRANCH   1  31
HETATM   31  C10 UNL     1     111.414  45.545  93.706  1.00  0.00     0.243 C 
HETATM   32  O1  UNL     1     112.132  46.403  94.278  1.00  0.00    -0.271 OA
HETATM   33  N7  UNL     1     110.087  45.360  94.165  1.00  0.00    -0.342 N 
ATOM     34  H7  UNL     1     109.490  44.670  93.709  1.00  0.00     0.163 HD
BRANCH  33  35
HETATM   35  C11 UNL     1     109.566  46.132  95.270  1.00  0.00     0.204 C 
BRANCH  35  36
HETATM   36  C12 UNL     1     108.360  46.907  94.859  1.00  0.00     0.127 A 
HETATM   37  N8  UNL     1     107.761  47.894  95.585  1.00  0.00    -0.284 N 
HETATM   38  N9  UNL     1     106.716  48.368  94.925  1.00  0.00    -0.273 N 
ATOM     39  H8  UNL     1     108.072  48.220  96.501  1.00  0.00     0.188 HD
HETATM   40  C13 UNL     1     106.614  47.711  93.776  1.00  0.00     0.199 A 
ATOM     41  H9  UNL     1     106.095  49.111  95.244  1.00  0.00     0.189 HD
HETATM   42  N11 UNL     1     107.621  46.820  93.742  1.00  0.00    -0.316 N 
ATOM     43  H11 UNL     1     107.798  46.170  92.975  1.00  0.00     0.170 HD
BRANCH  40  44
HETATM   44  N10 UNL     1     105.629  47.929  92.797  1.00  0.00    -0.136 NA
HETATM   45  C14 UNL     1     104.303  47.721  93.350  1.00  0.00     0.153 C 
BRANCH  44  46
HETATM   46  O2  UNL     1     105.737  47.078  91.744  1.00  0.00    -0.306 OA
ATOM     47  H2  UNL     1     104.899  46.724  91.470  1.00  0.00     0.237 HD
ENDBRANCH  44  46
ENDBRANCH  40  44
ENDBRANCH  35  36
BRANCH  35  48
HETATM   48  C15 UNL     1     109.115  45.188  96.379  1.00  0.00     0.048 A 
HETATM   49  C16 UNL     1     110.016  44.706  97.283  1.00  0.00     0.081 A 
HETATM   50  S3  UNL     1     109.038  43.726  98.278  1.00  0.00    -0.064 SA
HETATM   51  C17 UNL     1     107.548  43.984  97.492  1.00  0.00     0.142 A 
HETATM   52  N13 UNL     1     107.867  44.813  96.500  1.00  0.00    -0.338 N 
ATOM     53  H13 UNL     1     107.155  45.147  95.848  1.00  0.00     0.168 HD
BRANCH  51  54
HETATM   54  N12 UNL     1     106.356  43.500  97.770  1.00  0.00    -0.380 N 
ATOM     55 2H12 UNL     1     105.981  42.592  97.495  1.00  0.00     0.158 HD
ATOM     56 1H12 UNL     1     105.590  43.919  98.297  1.00  0.00     0.158 HD
ENDBRANCH  51  54
ENDBRANCH  35  48
ENDBRANCH  33  35
ENDBRANCH   1  31
TORSDOF 14
ENDMDL
MODEL 3
REMARK VINA RESULT: -8.537404078      1.654      3.136
REMARK  14 active torsions:
REMARK  status: ('A' for Active; 'I' for Inactive)
REMARK    1  A    between atoms: C2_2  and  N1_3 
REMARK    2  A    between atoms: C2_2  and  S4_53 
REMARK    3  A    between atoms: C4_8  and  N3_9 
REMARK    4  A    between atoms: N4_11  and  C5_13 
REMARK    5  A    between atoms: C5_13  and  C6_14 
REMARK    6  A    between atoms: C5_13  and  C10_24 
REMARK    7  A    between atoms: C6_14  and  C7_15 
REMARK       I    between atoms: C10_24  and  N7_26 
REMARK    8  A    between atoms: N7_26  and  C11_28 
REMARK    9  A    between atoms: C11_28  and  C12_29 
REMARK   10  A    between atoms: C11_28  and  C15_41 
REMARK   11  A    between atoms: C13_34  and  N10_35 
REMARK   12  A    between atoms: N10_35  and  O2_37 
REMARK   13  A    between atoms: C17_44  and  N12_45 
REMARK   14  A    between atoms: C18_50  and  O3_51 
ROOT
HETATM    1  C5  UNL     1     112.098  43.871  91.936  1.00  0.00     0.197 C 
ENDROOT
BRANCH   1   2
HETATM    2  N4  UNL     1     111.045  43.280  91.182  1.00  0.00    -0.321 N 
HETATM    3  N3  UNL     1     111.151  42.271  90.507  1.00  0.00    -0.285 N 
ATOM      4  H3  UNL     1     110.283  42.003  90.043  1.00  0.00     0.188 HD
ATOM      5  H4  UNL     1     110.132  43.735  91.210  1.00  0.00     0.181 HD
BRANCH   3   6
HETATM    6  C4  UNL     1     112.209  41.407  90.235  1.00  0.00     0.174 A 
HETATM    7  N2  UNL     1     113.063  40.772  91.069  1.00  0.00    -0.317 N 
HETATM    8  C3  UNL     1     113.923  40.051  90.337  1.00  0.00     0.162 A 
ATOM      9  H2  UNL     1     113.055  40.832  92.087  1.00  0.00     0.169 HD
HETATM   10  N1  UNL     1     113.658  40.195  89.047  1.00  0.00    -0.283 N 
HETATM   11  S1  UNL     1     115.268  39.014  90.954  1.00  0.00    -0.013 SA
HETATM   12  C18 UNL     1     112.606  41.026  88.944  1.00  0.00     0.192 A 
BRANCH  10  13
HETATM   13  C2  UNL     1     114.307  39.624  87.880  1.00  0.00     0.234 C 
HETATM   14  C1  UNL     1     113.434  38.623  87.161  1.00  0.00     0.052 C 
BRANCH  13  15
HETATM   15  S4  UNL     1     114.824  40.852  86.711  1.00  0.00     0.125 S 
HETATM   16  O4  UNL     1     113.911  40.839  85.517  1.00  0.00    -0.594 OA
HETATM   17  O5  UNL     1     114.857  42.233  87.338  1.00  0.00    -0.594 OA
HETATM   18  O6  UNL     1     116.377  40.490  86.223  1.00  0.00    -0.594 OA
ENDBRANCH  13  15
ENDBRANCH  10  13
BRANCH  12  19
HETATM   19  O3  UNL     1     111.968  41.473  87.791  1.00  0.00    -0.343 OA
ATOM     20  H3  UNL     1     111.056  41.371  87.545  1.00  0.00     0.219 HD
ENDBRANCH  12  19
ENDBRANCH   3   6
ENDBRANCH   1   2
BRANCH   1  21
HETATM   21  C6  UNL     1     113.137  44.544  91.090  1.00  0.00     0.093 C 
BRANCH  21  22
HETATM   22  C7  UNL     1     114.471  43.826  91.253  1.00  0.00     0.020 A 
HETATM   23  C8  UNL     1     114.975  43.432  92.462  1.00  0.00     0.078 A 
HETATM   24  S2  UNL     1     116.435  42.667  92.021  1.00  0.00    -0.064 SA
HETATM   25  C9  UNL     1     116.329  42.888  90.338  1.00  0.00     0.142 A 
HETATM   26  N5  UNL     1     117.187  42.503  89.414  1.00  0.00    -0.380 N 
HETATM   27  N6  UNL     1     115.188  43.534  90.179  1.00  0.00    -0.340 N 
ATOM     28  H52 UNL     1     118.068  42.004  89.537  1.00  0.00     0.158 HD
ATOM     29  H51 UNL     1     117.123  42.635  88.404  1.00  0.00     0.158 HD
ATOM     30  H6  UNL     1     114.867  43.802  89.249  1.00  0.00     0.167 HD
ENDBRANCH  21  22
ENDBRANCH   1  21
BRANCH   1  31
HETATM   31  C10 UNL     1     111.473  44.926  92.822  1.00  0.00     0.243 C 
HETATM   32  O1  UNL     1     112.137  45.900  93.259  1.00  0.00    -0.271 OA
HETATM   33  N7  UNL     1     110.105  44.826  93.176  1.00  0.00    -0.342 N 
ATOM     34  H7  UNL     1     109.552  44.044  92.827  1.00  0.00     0.163 HD
BRANCH  33  35
HETATM   35  C11 UNL     1     109.482  45.816  94.026  1.00  0.00     0.204 C 
BRANCH  35  36
HETATM   36  C12 UNL     1     108.182  46.270  93.452  1.00  0.00     0.127 A 
HETATM   37  N8  UNL     1     107.537  45.705  92.392  1.00  0.00    -0.284 N 
HETATM   38  N9  UNL     1     106.411  46.357  92.150  1.00  0.00    -0.273 N 
ATOM     39  H8  UNL     1     107.872  44.899  91.863  1.00  0.00     0.188 HD
HETATM   40  C13 UNL     1     106.300  47.343  93.032  1.00  0.00     0.199 A 
ATOM     41  H9  UNL     1     105.742  46.139  91.412  1.00  0.00     0.189 HD
HETATM   42  N11 UNL     1     107.385  47.285  93.825  1.00  0.00    -0.316 N 
ATOM     43  H11 UNL     1     107.575  47.920  94.599  1.00  0.00     0.170 HD
BRANCH  40  44
HETATM   44  N10 UNL     1     105.236  48.259  93.101  1.00  0.00    -0.136 NA
HETATM   45  C14 UNL     1     104.404  47.991  94.259  1.00  0.00     0.153 C 
BRANCH  44  46
HETATM   46  O2  UNL     1     104.414  48.192  92.022  1.00  0.00    -0.306 OA
ATOM     47  H2  UNL     1     104.687  48.766  91.316  1.00  0.00     0.237 HD
ENDBRANCH  44  46
ENDBRANCH  40  44
ENDBRANCH  35  36
BRANCH  35  48
HETATM   48  C15 UNL     1     109.161  45.192  95.379  1.00  0.00     0.048 A 
HETATM   49  C16 UNL     1     109.824  45.598  96.501  1.00  0.00     0.081 A 
HETATM   50  S3  UNL     1     109.120  44.622  97.708  1.00  0.00    -0.064 SA
HETATM   51  C17 UNL     1     108.029  43.758  96.723  1.00  0.00     0.142 A 
HETATM   52  N13 UNL     1     108.253  44.258  95.510  1.00  0.00    -0.338 N 
ATOM     53  H13 UNL     1     107.730  43.921  94.701  1.00  0.00     0.168 HD
BRANCH  51  54
HETATM   54  N12 UNL     1     107.164  42.821  97.049  1.00  0.00    -0.380 N 
ATOM     55 2H12 UNL     1     106.564  42.797  97.874  1.00  0.00     0.158 HD
ATOM     56 1H12 UNL     1     106.926  41.957  96.561  1.00  0.00     0.158 HD
ENDBRANCH  51  54
ENDBRANCH  35  48
ENDBRANCH  33  35
ENDBRANCH   1  31
TORSDOF 14
ENDMDL
MODEL 4
REMARK VINA RESULT: -8.401274791      1.867      3.553
REMARK  14 active torsions:
REMARK  status: ('A' for Active; 'I' for Inactive)
REMARK    1  A    between atoms: C2_2  and  N1_3 
REMARK    2  A    between atoms: C2_2  and  S4_53 
REMARK    3  A    between atoms: C4_8  and  N3_9 
REMARK    4  A    between atoms: N4_11  and  C5_13 
REMARK    5  A    between atoms: C5_13  and  C6_14 
REMARK    6  A    between atoms: C5_13  and  C10_24 
REMARK    7  A    between atoms: C6_14  and  C7_15 
REMARK       I    between atoms: C10_24  and  N7_26 
REMARK    8  A    between atoms: N7_26  and  C11_28 
REMARK    9  A    between atoms: C11_28  and  C12_29 
REMARK   10  A    between atoms: C11_28  and  C15_41 
REMARK   11  A    between atoms: C13_34  and  N10_35 
REMARK   12  A    between atoms: N10_35  and  O2_37 
REMARK   13  A    between atoms: C17_44  and  N12_45 
REMARK   14  A    between atoms: C18_50  and  O3_51 
ROOT
HETATM    1  C5  UNL     1     111.928  43.311  91.878  1.00  0.00     0.197 C 
ENDROOT
BRANCH   1   2
HETATM    2  N4  UNL     1     110.920  42.880  90.969  1.00  0.00    -0.321 N 
HETATM    3  N3  UNL     1     111.038  41.954  90.185  1.00  0.00    -0.285 N 
ATOM      4  H3  UNL     1     110.204  41.797  89.619  1.00  0.00     0.188 HD
ATOM      5  H4  UNL     1     110.034  43.383  90.975  1.00  0.00     0.181 HD
BRANCH   3   6
HETATM    6  C4  UNL     1     112.072  41.065  89.901  1.00  0.00     0.174 A 
HETATM    7  N2  UNL     1     112.948  40.442  90.720  1.00  0.00    -0.317 N 
HETATM    8  C3  UNL     1     113.767  39.684  89.979  1.00  0.00     0.162 A 
ATOM      9  H2  UNL     1     112.981  40.534  91.736  1.00  0.00     0.169 HD
HETATM   10  N1  UNL     1     113.454  39.792  88.697  1.00  0.00    -0.283 N 
HETATM   11  S1  UNL     1     115.119  38.646  90.577  1.00  0.00    -0.013 SA
HETATM   12  C18 UNL     1     112.412  40.637  88.608  1.00  0.00     0.192 A 
BRANCH  10  13
HETATM   13  C2  UNL     1     114.048  39.175  87.524  1.00  0.00     0.234 C 
HETATM   14  C1  UNL     1     113.048  38.388  86.712  1.00  0.00     0.052 C 
BRANCH  13  15
HETATM   15  S4  UNL     1     114.835  40.349  86.453  1.00  0.00     0.125 S 
HETATM   16  O4  UNL     1     113.859  40.830  85.417  1.00  0.00    -0.594 OA
HETATM   17  O5  UNL     1     115.400  41.519  87.235  1.00  0.00    -0.594 OA
HETATM   18  O6  UNL     1     116.114  39.592  85.698  1.00  0.00    -0.594 OA
ENDBRANCH  13  15
ENDBRANCH  10  13
BRANCH  12  19
HETATM   19  O3  UNL     1     111.736  41.059  87.467  1.00  0.00    -0.343 OA
ATOM     20  H3  UNL     1     111.894  41.834  86.940  1.00  0.00     0.219 HD
ENDBRANCH  12  19
ENDBRANCH   3   6
ENDBRANCH   1   2
BRANCH   1  21
HETATM   21  C6  UNL     1     113.196  43.746  91.207  1.00  0.00     0.093 C 
BRANCH  21  22
HETATM   22  C7  UNL     1     114.385  43.415  92.100  1.00  0.00     0.020 A 
HETATM   23  C8  UNL     1     115.298  44.343  92.519  1.00  0.00     0.078 A 
HETATM   24  S2  UNL     1     116.344  43.416  93.498  1.00  0.00    -0.064 SA
HETATM   25  C9  UNL     1     115.573  41.911  93.323  1.00  0.00     0.142 A 
HETATM   26  N5  UNL     1     115.918  40.756  93.857  1.00  0.00    -0.380 N 
HETATM   27  N6  UNL     1     114.552  42.173  92.528  1.00  0.00    -0.340 N 
ATOM     28  H52 UNL     1     116.707  40.554  94.471  1.00  0.00     0.158 HD
ATOM     29  H51 UNL     1     115.456  39.853  93.753  1.00  0.00     0.158 HD
ATOM     30  H6  UNL     1     113.905  41.434  92.250  1.00  0.00     0.167 HD
ENDBRANCH  21  22
ENDBRANCH   1  21
BRANCH   1  31
HETATM   31  C10 UNL     1     111.371  44.502  92.626  1.00  0.00     0.243 C 
HETATM   32  O1  UNL     1     112.099  45.471  92.961  1.00  0.00    -0.271 OA
HETATM   33  N7  UNL     1     109.997  44.541  92.965  1.00  0.00    -0.342 N 
ATOM     34  H7  UNL     1     109.392  43.764  92.697  1.00  0.00     0.163 HD
BRANCH  33  35
HETATM   35  C11 UNL     1     109.438  45.663  93.683  1.00  0.00     0.204 C 
BRANCH  35  36
HETATM   36  C12 UNL     1     108.123  46.067  93.105  1.00  0.00     0.127 A 
HETATM   37  N8  UNL     1     107.559  45.558  91.973  1.00  0.00    -0.284 N 
HETATM   38  N9  UNL     1     106.392  46.141  91.750  1.00  0.00    -0.273 N 
ATOM     39  H8  UNL     1     107.975  44.834  91.385  1.00  0.00     0.188 HD
HETATM   40  C13 UNL     1     106.175  47.026  92.714  1.00  0.00     0.199 A 
ATOM     41  H9  UNL     1     105.766  45.943  90.969  1.00  0.00     0.189 HD
HETATM   42  N11 UNL     1     107.236  46.977  93.539  1.00  0.00    -0.316 N 
ATOM     43  H11 UNL     1     107.350  47.549  94.376  1.00  0.00     0.170 HD
BRANCH  40  44
HETATM   44  N10 UNL     1     105.039  47.846  92.826  1.00  0.00    -0.136 NA
HETATM   45  C14 UNL     1     104.883  48.321  94.189  1.00  0.00     0.153 C 
BRANCH  44  46
HETATM   46  O2  UNL     1     103.888  47.194  92.519  1.00  0.00    -0.306 OA
ATOM     47  H2  UNL     1     103.148  47.490  93.036  1.00  0.00     0.237 HD
ENDBRANCH  44  46
ENDBRANCH  40  44
ENDBRANCH  35  36
BRANCH  35  48
HETATM   48  C15 UNL     1     109.165  45.255  95.127  1.00  0.00     0.048 A 
HETATM   49  C16 UNL     1     109.812  45.880  96.154  1.00  0.00     0.081 A 
HETATM   50  S3  UNL     1     109.177  45.079  97.518  1.00  0.00    -0.064 SA
HETATM   51  C17 UNL     1     108.132  44.002  96.709  1.00  0.00     0.142 A 
HETATM   52  N13 UNL     1     108.316  44.305  95.426  1.00  0.00    -0.338 N 
ATOM     53  H13 UNL     1     107.807  43.808  94.694  1.00  0.00     0.168 HD
BRANCH  51  54
HETATM   54  N12 UNL     1     107.327  43.083  97.201  1.00  0.00    -0.380 N 
ATOM     55 2H12 UNL     1     106.731  43.164  98.025  1.00  0.00     0.158 HD
ATOM     56 1H12 UNL     1     107.142  42.136  96.871  1.00  0.00     0.158 HD
ENDBRANCH  51  54
ENDBRANCH  35  48
ENDBRANCH  33  35
ENDBRANCH   1  31
TORSDOF 14
ENDMDL
MODEL 5
REMARK VINA RESULT: -8.229607325      1.878      3.400
REMARK  14 active torsions:
REMARK  status: ('A' for Active; 'I' for Inactive)
REMARK    1  A    between atoms: C2_2  and  N1_3 
REMARK    2  A    between atoms: C2_2  and  S4_53 
REMARK    3  A    between atoms: C4_8  and  N3_9 
REMARK    4  A    between atoms: N4_11  and  C5_13 
REMARK    5  A    between atoms: C5_13  and  C6_14 
REMARK    6  A    between atoms: C5_13  and  C10_24 
REMARK    7  A    between atoms: C6_14  and  C7_15 
REMARK       I    between atoms: C10_24  and  N7_26 
REMARK    8  A    between atoms: N7_26  and  C11_28 
REMARK    9  A    between atoms: C11_28  and  C12_29 
REMARK   10  A    between atoms: C11_28  and  C15_41 
REMARK   11  A    between atoms: C13_34  and  N10_35 
REMARK   12  A    between atoms: N10_35  and  O2_37 
REMARK   13  A    between atoms: C17_44  and  N12_45 
REMARK   14  A    between atoms: C18_50  and  O3_51 
ROOT
HETATM    1  C5  UNL     1     112.220  43.075  91.632  1.00  0.00     0.197 C 
ENDROOT
BRANCH   1   2
HETATM    2  N4  UNL     1     111.292  42.652  90.638  1.00  0.00    -0.321 N 
HETATM    3  N3  UNL     1     111.564  41.940  89.688  1.00  0.00    -0.285 N 
ATOM      4  H3  UNL     1     110.763  41.745  89.087  1.00  0.00     0.188 HD
ATOM      5  H4  UNL     1     110.327  42.970  90.729  1.00  0.00     0.181 HD
BRANCH   3   6
HETATM    6  C4  UNL     1     112.740  41.334  89.250  1.00  0.00     0.174 A 
HETATM    7  N2  UNL     1     113.540  41.621  88.199  1.00  0.00    -0.317 N 
HETATM    8  C3  UNL     1     114.558  40.750  88.182  1.00  0.00     0.162 A 
ATOM      9  H2  UNL     1     113.394  42.377  87.530  1.00  0.00     0.169 HD
HETATM   10  N1  UNL     1     114.448  39.899  89.190  1.00  0.00    -0.283 N 
HETATM   11  S1  UNL     1     115.912  40.689  86.987  1.00  0.00    -0.013 SA
HETATM   12  C18 UNL     1     113.337  40.227  89.874  1.00  0.00     0.192 A 
BRANCH  10  13
HETATM   13  C2  UNL     1     115.294  38.786  89.583  1.00  0.00     0.234 C 
HETATM   14  C1  UNL     1     115.570  37.835  88.443  1.00  0.00     0.052 C 
BRANCH  13  15
HETATM   15  S4  UNL     1     116.847  39.307  90.262  1.00  0.00     0.125 S 
HETATM   16  O4  UNL     1     117.971  38.861  89.370  1.00  0.00    -0.594 OA
HETATM   17  O5  UNL     1     116.888  40.812  90.455  1.00  0.00    -0.594 OA
HETATM   18  O6  UNL     1     117.022  38.607  91.765  1.00  0.00    -0.594 OA
ENDBRANCH  13  15
ENDBRANCH  10  13
BRANCH  12  19
HETATM   19  O3  UNL     1     112.811  39.621  91.010  1.00  0.00    -0.343 OA
ATOM     20  H3  UNL     1     113.081  39.729  91.915  1.00  0.00     0.219 HD
ENDBRANCH  12  19
ENDBRANCH   3   6
ENDBRANCH   1   2
BRANCH   1  21
HETATM   21  C6  UNL     1     113.582  43.386  91.089  1.00  0.00     0.093 C 
BRANCH  21  22
HETATM   22  C7  UNL     1     114.637  43.062  92.139  1.00  0.00     0.020 A 
HETATM   23  C8  UNL     1     115.398  44.011  92.765  1.00  0.00     0.078 A 
HETATM   24  S2  UNL     1     116.344  43.078  93.835  1.00  0.00    -0.064 SA
HETATM   25  C9  UNL     1     115.728  41.545  93.434  1.00  0.00     0.142 A 
HETATM   26  N5  UNL     1     116.072  40.375  93.937  1.00  0.00    -0.380 N 
HETATM   27  N6  UNL     1     114.828  41.803  92.502  1.00  0.00    -0.340 N 
ATOM     28  H52 UNL     1     116.767  40.176  94.656  1.00  0.00     0.158 HD
ATOM     29  H51 UNL     1     115.702  39.455  93.696  1.00  0.00     0.158 HD
ATOM     30  H6  UNL     1     114.293  41.049  92.072  1.00  0.00     0.167 HD
ENDBRANCH  21  22
ENDBRANCH   1  21
BRANCH   1  31
HETATM   31  C10 UNL     1     111.668  44.344  92.245  1.00  0.00     0.243 C 
HETATM   32  O1  UNL     1     112.261  45.446  92.127  1.00  0.00    -0.271 OA
HETATM   33  N7  UNL     1     110.454  44.303  92.972  1.00  0.00    -0.342 N 
ATOM     34  H7  UNL     1     109.959  43.417  93.073  1.00  0.00     0.163 HD
BRANCH  33  35
HETATM   35  C11 UNL     1     109.905  45.498  93.572  1.00  0.00     0.204 C 
BRANCH  35  36
HETATM   36  C12 UNL     1     108.684  45.950  92.844  1.00  0.00     0.127 A 
HETATM   37  N8  UNL     1     108.398  45.700  91.534  1.00  0.00    -0.284 N 
HETATM   38  N9  UNL     1     107.236  46.247  91.215  1.00  0.00    -0.273 N 
ATOM     39  H8  UNL     1     108.992  45.170  90.896  1.00  0.00     0.188 HD
HETATM   40  C13 UNL     1     106.749  46.854  92.290  1.00  0.00     0.199 A 
ATOM     41  H9  UNL     1     106.790  46.209  90.298  1.00  0.00     0.189 HD
HETATM   42  N11 UNL     1     107.638  46.669  93.283  1.00  0.00    -0.316 N 
ATOM     43  H11 UNL     1     107.533  47.024  94.233  1.00  0.00     0.170 HD
BRANCH  40  44
HETATM   44  N10 UNL     1     105.529  47.549  92.351  1.00  0.00    -0.136 NA
HETATM   45  C14 UNL     1     105.185  47.861  93.726  1.00  0.00     0.153 C 
BRANCH  44  46
HETATM   46  O2  UNL     1     104.489  46.830  91.855  1.00  0.00    -0.306 OA
ATOM     47  H2  UNL     1     103.765  46.761  92.467  1.00  0.00     0.237 HD
ENDBRANCH  44  46
ENDBRANCH  40  44
ENDBRANCH  35  36
BRANCH  35  48
HETATM   48  C15 UNL     1     109.466  45.191  95.000  1.00  0.00     0.048 A 
HETATM   49  C16 UNL     1     110.011  45.872  96.050  1.00  0.00     0.081 A 
HETATM   50  S3  UNL     1     109.211  45.175  97.384  1.00  0.00    -0.064 SA
HETATM   51  C17 UNL     1     108.235  44.064  96.535  1.00  0.00     0.142 A 
HETATM   52  N13 UNL     1     108.566  44.278  95.263  1.00  0.00    -0.338 N 
ATOM     53  H13 UNL     1     108.129  43.743  94.512  1.00  0.00     0.168 HD
BRANCH  51  54
HETATM   54  N12 UNL     1     107.359  43.194  96.992  1.00  0.00    -0.380 N 
ATOM     55 2H12 UNL     1     106.556  42.810  96.493  1.00  0.00     0.158 HD
ATOM     56 1H12 UNL     1     107.305  42.743  97.905  1.00  0.00     0.158 HD
ENDBRANCH  51  54
ENDBRANCH  35  48
ENDBRANCH  33  35
ENDBRANCH   1  31
TORSDOF 14
ENDMDL
