MODEL 1
REMARK VINA RESULT: -8.810909809      0.000      0.000
REMARK  22 active torsions:
REMARK  status: ('A' for Active; 'I' for Inactive)
REMARK    1  A    between atoms: C2_2  and  O2_4 
REMARK    2  A    between atoms: O2_4  and  C3_5 
REMARK    3  A    between atoms: C3_5  and  O3_7 
REMARK    4  A    between atoms: O3_7  and  C5_8 
REMARK    5  A    between atoms: C5_8  and  C6_10 
REMARK    6  A    between atoms: C7_11  and  C8_12 
REMARK    7  A    between atoms: C8_12  and  O5_13 
REMARK    8  A    between atoms: C8_12  and  O6_15 
REMARK    9  A    between atoms: O6_15  and  C9_16 
REMARK   10  A    between atoms: C9_16  and  C10_17 
REMARK   11  A    between atoms: C10_17  and  O7_18 
REMARK   12  A    between atoms: C10_17  and  C19_42 
REMARK   13  A    between atoms: O7_18  and  C11_19 
REMARK   14  A    between atoms: C11_19  and  C12_21 
REMARK   15  A    between atoms: C13_23  and  C14_24 
REMARK   16  A    between atoms: C16_30  and  N3_31 
REMARK   17  A    between atoms: C17_36  and  O10_37 
REMARK   18  A    between atoms: C18_39  and  O11_40 
REMARK   19  A    between atoms: C19_42  and  O13_44 
REMARK   20  A    between atoms: O13_44  and  C20_45 
REMARK   21  A    between atoms: C24_51  and  O14_52 
REMARK   22  A    between atoms: C25_54  and  O15_55 
ROOT
HETATM    1  C10 UNL     1     110.905  43.924  91.904  1.00  0.00     0.256 C 
ENDROOT
BRANCH   1   2
HETATM    2  C9  UNL     1     110.981  42.840  90.841  1.00  0.00     0.214 C 
BRANCH   2   3
HETATM    3  O6  UNL     1     111.412  41.629  91.307  1.00  0.00    -0.353 OA
BRANCH   3   4
HETATM    4  C8  UNL     1     111.796  40.810  90.245  1.00  0.00     0.309 C 
BRANCH   4   5
HETATM    5  C7  UNL     1     113.082  41.267  89.678  1.00  0.00     0.086 A 
HETATM    6  C6  UNL     1     113.465  41.409  88.379  1.00  0.00     0.104 A 
HETATM    7  C25 UNL     1     114.792  41.827  88.373  1.00  0.00     0.135 A 
HETATM    8  C24 UNL     1     115.201  41.938  89.712  1.00  0.00     0.175 A 
HETATM    9  N5  UNL     1     114.160  41.597  90.469  1.00  0.00    -0.333 N 
ATOM     10  H5  UNL     1     114.160  41.583  91.489  1.00  0.00     0.168 HD
BRANCH   6  11
HETATM   11  C5  UNL     1     112.621  41.173  87.205  1.00  0.00     0.300 C 
HETATM   12  O4  UNL     1     112.428  42.002  86.280  1.00  0.00    -0.259 OA
BRANCH  11  13
HETATM   13  O3  UNL     1     111.932  39.966  87.005  1.00  0.00    -0.285 OA
BRANCH  13  14
HETATM   14  C3  UNL     1     112.501  38.832  86.392  1.00  0.00     0.275 C 
HETATM   15  C4  UNL     1     111.572  37.616  86.556  1.00  0.00     0.071 C 
BRANCH  14  16
HETATM   16  O2  UNL     1     113.796  38.537  86.796  1.00  0.00    -0.290 OA
BRANCH  16  17
HETATM   17  C2  UNL     1     114.866  38.903  85.976  1.00  0.00     0.257 C 
HETATM   18  C1  UNL     1     116.272  38.759  86.433  1.00  0.00     0.126 C 
HETATM   19  O1  UNL     1     114.668  39.364  84.825  1.00  0.00    -0.266 OA
ENDBRANCH  16  17
ENDBRANCH  14  16
ENDBRANCH  13  14
ENDBRANCH  11  13
ENDBRANCH   6  11
BRANCH   7  20
HETATM   20  O15 UNL     1     115.583  42.093  87.275  1.00  0.00    -0.356 OA
ATOM     21  H15 UNL     1     116.280  41.553  86.920  1.00  0.00     0.218 HD
ENDBRANCH   7  20
BRANCH   8  22
HETATM   22  O14 UNL     1     116.462  42.330  90.118  1.00  0.00    -0.344 OA
ATOM     23  H14 UNL     1     116.717  43.138  90.549  1.00  0.00     0.219 HD
ENDBRANCH   8  22
ENDBRANCH   4   5
BRANCH   4  24
HETATM   24  O5  UNL     1     111.846  39.521  90.792  1.00  0.00    -0.366 OA
ATOM     25  H5  UNL     1     111.327  38.883  90.317  1.00  0.00     0.213 HD
ENDBRANCH   4  24
ENDBRANCH   3   4
ENDBRANCH   2   3
ENDBRANCH   1   2
BRANCH   1  26
HETATM   26  O7  UNL     1     110.004  44.949  91.450  1.00  0.00    -0.298 OA
BRANCH  26  27
HETATM   27  C11 UNL     1     108.688  44.954  91.872  1.00  0.00     0.321 C 
HETATM   28  O8  UNL     1     107.951  44.006  91.458  1.00  0.00    -0.257 OA
BRANCH  27  29
HETATM   29  C12 UNL     1     108.125  45.963  92.742  1.00  0.00     0.187 A 
HETATM   30  O9  UNL     1     106.899  46.485  92.648  1.00  0.00    -0.296 OA
HETATM   31  C13 UNL     1     106.691  47.368  93.573  1.00  0.00     0.143 A 
HETATM   32  C17 UNL     1     107.811  47.484  94.362  1.00  0.00     0.138 A 
HETATM   33  C18 UNL     1     108.720  46.577  93.815  1.00  0.00     0.142 A 
BRANCH  31  34
HETATM   34  C14 UNL     1     105.471  48.163  93.805  1.00  0.00     0.116 A 
HETATM   35  N1  UNL     1     105.250  49.062  94.771  1.00  0.00    -0.347 N 
HETATM   36  C15 UNL     1     104.000  49.560  94.618  1.00  0.00     0.182 A 
ATOM     37  H1  UNL     1     105.912  49.328  95.501  1.00  0.00     0.167 HD
HETATM   38  N2  UNL     1     103.418  48.984  93.557  1.00  0.00    -0.336 N 
HETATM   39  C16 UNL     1     104.305  48.125  93.047  1.00  0.00     0.150 A 
ATOM     40  H2  UNL     1     102.478  49.166  93.206  1.00  0.00     0.168 HD
BRANCH  39  41
HETATM   41  N3  UNL     1     104.145  47.277  91.914  1.00  0.00    -0.290 N 
HETATM   42  N4  UNL     1     104.584  47.629  90.768  1.00  0.00    -0.344 N 
ATOM     43  H42 UNL     1     105.052  48.531  90.680  1.00  0.00     0.176 HD
ATOM     44  H41 UNL     1     104.470  47.021  89.957  1.00  0.00     0.176 HD
ATOM     45  H3  UNL     1     103.675  46.377  92.019  1.00  0.00     0.188 HD
ENDBRANCH  39  41
ENDBRANCH  31  34
BRANCH  32  46
HETATM   46  O10 UNL     1     108.070  48.284  95.460  1.00  0.00    -0.356 OA
ATOM     47  H10 UNL     1     107.550  48.472  96.232  1.00  0.00     0.218 HD
ENDBRANCH  32  46
BRANCH  33  48
HETATM   48  O11 UNL     1     109.983  46.353  94.284  1.00  0.00    -0.355 OA
ATOM     49  H11 UNL     1     110.280  46.454  95.181  1.00  0.00     0.218 HD
ENDBRANCH  33  48
ENDBRANCH  27  29
ENDBRANCH  26  27
ENDBRANCH   1  26
BRANCH   1  50
HETATM   50  C19 UNL     1     112.202  44.576  92.171  1.00  0.00     0.295 C 
HETATM   51  O12 UNL     1     112.264  45.818  92.375  1.00  0.00    -0.262 OA
BRANCH  50  52
HETATM   52  O13 UNL     1     113.382  43.874  92.209  1.00  0.00    -0.289 OA
BRANCH  52  53
HETATM   53  C20 UNL     1     114.574  44.539  92.416  1.00  0.00     0.147 C 
HETATM   54  C21 UNL     1     115.580  43.961  93.041  1.00  0.00    -0.065 C 
HETATM   55  C22 UNL     1     116.833  44.716  93.237  1.00  0.00     0.045 C 
HETATM   56  C23 UNL     1     115.464  42.577  93.541  1.00  0.00     0.045 C 
ENDBRANCH  52  53
ENDBRANCH  50  52
ENDBRANCH   1  50
TORSDOF 22
ENDMDL
MODEL 2
REMARK VINA RESULT: -8.807364011      2.559     10.171
REMARK  22 active torsions:
REMARK  status: ('A' for Active; 'I' for Inactive)
REMARK    1  A    between atoms: C2_2  and  O2_4 
REMARK    2  A    between atoms: O2_4  and  C3_5 
REMARK    3  A    between atoms: C3_5  and  O3_7 
REMARK    4  A    between atoms: O3_7  and  C5_8 
REMARK    5  A    between atoms: C5_8  and  C6_10 
REMARK    6  A    between atoms: C7_11  and  C8_12 
REMARK    7  A    between atoms: C8_12  and  O5_13 
REMARK    8  A    between atoms: C8_12  and  O6_15 
REMARK    9  A    between atoms: O6_15  and  C9_16 
REMARK   10  A    between atoms: C9_16  and  C10_17 
REMARK   11  A    between atoms: C10_17  and  O7_18 
REMARK   12  A    between atoms: C10_17  and  C19_42 
REMARK   13  A    between atoms: O7_18  and  C11_19 
REMARK   14  A    between atoms: C11_19  and  C12_21 
REMARK   15  A    between atoms: C13_23  and  C14_24 
REMARK   16  A    between atoms: C16_30  and  N3_31 
REMARK   17  A    between atoms: C17_36  and  O10_37 
REMARK   18  A    between atoms: C18_39  and  O11_40 
REMARK   19  A    between atoms: C19_42  and  O13_44 
REMARK   20  A    between atoms: O13_44  and  C20_45 
REMARK   21  A    between atoms: C24_51  and  O14_52 
REMARK   22  A    between atoms: C25_54  and  O15_55 
ROOT
HETATM    1  C10 UNL     1     110.820  45.630  91.609  1.00  0.00     0.256 C 
ENDROOT
BRANCH   1   2
HETATM    2  C9  UNL     1     109.783  46.620  92.114  1.00  0.00     0.214 C 
BRANCH   2   3
HETATM    3  O6  UNL     1     108.556  46.495  91.523  1.00  0.00    -0.353 OA
BRANCH   3   4
HETATM    4  C8  UNL     1     107.678  45.814  92.366  1.00  0.00     0.309 C 
BRANCH   4   5
HETATM    5  C7  UNL     1     106.699  46.751  92.957  1.00  0.00     0.086 A 
HETATM    6  C6  UNL     1     106.623  47.257  94.218  1.00  0.00     0.104 A 
HETATM    7  C25 UNL     1     105.489  48.061  94.285  1.00  0.00     0.135 A 
HETATM    8  C24 UNL     1     104.879  48.027  93.019  1.00  0.00     0.175 A 
HETATM    9  N5  UNL     1     105.623  47.238  92.247  1.00  0.00    -0.333 N 
ATOM     10  H5  UNL     1     105.426  47.024  91.269  1.00  0.00     0.168 HD
BRANCH   6  11
HETATM   11  C5  UNL     1     107.577  47.007  95.302  1.00  0.00     0.300 C 
HETATM   12  O4  UNL     1     107.899  47.842  96.184  1.00  0.00    -0.259 OA
BRANCH  11  13
HETATM   13  O3  UNL     1     108.233  45.775  95.455  1.00  0.00    -0.285 OA
BRANCH  13  14
HETATM   14  C3  UNL     1     108.402  45.126  96.694  1.00  0.00     0.275 C 
HETATM   15  C4  UNL     1     109.858  45.264  97.173  1.00  0.00     0.071 C 
BRANCH  14  16
HETATM   16  O2  UNL     1     107.984  43.802  96.722  1.00  0.00    -0.290 OA
BRANCH  16  17
HETATM   17  C2  UNL     1     107.422  43.290  97.893  1.00  0.00     0.257 C 
HETATM   18  C1  UNL     1     108.259  42.619  98.921  1.00  0.00     0.126 C 
HETATM   19  O1  UNL     1     106.189  43.383  98.112  1.00  0.00    -0.266 OA
ENDBRANCH  16  17
ENDBRANCH  14  16
ENDBRANCH  13  14
ENDBRANCH  11  13
ENDBRANCH   6  11
BRANCH   7  20
HETATM   20  O15 UNL     1     105.024  48.769  95.373  1.00  0.00    -0.356 OA
ATOM     21  H15 UNL     1     104.438  49.517  95.368  1.00  0.00     0.218 HD
ENDBRANCH   7  20
BRANCH   8  22
HETATM   22  O14 UNL     1     103.722  48.704  92.687  1.00  0.00    -0.344 OA
ATOM     23  H14 UNL     1     103.635  49.533  92.230  1.00  0.00     0.219 HD
ENDBRANCH   8  22
ENDBRANCH   4   5
BRANCH   4  24
HETATM   24  O5  UNL     1     107.099  44.829  91.555  1.00  0.00    -0.366 OA
ATOM     25  H5  UNL     1     106.571  45.178  90.847  1.00  0.00     0.213 HD
ENDBRANCH   4  24
ENDBRANCH   3   4
ENDBRANCH   2   3
ENDBRANCH   1   2
BRANCH   1  26
HETATM   26  O7  UNL     1     110.292  44.300  91.752  1.00  0.00    -0.298 OA
BRANCH  26  27
HETATM   27  C11 UNL     1     110.183  43.473  90.650  1.00  0.00     0.321 C 
HETATM   28  O8  UNL     1     109.152  43.620  89.923  1.00  0.00    -0.257 OA
BRANCH  27  29
HETATM   29  C12 UNL     1     111.166  42.473  90.293  1.00  0.00     0.187 A 
HETATM   30  O9  UNL     1     111.284  41.878  89.103  1.00  0.00    -0.296 OA
HETATM   31  C13 UNL     1     112.260  41.027  89.097  1.00  0.00     0.143 A 
HETATM   32  C17 UNL     1     112.867  41.010  90.330  1.00  0.00     0.138 A 
HETATM   33  C18 UNL     1     112.153  41.944  91.084  1.00  0.00     0.142 A 
BRANCH  31  34
HETATM   34  C14 UNL     1     112.708  40.174  87.980  1.00  0.00     0.116 A 
HETATM   35  N1  UNL     1     112.291  38.940  87.673  1.00  0.00    -0.347 N 
HETATM   36  C15 UNL     1     112.958  38.522  86.571  1.00  0.00     0.182 A 
ATOM     37  H1  UNL     1     111.588  38.405  88.183  1.00  0.00     0.167 HD
HETATM   38  N2  UNL     1     113.802  39.483  86.170  1.00  0.00    -0.336 N 
HETATM   39  C16 UNL     1     113.661  40.503  87.022  1.00  0.00     0.150 A 
ATOM     40  H2  UNL     1     114.431  39.444  85.368  1.00  0.00     0.168 HD
BRANCH  39  41
HETATM   41  N3  UNL     1     114.348  41.751  87.009  1.00  0.00    -0.290 N 
HETATM   42  N4  UNL     1     115.543  41.843  87.448  1.00  0.00    -0.344 N 
ATOM     43  H42 UNL     1     115.997  41.004  87.808  1.00  0.00     0.176 HD
ATOM     44  H41 UNL     1     116.035  42.737  87.438  1.00  0.00     0.176 HD
ATOM     45  H3  UNL     1     113.879  42.581  86.644  1.00  0.00     0.188 HD
ENDBRANCH  39  41
ENDBRANCH  31  34
BRANCH  32  46
HETATM   46  O10 UNL     1     113.939  40.277  90.806  1.00  0.00    -0.356 OA
ATOM     47  H10 UNL     1     114.685  39.899  90.356  1.00  0.00     0.218 HD
ENDBRANCH  32  46
BRANCH  33  48
HETATM   48  O11 UNL     1     112.411  42.260  92.387  1.00  0.00    -0.355 OA
ATOM     49  H11 UNL     1     113.035  41.832  92.961  1.00  0.00     0.218 HD
ENDBRANCH  33  48
ENDBRANCH  27  29
ENDBRANCH  26  27
ENDBRANCH   1  26
BRANCH   1  50
HETATM   50  C19 UNL     1     112.090  45.675  92.360  1.00  0.00     0.295 C 
HETATM   51  O12 UNL     1     112.134  46.189  93.510  1.00  0.00    -0.262 OA
BRANCH  50  52
HETATM   52  O13 UNL     1     113.261  45.170  91.853  1.00  0.00    -0.289 OA
BRANCH  52  53
HETATM   53  C20 UNL     1     114.328  44.923  92.694  1.00  0.00     0.147 C 
HETATM   54  C21 UNL     1     115.384  44.253  92.280  1.00  0.00    -0.065 C 
HETATM   55  C22 UNL     1     116.498  44.015  93.219  1.00  0.00     0.045 C 
HETATM   56  C23 UNL     1     115.461  43.744  90.896  1.00  0.00     0.045 C 
ENDBRANCH  52  53
ENDBRANCH  50  52
ENDBRANCH   1  50
TORSDOF 22
ENDMDL
MODEL 3
REMARK VINA RESULT: -8.729747359      2.404      4.696
REMARK  22 active torsions:
REMARK  status: ('A' for Active; 'I' for Inactive)
REMARK    1  A    between atoms: C2_2  and  O2_4 
REMARK    2  A    between atoms: O2_4  and  C3_5 
REMARK    3  A    between atoms: C3_5  and  O3_7 
REMARK    4  A    between atoms: O3_7  and  C5_8 
REMARK    5  A    between atoms: C5_8  and  C6_10 
REMARK    6  A    between atoms: C7_11  and  C8_12 
REMARK    7  A    between atoms: C8_12  and  O5_13 
REMARK    8  A    between atoms: C8_12  and  O6_15 
REMARK    9  A    between atoms: O6_15  and  C9_16 
REMARK   10  A    between atoms: C9_16  and  C10_17 
REMARK   11  A    between atoms: C10_17  and  O7_18 
REMARK   12  A    between atoms: C10_17  and  C19_42 
REMARK   13  A    between atoms: O7_18  and  C11_19 
REMARK   14  A    between atoms: C11_19  and  C12_21 
REMARK   15  A    between atoms: C13_23  and  C14_24 
REMARK   16  A    between atoms: C16_30  and  N3_31 
REMARK   17  A    between atoms: C17_36  and  O10_37 
REMARK   18  A    between atoms: C18_39  and  O11_40 
REMARK   19  A    between atoms: C19_42  and  O13_44 
REMARK   20  A    between atoms: O13_44  and  C20_45 
REMARK   21  A    between atoms: C24_51  and  O14_52 
REMARK   22  A    between atoms: C25_54  and  O15_55 
ROOT
HETATM    1  C10 UNL     1     110.437  47.258  93.429  1.00  0.00     0.256 C 
ENDROOT
BRANCH   1   2
HETATM    2  C9  UNL     1     111.951  47.397  93.438  1.00  0.00     0.214 C 
BRANCH   2   3
HETATM    3  O6  UNL     1     112.621  46.216  93.597  1.00  0.00    -0.353 OA
BRANCH   3   4
HETATM    4  C8  UNL     1     113.338  45.905  92.441  1.00  0.00     0.309 C 
BRANCH   4   5
HETATM    5  C7  UNL     1     113.121  44.493  92.062  1.00  0.00     0.086 A 
HETATM    6  C6  UNL     1     114.024  43.512  91.786  1.00  0.00     0.104 A 
HETATM    7  C25 UNL     1     113.312  42.369  91.436  1.00  0.00     0.135 A 
HETATM    8  C24 UNL     1     111.946  42.688  91.512  1.00  0.00     0.175 A 
HETATM    9  N5  UNL     1     111.862  43.963  91.888  1.00  0.00    -0.333 N 
ATOM     10  H5  UNL     1     110.990  44.474  92.027  1.00  0.00     0.168 HD
BRANCH   6  11
HETATM   11  C5  UNL     1     115.481  43.642  91.860  1.00  0.00     0.300 C 
HETATM   12  O4  UNL     1     116.132  43.851  92.914  1.00  0.00    -0.259 OA
BRANCH  11  13
HETATM   13  O3  UNL     1     116.302  43.541  90.725  1.00  0.00    -0.285 OA
BRANCH  13  14
HETATM   14  C3  UNL     1     117.074  42.404  90.415  1.00  0.00     0.275 C 
HETATM   15  C4  UNL     1     118.361  42.820  89.680  1.00  0.00     0.071 C 
BRANCH  14  16
HETATM   16  O2  UNL     1     116.398  41.407  89.727  1.00  0.00    -0.290 OA
BRANCH  16  17
HETATM   17  C2  UNL     1     115.874  41.688  88.463  1.00  0.00     0.257 C 
HETATM   18  C1  UNL     1     116.483  41.121  87.232  1.00  0.00     0.126 C 
HETATM   19  O1  UNL     1     114.869  42.429  88.331  1.00  0.00    -0.266 OA
ENDBRANCH  16  17
ENDBRANCH  14  16
ENDBRANCH  13  14
ENDBRANCH  11  13
ENDBRANCH   6  11
BRANCH   7  20
HETATM   20  O15 UNL     1     113.823  41.139  91.078  1.00  0.00    -0.356 OA
ATOM     21  H15 UNL     1     113.405  40.473  90.545  1.00  0.00     0.218 HD
ENDBRANCH   7  20
BRANCH   8  22
HETATM   22  O14 UNL     1     110.917  41.808  91.236  1.00  0.00    -0.344 OA
ATOM     23  H14 UNL     1     110.734  41.354  90.422  1.00  0.00     0.219 HD
ENDBRANCH   8  22
ENDBRANCH   4   5
BRANCH   4  24
HETATM   24  O5  UNL     1     112.886  46.823  91.485  1.00  0.00    -0.366 OA
ATOM     25  H5  UNL     1     113.536  47.470  91.237  1.00  0.00     0.213 HD
ENDBRANCH   4  24
ENDBRANCH   3   4
ENDBRANCH   2   3
ENDBRANCH   1   2
BRANCH   1  26
HETATM   26  O7  UNL     1     110.102  45.889  93.717  1.00  0.00    -0.298 OA
BRANCH  26  27
HETATM   27  C11 UNL     1     109.230  45.588  94.745  1.00  0.00     0.321 C 
HETATM   28  O8  UNL     1     109.450  44.516  95.389  1.00  0.00    -0.257 OA
BRANCH  27  29
HETATM   29  C12 UNL     1     108.104  46.419  95.115  1.00  0.00     0.187 A 
HETATM   30  O9  UNL     1     107.186  46.914  94.280  1.00  0.00    -0.296 OA
HETATM   31  C13 UNL     1     106.306  47.621  94.915  1.00  0.00     0.143 A 
HETATM   32  C17 UNL     1     106.602  47.633  96.258  1.00  0.00     0.138 A 
HETATM   33  C18 UNL     1     107.758  46.858  96.368  1.00  0.00     0.142 A 
BRANCH  31  34
HETATM   34  C14 UNL     1     105.141  48.330  94.353  1.00  0.00     0.116 A 
HETATM   35  N1  UNL     1     104.489  49.376  94.874  1.00  0.00    -0.347 N 
HETATM   36  C15 UNL     1     103.483  49.717  94.034  1.00  0.00     0.182 A 
ATOM     37  H1  UNL     1     104.712  49.838  95.756  1.00  0.00     0.167 HD
HETATM   38  N2  UNL     1     103.487  48.895  92.977  1.00  0.00    -0.336 N 
HETATM   39  C16 UNL     1     104.497  48.038  93.155  1.00  0.00     0.150 A 
ATOM     40  H2  UNL     1     102.843  48.917  92.186  1.00  0.00     0.168 HD
BRANCH  39  41
HETATM   41  N3  UNL     1     104.900  46.975  92.298  1.00  0.00    -0.290 N 
HETATM   42  N4  UNL     1     105.917  47.100  91.537  1.00  0.00    -0.344 N 
ATOM     43  H42 UNL     1     106.436  47.978  91.555  1.00  0.00     0.176 HD
ATOM     44  H41 UNL     1     106.207  46.338  90.923  1.00  0.00     0.176 HD
ATOM     45  H3  UNL     1     104.371  46.103  92.292  1.00  0.00     0.188 HD
ENDBRANCH  39  41
ENDBRANCH  31  34
BRANCH  32  46
HETATM   46  O10 UNL     1     105.965  48.241  97.324  1.00  0.00    -0.356 OA
ATOM     47  H10 UNL     1     105.283  47.926  97.905  1.00  0.00     0.218 HD
ENDBRANCH  32  46
BRANCH  33  48
HETATM   48  O11 UNL     1     108.416  46.593  97.534  1.00  0.00    -0.355 OA
ATOM     49  H11 UNL     1     109.250  46.955  97.810  1.00  0.00     0.218 HD
ENDBRANCH  33  48
ENDBRANCH  27  29
ENDBRANCH  26  27
ENDBRANCH   1  26
BRANCH   1  50
HETATM   50  C19 UNL     1     109.824  47.590  92.128  1.00  0.00     0.295 C 
HETATM   51  O12 UNL     1     110.196  48.609  91.488  1.00  0.00    -0.262 OA
BRANCH  50  52
HETATM   52  O13 UNL     1     108.838  46.819  91.564  1.00  0.00    -0.289 OA
BRANCH  52  53
HETATM   53  C20 UNL     1     109.126  46.013  90.481  1.00  0.00     0.147 C 
HETATM   54  C21 UNL     1     108.726  44.759  90.436  1.00  0.00    -0.065 C 
HETATM   55  C22 UNL     1     109.061  43.940  89.254  1.00  0.00     0.045 C 
HETATM   56  C23 UNL     1     107.949  44.174  91.546  1.00  0.00     0.045 C 
ENDBRANCH  52  53
ENDBRANCH  50  52
ENDBRANCH   1  50
TORSDOF 22
ENDMDL
MODEL 4
REMARK VINA RESULT: -8.721008212      1.965      4.143
REMARK  22 active torsions:
REMARK  status: ('A' for Active; 'I' for Inactive)
REMARK    1  A    between atoms: C2_2  and  O2_4 
REMARK    2  A    between atoms: O2_4  and  C3_5 
REMARK    3  A    between atoms: C3_5  and  O3_7 
REMARK    4  A    between atoms: O3_7  and  C5_8 
REMARK    5  A    between atoms: C5_8  and  C6_10 
REMARK    6  A    between atoms: C7_11  and  C8_12 
REMARK    7  A    between atoms: C8_12  and  O5_13 
REMARK    8  A    between atoms: C8_12  and  O6_15 
REMARK    9  A    between atoms: O6_15  and  C9_16 
REMARK   10  A    between atoms: C9_16  and  C10_17 
REMARK   11  A    between atoms: C10_17  and  O7_18 
REMARK   12  A    between atoms: C10_17  and  C19_42 
REMARK   13  A    between atoms: O7_18  and  C11_19 
REMARK   14  A    between atoms: C11_19  and  C12_21 
REMARK   15  A    between atoms: C13_23  and  C14_24 
REMARK   16  A    between atoms: C16_30  and  N3_31 
REMARK   17  A    between atoms: C17_36  and  O10_37 
REMARK   18  A    between atoms: C18_39  and  O11_40 
REMARK   19  A    between atoms: C19_42  and  O13_44 
REMARK   20  A    between atoms: O13_44  and  C20_45 
REMARK   21  A    between atoms: C24_51  and  O14_52 
REMARK   22  A    between atoms: C25_54  and  O15_55 
ROOT
HETATM    1  C10 UNL     1     110.868  46.580  93.173  1.00  0.00     0.256 C 
ENDROOT
BRANCH   1   2
HETATM    2  C9  UNL     1     112.348  46.308  93.392  1.00  0.00     0.214 C 
BRANCH   2   3
HETATM    3  O6  UNL     1     112.754  45.066  92.990  1.00  0.00    -0.353 OA
BRANCH   3   4
HETATM    4  C8  UNL     1     114.035  45.129  92.439  1.00  0.00     0.309 C 
BRANCH   4   5
HETATM    5  C7  UNL     1     114.754  43.857  92.658  1.00  0.00     0.086 A 
HETATM    6  C6  UNL     1     114.614  42.654  92.036  1.00  0.00     0.104 A 
HETATM    7  C25 UNL     1     115.495  41.761  92.638  1.00  0.00     0.135 A 
HETATM    8  C24 UNL     1     116.177  42.463  93.646  1.00  0.00     0.175 A 
HETATM    9  N5  UNL     1     115.715  43.712  93.635  1.00  0.00    -0.333 N 
ATOM     10  H5  UNL     1     116.027  44.456  94.260  1.00  0.00     0.168 HD
BRANCH   6  11
HETATM   11  C5  UNL     1     113.706  42.364  90.923  1.00  0.00     0.300 C 
HETATM   12  O4  UNL     1     112.547  41.894  91.045  1.00  0.00    -0.259 OA
BRANCH  11  13
HETATM   13  O3  UNL     1     114.062  42.593  89.584  1.00  0.00    -0.285 OA
BRANCH  13  14
HETATM   14  C3  UNL     1     114.480  41.578  88.701  1.00  0.00     0.275 C 
HETATM   15  C4  UNL     1     116.016  41.472  88.701  1.00  0.00     0.071 C 
BRANCH  14  16
HETATM   16  O2  UNL     1     113.981  41.684  87.410  1.00  0.00    -0.290 OA
BRANCH  16  17
HETATM   17  C2  UNL     1     112.698  41.207  87.134  1.00  0.00     0.257 C 
HETATM   18  C1  UNL     1     112.257  39.866  87.597  1.00  0.00     0.126 C 
HETATM   19  O1  UNL     1     111.877  41.901  86.485  1.00  0.00    -0.266 OA
ENDBRANCH  16  17
ENDBRANCH  14  16
ENDBRANCH  13  14
ENDBRANCH  11  13
ENDBRANCH   6  11
BRANCH   7  20
HETATM   20  O15 UNL     1     115.686  40.431  92.327  1.00  0.00    -0.356 OA
ATOM     21  H15 UNL     1     116.043  39.752  92.888  1.00  0.00     0.218 HD
ENDBRANCH   7  20
BRANCH   8  22
HETATM   22  O14 UNL     1     117.140  41.915  94.471  1.00  0.00    -0.344 OA
ATOM     23  H14 UNL     1     117.174  41.037  94.834  1.00  0.00     0.219 HD
ENDBRANCH   8  22
ENDBRANCH   4   5
BRANCH   4  24
HETATM   24  O5  UNL     1     113.825  45.435  91.088  1.00  0.00    -0.366 OA
ATOM     25  H5  UNL     1     113.064  45.982  90.933  1.00  0.00     0.213 HD
ENDBRANCH   4  24
ENDBRANCH   3   4
ENDBRANCH   2   3
ENDBRANCH   1   2
BRANCH   1  26
HETATM   26  O7  UNL     1     110.127  45.404  93.544  1.00  0.00    -0.298 OA
BRANCH  26  27
HETATM   27  C11 UNL     1     109.480  45.348  94.764  1.00  0.00     0.321 C 
HETATM   28  O8  UNL     1     109.908  44.493  95.601  1.00  0.00    -0.257 OA
BRANCH  27  29
HETATM   29  C12 UNL     1     108.365  46.196  95.124  1.00  0.00     0.187 A 
HETATM   30  O9  UNL     1     107.443  46.678  94.286  1.00  0.00    -0.296 OA
HETATM   31  C13 UNL     1     106.575  47.408  94.912  1.00  0.00     0.143 A 
HETATM   32  C17 UNL     1     106.885  47.452  96.250  1.00  0.00     0.138 A 
HETATM   33  C18 UNL     1     108.035  46.670  96.368  1.00  0.00     0.142 A 
BRANCH  31  34
HETATM   34  C14 UNL     1     105.410  48.113  94.343  1.00  0.00     0.116 A 
HETATM   35  N1  UNL     1     104.718  49.122  94.886  1.00  0.00    -0.347 N 
HETATM   36  C15 UNL     1     103.729  49.474  94.030  1.00  0.00     0.182 A 
ATOM     37  H1  UNL     1     104.905  49.553  95.791  1.00  0.00     0.167 HD
HETATM   38  N2  UNL     1     103.784  48.695  92.941  1.00  0.00    -0.336 N 
HETATM   39  C16 UNL     1     104.808  47.856  93.116  1.00  0.00     0.150 A 
ATOM     40  H2  UNL     1     103.163  48.735  92.133  1.00  0.00     0.168 HD
BRANCH  39  41
HETATM   41  N3  UNL     1     105.262  46.836  92.230  1.00  0.00    -0.290 N 
HETATM   42  N4  UNL     1     106.259  47.038  91.459  1.00  0.00    -0.344 N 
ATOM     43  H42 UNL     1     106.725  47.945  91.491  1.00  0.00     0.176 HD
ATOM     44  H41 UNL     1     106.584  46.309  90.825  1.00  0.00     0.176 HD
ATOM     45  H3  UNL     1     104.784  45.935  92.211  1.00  0.00     0.188 HD
ENDBRANCH  39  41
ENDBRANCH  31  34
BRANCH  32  46
HETATM   46  O10 UNL     1     106.264  48.092  97.307  1.00  0.00    -0.356 OA
ATOM     47  H10 UNL     1     106.622  48.520  98.076  1.00  0.00     0.218 HD
ENDBRANCH  32  46
BRANCH  33  48
HETATM   48  O11 UNL     1     108.703  46.429  97.535  1.00  0.00    -0.355 OA
ATOM     49  H11 UNL     1     108.468  46.748  98.398  1.00  0.00     0.218 HD
ENDBRANCH  33  48
ENDBRANCH  27  29
ENDBRANCH  26  27
ENDBRANCH   1  26
BRANCH   1  50
HETATM   50  C19 UNL     1     110.529  46.879  91.768  1.00  0.00     0.295 C 
HETATM   51  O12 UNL     1     111.330  47.524  91.040  1.00  0.00    -0.262 OA
BRANCH  50  52
HETATM   52  O13 UNL     1     109.345  46.478  91.198  1.00  0.00    -0.289 OA
BRANCH  52  53
HETATM   53  C20 UNL     1     109.351  45.545  90.180  1.00  0.00     0.147 C 
HETATM   54  C21 UNL     1     108.730  44.390  90.308  1.00  0.00    -0.065 C 
HETATM   55  C22 UNL     1     108.766  43.427  89.190  1.00  0.00     0.045 C 
HETATM   56  C23 UNL     1     108.001  44.058  91.548  1.00  0.00     0.045 C 
ENDBRANCH  52  53
ENDBRANCH  50  52
ENDBRANCH   1  50
TORSDOF 22
ENDMDL
MODEL 5
REMARK VINA RESULT: -8.673117310      2.116      3.897
REMARK  22 active torsions:
REMARK  status: ('A' for Active; 'I' for Inactive)
REMARK    1  A    between atoms: C2_2  and  O2_4 
REMARK    2  A    between atoms: O2_4  and  C3_5 
REMARK    3  A    between atoms: C3_5  and  O3_7 
REMARK    4  A    between atoms: O3_7  and  C5_8 
REMARK    5  A    between atoms: C5_8  and  C6_10 
REMARK    6  A    between atoms: C7_11  and  C8_12 
REMARK    7  A    between atoms: C8_12  and  O5_13 
REMARK    8  A    between atoms: C8_12  and  O6_15 
REMARK    9  A    between atoms: O6_15  and  C9_16 
REMARK   10  A    between atoms: C9_16  and  C10_17 
REMARK   11  A    between atoms: C10_17  and  O7_18 
REMARK   12  A    between atoms: C10_17  and  C19_42 
REMARK   13  A    between atoms: O7_18  and  C11_19 
REMARK   14  A    between atoms: C11_19  and  C12_21 
REMARK   15  A    between atoms: C13_23  and  C14_24 
REMARK   16  A    between atoms: C16_30  and  N3_31 
REMARK   17  A    between atoms: C17_36  and  O10_37 
REMARK   18  A    between atoms: C18_39  and  O11_40 
REMARK   19  A    between atoms: C19_42  and  O13_44 
REMARK   20  A    between atoms: O13_44  and  C20_45 
REMARK   21  A    between atoms: C24_51  and  O14_52 
REMARK   22  A    between atoms: C25_54  and  O15_55 
ROOT
HETATM    1  C10 UNL     1     111.219  45.619  92.617  1.00  0.00     0.256 C 
ENDROOT
BRANCH   1   2
HETATM    2  C9  UNL     1     111.868  44.365  92.054  1.00  0.00     0.214 C 
BRANCH   2   3
HETATM    3  O6  UNL     1     113.225  44.454  91.912  1.00  0.00    -0.353 OA
BRANCH   3   4
HETATM    4  C8  UNL     1     113.727  43.300  91.311  1.00  0.00     0.309 C 
BRANCH   4   5
HETATM    5  C7  UNL     1     115.156  43.474  90.971  1.00  0.00     0.086 A 
HETATM    6  C6  UNL     1     115.877  42.962  89.937  1.00  0.00     0.104 A 
HETATM    7  C25 UNL     1     117.194  43.386  90.089  1.00  0.00     0.135 A 
HETATM    8  C24 UNL     1     117.247  44.176  91.251  1.00  0.00     0.175 A 
HETATM    9  N5  UNL     1     116.015  44.211  91.756  1.00  0.00    -0.333 N 
ATOM     10  H5  UNL     1     115.746  44.711  92.603  1.00  0.00     0.168 HD
BRANCH   6  11
HETATM   11  C5  UNL     1     115.352  42.126  88.854  1.00  0.00     0.300 C 
HETATM   12  O4  UNL     1     114.799  42.562  87.814  1.00  0.00    -0.259 OA
BRANCH  11  13
HETATM   13  O3  UNL     1     115.424  40.724  88.886  1.00  0.00    -0.285 OA
BRANCH  13  14
HETATM   14  C3  UNL     1     114.649  39.920  89.746  1.00  0.00     0.275 C 
HETATM   15  C4  UNL     1     115.491  38.746  90.278  1.00  0.00     0.071 C 
BRANCH  14  16
HETATM   16  O2  UNL     1     113.448  39.478  89.209  1.00  0.00    -0.290 OA
BRANCH  16  17
HETATM   17  C2  UNL     1     112.257  40.085  89.612  1.00  0.00     0.257 C 
HETATM   18  C1  UNL     1     111.720  41.277  88.905  1.00  0.00     0.126 C 
HETATM   19  O1  UNL     1     111.603  39.639  90.586  1.00  0.00    -0.266 OA
ENDBRANCH  16  17
ENDBRANCH  14  16
ENDBRANCH  13  14
ENDBRANCH  11  13
ENDBRANCH   6  11
BRANCH   7  20
HETATM   20  O15 UNL     1     118.268  43.103  89.272  1.00  0.00    -0.356 OA
ATOM     21  H15 UNL     1     118.401  43.383  88.373  1.00  0.00     0.218 HD
ENDBRANCH   7  20
BRANCH   8  22
HETATM   22  O14 UNL     1     118.389  44.782  91.737  1.00  0.00    -0.344 OA
ATOM     23  H14 UNL     1     119.086  45.203  91.248  1.00  0.00     0.219 HD
ENDBRANCH   8  22
ENDBRANCH   4   5
BRANCH   4  24
HETATM   24  O5  UNL     1     113.488  42.282  92.242  1.00  0.00    -0.366 OA
ATOM     25  H5  UNL     1     113.410  41.418  91.855  1.00  0.00     0.213 HD
ENDBRANCH   4  24
ENDBRANCH   3   4
ENDBRANCH   2   3
ENDBRANCH   1   2
BRANCH   1  26
HETATM   26  O7  UNL     1     110.157  45.225  93.504  1.00  0.00    -0.298 OA
BRANCH  26  27
HETATM   27  C11 UNL     1     109.955  45.905  94.690  1.00  0.00     0.321 C 
HETATM   28  O8  UNL     1     110.953  46.008  95.469  1.00  0.00    -0.257 OA
BRANCH  27  29
HETATM   29  C12 UNL     1     108.691  46.493  95.077  1.00  0.00     0.187 A 
HETATM   30  O9  UNL     1     107.771  46.993  94.247  1.00  0.00    -0.296 OA
HETATM   31  C13 UNL     1     106.748  47.448  94.899  1.00  0.00     0.143 A 
HETATM   32  C17 UNL     1     106.939  47.267  96.248  1.00  0.00     0.138 A 
HETATM   33  C18 UNL     1     108.190  46.653  96.344  1.00  0.00     0.142 A 
BRANCH  31  34
HETATM   34  C14 UNL     1     105.533  48.076  94.347  1.00  0.00     0.116 A 
HETATM   35  N1  UNL     1     104.793  49.048  94.892  1.00  0.00    -0.347 N 
HETATM   36  C15 UNL     1     103.767  49.331  94.053  1.00  0.00     0.182 A 
ATOM     37  H1  UNL     1     104.971  49.501  95.789  1.00  0.00     0.167 HD
HETATM   38  N2  UNL     1     103.846  48.543  92.972  1.00  0.00    -0.336 N 
HETATM   39  C16 UNL     1     104.922  47.767  93.135  1.00  0.00     0.150 A 
ATOM     40  H2  UNL     1     103.208  48.535  92.177  1.00  0.00     0.168 HD
BRANCH  39  41
HETATM   41  N3  UNL     1     105.417  46.766  92.251  1.00  0.00    -0.290 N 
HETATM   42  N4  UNL     1     106.435  46.991  91.515  1.00  0.00    -0.344 N 
ATOM     43  H42 UNL     1     106.887  47.904  91.572  1.00  0.00     0.176 HD
ATOM     44  H41 UNL     1     106.790  46.274  90.882  1.00  0.00     0.176 HD
ATOM     45  H3  UNL     1     104.954  45.858  92.207  1.00  0.00     0.188 HD
ENDBRANCH  39  41
ENDBRANCH  31  34
BRANCH  32  46
HETATM   46  O10 UNL     1     106.140  47.584  97.330  1.00  0.00    -0.356 OA
ATOM     47  H10 UNL     1     105.236  47.363  97.525  1.00  0.00     0.218 HD
ENDBRANCH  32  46
BRANCH  33  48
HETATM   48  O11 UNL     1     108.793  46.283  97.512  1.00  0.00    -0.355 OA
ATOM     49  H11 UNL     1     109.163  46.863  98.167  1.00  0.00     0.218 HD
ENDBRANCH  33  48
ENDBRANCH  27  29
ENDBRANCH  26  27
ENDBRANCH   1  26
BRANCH   1  50
HETATM   50  C19 UNL     1     110.619  46.485  91.582  1.00  0.00     0.295 C 
HETATM   51  O12 UNL     1     111.236  47.500  91.163  1.00  0.00    -0.262 OA
BRANCH  50  52
HETATM   52  O13 UNL     1     109.385  46.230  91.037  1.00  0.00    -0.289 OA
BRANCH  52  53
HETATM   53  C20 UNL     1     109.258  45.309  90.017  1.00  0.00     0.147 C 
HETATM   54  C21 UNL     1     108.593  44.185  90.189  1.00  0.00    -0.065 C 
HETATM   55  C22 UNL     1     108.487  43.233  89.065  1.00  0.00     0.045 C 
HETATM   56  C23 UNL     1     107.957  43.874  91.484  1.00  0.00     0.045 C 
ENDBRANCH  52  53
ENDBRANCH  50  52
ENDBRANCH   1  50
TORSDOF 22
ENDMDL
