MODEL 1
REMARK VINA RESULT: -8.078044581      0.000      0.000
REMARK  4 active torsions:
REMARK  status: ('A' for Active; 'I' for Inactive)
REMARK    1  A    between atoms: C3_3  and  N1_4 
REMARK    2  A    between atoms: N1_4  and  C4_6 
REMARK    3  A    between atoms: C5_9  and  N3_10 
REMARK    4  A    between atoms: N3_10  and  C6_12 
ROOT
HETATM    1  C1  UNL     1      32.301  -4.588 -77.965  1.00  0.00     0.014 C 
HETATM    2  C2  UNL     1      32.909  -5.630 -77.959  1.00  0.00    -0.098 C 
HETATM    3  C3  UNL     1      33.653  -6.919 -77.976  1.00  0.00     0.214 C 
ENDROOT
BRANCH   3   4
HETATM    4  N1  UNL     1      34.443  -6.986 -79.165  1.00  0.00    -0.365 N 
ATOM      5  H1  UNL     1      34.138  -6.472 -79.992  1.00  0.00     0.162 HD
BRANCH   4   6
HETATM    6  C4  UNL     1      35.513  -7.666 -79.224  1.00  0.00     0.133 A 
HETATM    7  N2  UNL     1      35.513  -8.999 -79.099  1.00  0.00    -0.176 N 
HETATM    8  C5  UNL     1      36.637  -9.727 -79.160  1.00  0.00     0.681 A 
ATOM      9  H2  UNL     1      34.625  -9.478 -78.953  1.00  0.00     0.186 HD
HETATM   10  N4  UNL     1      37.841  -9.112 -79.354  1.00  0.00    -0.176 N 
HETATM   11  C12 UNL     1      37.926  -7.766 -79.490  1.00  0.00     0.136 A 
ATOM     12  H4  UNL     1      38.691  -9.674 -79.398  1.00  0.00     0.186 HD
HETATM   13  N5  UNL     1      38.910  -6.894 -79.685  1.00  0.00    -0.349 N 
HETATM   14  C15 UNL     1      36.752  -7.069 -79.422  1.00  0.00     0.076 A 
HETATM   15  C13 UNL     1      38.396  -5.662 -79.742  1.00  0.00     0.114 A 
ATOM     16  H5  UNL     1      39.899  -7.128 -79.776  1.00  0.00     0.166 HD
HETATM   17  C14 UNL     1      37.037  -5.748 -79.578  1.00  0.00     0.067 A 
HETATM   18 CL1  UNL     1      35.899  -4.410 -79.574  1.00  0.00    -0.082 Cl
BRANCH   8  19
HETATM   19  N3  UNL     1      36.691 -10.990 -79.047  1.00  0.00    -0.221 N 
ATOM     20  H3  UNL     1      35.883 -11.545 -79.329  1.00  0.00     0.178 HD
BRANCH  19  21
HETATM   21  C6  UNL     1      37.849 -11.663 -78.538  1.00  0.00     0.099 C 
HETATM   22  C7  UNL     1      38.142 -12.865 -79.404  1.00  0.00     0.026 C 
HETATM   23  C8  UNL     1      39.361 -13.619 -78.936  1.00  0.00     0.002 C 
HETATM   24  C9  UNL     1      39.640 -13.389 -77.468  1.00  0.00     0.000 C 
HETATM   25  C10 UNL     1      38.339 -13.261 -76.669  1.00  0.00     0.002 C 
HETATM   26  C11 UNL     1      37.523 -12.074 -77.113  1.00  0.00     0.026 C 
ENDBRANCH  19  21
ENDBRANCH   8  19
ENDBRANCH   4   6
ENDBRANCH   3   4
TORSDOF 4
ENDMDL
MODEL 2
REMARK VINA RESULT: -7.601763189      4.844      7.951
REMARK  4 active torsions:
REMARK  status: ('A' for Active; 'I' for Inactive)
REMARK    1  A    between atoms: C3_3  and  N1_4 
REMARK    2  A    between atoms: N1_4  and  C4_6 
REMARK    3  A    between atoms: C5_9  and  N3_10 
REMARK    4  A    between atoms: N3_10  and  C6_12 
ROOT
HETATM    1  C1  UNL     1      37.683   1.301 -77.145  1.00  0.00     0.014 C 
HETATM    2  C2  UNL     1      36.754   0.586 -76.857  1.00  0.00    -0.098 C 
HETATM    3  C3  UNL     1      35.594  -0.278 -76.510  1.00  0.00     0.214 C 
ENDROOT
BRANCH   3   4
HETATM    4  N1  UNL     1      34.660  -0.262 -77.592  1.00  0.00    -0.365 N 
ATOM      5  H1  UNL     1      34.700   0.500 -78.268  1.00  0.00     0.162 HD
BRANCH   4   6
HETATM    6  C4  UNL     1      33.784  -1.170 -77.738  1.00  0.00     0.133 A 
HETATM    7  N2  UNL     1      34.118  -2.448 -77.952  1.00  0.00    -0.176 N 
HETATM    8  C5  UNL     1      33.201  -3.415 -78.106  1.00  0.00     0.681 A 
ATOM      9  H2  UNL     1      35.106  -2.697 -78.001  1.00  0.00     0.186 HD
HETATM   10  N4  UNL     1      31.871  -3.110 -78.047  1.00  0.00    -0.176 N 
HETATM   11  C12 UNL     1      31.452  -1.840 -77.833  1.00  0.00     0.136 A 
ATOM     12  H4  UNL     1      31.181  -3.852 -78.166  1.00  0.00     0.186 HD
HETATM   13  N5  UNL     1      30.271  -1.238 -77.724  1.00  0.00    -0.349 N 
HETATM   14  C15 UNL     1      32.424  -0.892 -77.681  1.00  0.00     0.076 A 
HETATM   15  C13 UNL     1      30.466   0.066 -77.509  1.00  0.00     0.114 A 
ATOM     16  H5  UNL     1      29.363  -1.698 -77.794  1.00  0.00     0.166 HD
HETATM   17  C14 UNL     1      31.815   0.307 -77.478  1.00  0.00     0.067 A 
HETATM   18 CL1  UNL     1      32.593   1.862 -77.224  1.00  0.00    -0.082 Cl
BRANCH   8  19
HETATM   19  N3  UNL     1      33.464  -4.638 -78.312  1.00  0.00    -0.221 N 
ATOM     20  H3  UNL     1      32.693  -5.302 -78.391  1.00  0.00     0.178 HD
BRANCH  19  21
HETATM   21  C6  UNL     1      34.808  -5.121 -78.438  1.00  0.00     0.099 C 
HETATM   22  C7  UNL     1      35.478  -4.420 -79.596  1.00  0.00     0.026 C 
HETATM   23  C8  UNL     1      36.906  -4.868 -79.782  1.00  0.00     0.002 C 
HETATM   24  C9  UNL     1      37.145  -6.248 -79.214  1.00  0.00     0.000 C 
HETATM   25  C10 UNL     1      35.920  -7.148 -79.408  1.00  0.00     0.002 C 
HETATM   26  C11 UNL     1      34.712  -6.617 -78.679  1.00  0.00     0.026 C 
ENDBRANCH  19  21
ENDBRANCH   8  19
ENDBRANCH   4   6
ENDBRANCH   3   4
TORSDOF 4
ENDMDL
MODEL 3
REMARK VINA RESULT: -7.142503105      4.253      7.014
REMARK  4 active torsions:
REMARK  status: ('A' for Active; 'I' for Inactive)
REMARK    1  A    between atoms: C3_3  and  N1_4 
REMARK    2  A    between atoms: N1_4  and  C4_6 
REMARK    3  A    between atoms: C5_9  and  N3_10 
REMARK    4  A    between atoms: N3_10  and  C6_12 
ROOT
HETATM    1  C1  UNL     1      34.707   1.966 -75.847  1.00  0.00     0.014 C 
HETATM    2  C2  UNL     1      35.291   1.292 -76.660  1.00  0.00    -0.098 C 
HETATM    3  C3  UNL     1      35.995   0.443 -77.658  1.00  0.00     0.214 C 
ENDROOT
BRANCH   3   4
HETATM    4  N1  UNL     1      35.027  -0.172 -78.513  1.00  0.00    -0.365 N 
ATOM      5  H1  UNL     1      34.648   0.362 -79.295  1.00  0.00     0.162 HD
BRANCH   4   6
HETATM    6  C4  UNL     1      34.627  -1.362 -78.328  1.00  0.00     0.133 A 
HETATM    7  N2  UNL     1      35.476  -2.394 -78.270  1.00  0.00    -0.176 N 
HETATM    8  C5  UNL     1      35.064  -3.655 -78.074  1.00  0.00     0.681 A 
ATOM      9  H2  UNL     1      36.475  -2.216 -78.379  1.00  0.00     0.186 HD
HETATM   10  N4  UNL     1      33.733  -3.924 -77.926  1.00  0.00    -0.176 N 
HETATM   11  C12 UNL     1      32.810  -2.934 -77.971  1.00  0.00     0.136 A 
ATOM     12  H4  UNL     1      33.429  -4.886 -77.778  1.00  0.00     0.186 HD
HETATM   13  N5  UNL     1      31.485  -2.868 -77.865  1.00  0.00    -0.349 N 
HETATM   14  C15 UNL     1      33.280  -1.666 -78.172  1.00  0.00     0.076 A 
HETATM   15  C13 UNL     1      31.101  -1.595 -77.993  1.00  0.00     0.114 A 
ATOM     16  H5  UNL     1      30.864  -3.662 -77.710  1.00  0.00     0.166 HD
HETATM   17  C14 UNL     1      32.216  -0.820 -78.187  1.00  0.00     0.067 A 
HETATM   18 CL1  UNL     1      32.250   0.922 -78.411  1.00  0.00    -0.082 Cl
BRANCH   8  19
HETATM   19  N3  UNL     1      35.827  -4.667 -78.012  1.00  0.00    -0.221 N 
ATOM     20  H3  UNL     1      36.558  -4.690 -77.301  1.00  0.00     0.178 HD
BRANCH  19  21
HETATM   21  C6  UNL     1      35.697  -5.778 -78.908  1.00  0.00     0.099 C 
HETATM   22  C7  UNL     1      35.050  -6.930 -78.175  1.00  0.00     0.026 C 
HETATM   23  C8  UNL     1      34.867  -8.136 -79.061  1.00  0.00     0.002 C 
HETATM   24  C9  UNL     1      35.846  -8.146 -80.214  1.00  0.00     0.000 C 
HETATM   25  C10 UNL     1      37.204  -7.576 -79.793  1.00  0.00     0.002 C 
HETATM   26  C11 UNL     1      37.100  -6.133 -79.367  1.00  0.00     0.026 C 
ENDBRANCH  19  21
ENDBRANCH   8  19
ENDBRANCH   4   6
ENDBRANCH   3   4
TORSDOF 4
ENDMDL
MODEL 4
REMARK VINA RESULT: -7.091431933      6.328      9.455
REMARK  4 active torsions:
REMARK  status: ('A' for Active; 'I' for Inactive)
REMARK    1  A    between atoms: C3_3  and  N1_4 
REMARK    2  A    between atoms: N1_4  and  C4_6 
REMARK    3  A    between atoms: C5_9  and  N3_10 
REMARK    4  A    between atoms: N3_10  and  C6_12 
ROOT
HETATM    1  C1  UNL     1      34.008   2.544 -75.332  1.00  0.00     0.014 C 
HETATM    2  C2  UNL     1      34.305   2.083 -76.406  1.00  0.00    -0.098 C 
HETATM    3  C3  UNL     1      34.653   1.498 -77.729  1.00  0.00     0.214 C 
ENDROOT
BRANCH   3   4
HETATM    4  N1  UNL     1      33.451   1.266 -78.468  1.00  0.00    -0.365 N 
ATOM      5  H1  UNL     1      33.252   1.844 -79.283  1.00  0.00     0.162 HD
BRANCH   4   6
HETATM    6  C4  UNL     1      32.625   0.360 -78.138  1.00  0.00     0.133 A 
HETATM    7  N2  UNL     1      33.009  -0.902 -77.914  1.00  0.00    -0.176 N 
HETATM    8  C5  UNL     1      32.146  -1.867 -77.566  1.00  0.00     0.681 A 
ATOM      9  H2  UNL     1      33.997  -1.140 -78.012  1.00  0.00     0.186 HD
HETATM   10  N4  UNL     1      30.818  -1.578 -77.428  1.00  0.00    -0.176 N 
HETATM   11  C12 UNL     1      30.349  -0.324 -77.638  1.00  0.00     0.136 A 
ATOM     12  H4  UNL     1      30.168  -2.318 -77.163  1.00  0.00     0.186 HD
HETATM   13  N5  UNL     1      29.156   0.262 -77.586  1.00  0.00    -0.349 N 
HETATM   14  C15 UNL     1      31.269   0.623 -77.990  1.00  0.00     0.076 A 
HETATM   15  C13 UNL     1      29.292   1.554 -77.896  1.00  0.00     0.114 A 
ATOM     16  H5  UNL     1      28.279  -0.201 -77.348  1.00  0.00     0.166 HD
HETATM   17  C14 UNL     1      30.615   1.804 -78.155  1.00  0.00     0.067 A 
HETATM   18 CL1  UNL     1      31.316   3.350 -78.608  1.00  0.00    -0.082 Cl
BRANCH   8  19
HETATM   19  N3  UNL     1      32.459  -3.076 -77.343  1.00  0.00    -0.221 N 
ATOM     20  H3  UNL     1      32.117  -3.525 -76.493  1.00  0.00     0.178 HD
BRANCH  19  21
HETATM   21  C6  UNL     1      33.276  -3.832 -78.245  1.00  0.00     0.099 C 
HETATM   22  C7  UNL     1      32.952  -5.300 -78.092  1.00  0.00     0.026 C 
HETATM   23  C8  UNL     1      33.767  -6.162 -79.023  1.00  0.00     0.002 C 
HETATM   24  C9  UNL     1      35.058  -5.490 -79.432  1.00  0.00     0.000 C 
HETATM   25  C10 UNL     1      35.642  -4.663 -78.281  1.00  0.00     0.002 C 
HETATM   26  C11 UNL     1      34.719  -3.543 -77.872  1.00  0.00     0.026 C 
ENDBRANCH  19  21
ENDBRANCH   8  19
ENDBRANCH   4   6
ENDBRANCH   3   4
TORSDOF 4
ENDMDL
MODEL 5
REMARK VINA RESULT: -7.066194111      6.552      9.730
REMARK  4 active torsions:
REMARK  status: ('A' for Active; 'I' for Inactive)
REMARK    1  A    between atoms: C3_3  and  N1_4 
REMARK    2  A    between atoms: N1_4  and  C4_6 
REMARK    3  A    between atoms: C5_9  and  N3_10 
REMARK    4  A    between atoms: N3_10  and  C6_12 
ROOT
HETATM    1  C1  UNL     1      32.848   2.428 -81.050  1.00  0.00     0.014 C 
HETATM    2  C2  UNL     1      33.445   2.032 -80.080  1.00  0.00    -0.098 C 
HETATM    3  C3  UNL     1      34.171   1.560 -78.870  1.00  0.00     0.214 C 
ENDROOT
BRANCH   3   4
HETATM    4  N1  UNL     1      33.252   1.479 -77.777  1.00  0.00    -0.365 N 
ATOM      5  H1  UNL     1      33.290   2.188 -77.046  1.00  0.00     0.162 HD
BRANCH   4   6
HETATM    6  C4  UNL     1      32.392   0.550 -77.690  1.00  0.00     0.133 A 
HETATM    7  N2  UNL     1      32.747  -0.736 -77.577  1.00  0.00    -0.176 N 
HETATM    8  C5  UNL     1      31.846  -1.725 -77.484  1.00  0.00     0.681 A 
ATOM      9  H2  UNL     1      33.739  -0.972 -77.560  1.00  0.00     0.186 HD
HETATM   10  N4  UNL     1      30.511  -1.438 -77.504  1.00  0.00    -0.176 N 
HETATM   11  C12 UNL     1      30.071  -0.162 -77.616  1.00  0.00     0.136 A 
ATOM     12  H4  UNL     1      29.834  -2.198 -77.433  1.00  0.00     0.186 HD
HETATM   13  N5  UNL     1      28.880   0.429 -77.662  1.00  0.00    -0.349 N 
HETATM   14  C15 UNL     1      31.027   0.810 -77.706  1.00  0.00     0.076 A 
HETATM   15  C13 UNL     1      29.053   1.748 -77.781  1.00  0.00     0.114 A 
ATOM     16  H5  UNL     1      27.980  -0.049 -77.615  1.00  0.00     0.166 HD
HETATM   17  C14 UNL     1      30.398   2.011 -77.810  1.00  0.00     0.067 A 
HETATM   18 CL1  UNL     1      31.150   3.593 -77.955  1.00  0.00    -0.082 Cl
BRANCH   8  19
HETATM   19  N3  UNL     1      32.130  -2.957 -77.376  1.00  0.00    -0.221 N 
ATOM     20  H3  UNL     1      31.668  -3.507 -76.651  1.00  0.00     0.178 HD
BRANCH  19  21
HETATM   21  C6  UNL     1      33.077  -3.602 -78.236  1.00  0.00     0.099 C 
HETATM   22  C7  UNL     1      32.910  -5.098 -78.121  1.00  0.00     0.026 C 
HETATM   23  C8  UNL     1      33.868  -5.847 -79.013  1.00  0.00     0.002 C 
HETATM   24  C9  UNL     1      35.099  -5.030 -79.335  1.00  0.00     0.000 C 
HETATM   25  C10 UNL     1      35.519  -4.166 -78.142  1.00  0.00     0.002 C 
HETATM   26  C11 UNL     1      34.455  -3.162 -77.774  1.00  0.00     0.026 C 
ENDBRANCH  19  21
ENDBRANCH   8  19
ENDBRANCH   4   6
ENDBRANCH   3   4
TORSDOF 4
ENDMDL
