MODEL 1
REMARK VINA RESULT: -5.689778692      0.000      0.000
REMARK  3 active torsions:
REMARK  status: ('A' for Active; 'I' for Inactive)
REMARK    1  A    between atoms: C2_2  and  C3_3 
REMARK    2  A    between atoms: C3_3  and  O1_5 
REMARK    3  A    between atoms: C3_3  and  C5_7 
ROOT
HETATM    1  C5  UNL     1      34.123   1.545 -77.820  1.00  0.00     0.016 C 
HETATM    2  C6  UNL     1      34.378   2.781 -78.657  1.00  0.00     0.023 C 
HETATM    3  C7  UNL     1      33.990   0.405 -78.817  1.00  0.00     0.022 C 
HETATM    4  C8  UNL     1      32.899  -0.484 -78.302  1.00  0.00     0.044 C 
HETATM    5  C9  UNL     1      32.086   0.427 -77.469  1.00  0.00    -0.006 A 
HETATM    6  C10 UNL     1      32.781   1.600 -77.203  1.00  0.00    -0.018 A 
HETATM    7  C11 UNL     1      32.115   2.535 -76.449  1.00  0.00     0.034 A 
HETATM    8 BR1  UNL     1      32.896   4.225 -76.000  1.00  0.00    -0.049 Br
HETATM    9  C12 UNL     1      30.842   2.295 -76.000  1.00  0.00     0.109 A 
HETATM   10  N1  UNL     1      30.209   1.170 -76.269  1.00  0.00    -0.351 N 
ATOM     11  H1  UNL     1      29.262   1.028 -75.916  1.00  0.00     0.166 HD
HETATM   12  C13 UNL     1      30.795   0.207 -77.002  1.00  0.00     0.105 A 
HETATM   13  N2  UNL     1      30.165  -0.904 -77.266  1.00  0.00    -0.385 N 
ATOM     14  H21 UNL     1      29.218  -1.065 -76.923  1.00  0.00     0.157 HD
ATOM     15  H22 UNL     1      30.610  -1.635 -77.822  1.00  0.00     0.157 HD
ENDROOT
BRANCH   1  16
HETATM   16  C3  UNL     1      35.257   1.334 -76.873  1.00  0.00     0.065 C 
HETATM   17  C4  UNL     1      36.171   2.573 -76.818  1.00  0.00     0.047 C 
BRANCH  16  18
HETATM   18  C2  UNL     1      36.166   0.191 -77.210  1.00  0.00     0.034 C 
HETATM   19  C1  UNL     1      36.017  -0.878 -76.119  1.00  0.00     0.008 C 
ENDBRANCH  16  18
BRANCH  16  20
HETATM   20  O1  UNL     1      34.844   1.148 -75.559  1.00  0.00    -0.389 OA
ATOM     21  H1  UNL     1      33.897   1.224 -75.553  1.00  0.00     0.210 HD
ENDBRANCH  16  20
ENDBRANCH   1  16
TORSDOF 3
ENDMDL
MODEL 2
REMARK VINA RESULT: -5.682819659      2.222      3.629
REMARK  3 active torsions:
REMARK  status: ('A' for Active; 'I' for Inactive)
REMARK    1  A    between atoms: C2_2  and  C3_3 
REMARK    2  A    between atoms: C3_3  and  O1_5 
REMARK    3  A    between atoms: C3_3  and  C5_7 
ROOT
HETATM    1  C5  UNL     1      33.659   1.472 -77.395  1.00  0.00     0.016 C 
HETATM    2  C6  UNL     1      34.811   1.400 -76.413  1.00  0.00     0.023 C 
HETATM    3  C7  UNL     1      32.544   2.191 -76.654  1.00  0.00     0.022 C 
HETATM    4  C8  UNL     1      31.267   1.513 -77.049  1.00  0.00     0.044 C 
HETATM    5  C9  UNL     1      31.711   0.160 -77.443  1.00  0.00    -0.006 A 
HETATM    6  C10 UNL     1      33.088   0.129 -77.628  1.00  0.00    -0.018 A 
HETATM    7  C11 UNL     1      33.620  -1.087 -77.980  1.00  0.00     0.034 A 
HETATM    8 BR1  UNL     1      35.499  -1.336 -78.254  1.00  0.00    -0.049 Br
HETATM    9  C12 UNL     1      32.814  -2.186 -78.133  1.00  0.00     0.109 A 
HETATM   10  N1  UNL     1      31.510  -2.125 -77.951  1.00  0.00    -0.351 N 
ATOM     11  H1  UNL     1      30.944  -2.965 -78.075  1.00  0.00     0.166 HD
HETATM   12  C13 UNL     1      30.916  -0.970 -77.604  1.00  0.00     0.105 A 
HETATM   13  N2  UNL     1      29.625  -0.913 -77.425  1.00  0.00    -0.385 N 
ATOM     14  H21 UNL     1      29.041  -1.742 -77.543  1.00  0.00     0.157 HD
ATOM     15  H22 UNL     1      29.173  -0.036 -77.162  1.00  0.00     0.157 HD
ENDROOT
BRANCH   1  16
HETATM   16  C3  UNL     1      34.087   2.209 -78.620  1.00  0.00     0.065 C 
HETATM   17  C4  UNL     1      33.784   3.715 -78.496  1.00  0.00     0.047 C 
BRANCH  16  18
HETATM   18  C2  UNL     1      33.417   1.780 -79.890  1.00  0.00     0.034 C 
HETATM   19  C1  UNL     1      32.454   2.893 -80.325  1.00  0.00     0.008 C 
ENDBRANCH  16  18
BRANCH  16  20
HETATM   20  O1  UNL     1      35.457   2.148 -78.845  1.00  0.00    -0.389 OA
ATOM     21  H1  UNL     1      35.824   1.598 -78.163  1.00  0.00     0.210 HD
ENDBRANCH  16  20
ENDBRANCH   1  16
TORSDOF 3
ENDMDL
MODEL 3
REMARK VINA RESULT: -5.492470814      1.219      1.452
REMARK  3 active torsions:
REMARK  status: ('A' for Active; 'I' for Inactive)
REMARK    1  A    between atoms: C2_2  and  C3_3 
REMARK    2  A    between atoms: C3_3  and  O1_5 
REMARK    3  A    between atoms: C3_3  and  C5_7 
ROOT
HETATM    1  C5  UNL     1      34.494   1.490 -77.765  1.00  0.00     0.016 C 
HETATM    2  C6  UNL     1      35.164   2.643 -78.484  1.00  0.00     0.023 C 
HETATM    3  C7  UNL     1      33.635   0.805 -78.816  1.00  0.00     0.022 C 
HETATM    4  C8  UNL     1      32.365   0.402 -78.130  1.00  0.00     0.044 C 
HETATM    5  C9  UNL     1      32.277   1.351 -77.000  1.00  0.00    -0.006 A 
HETATM    6  C10 UNL     1      33.495   1.989 -76.798  1.00  0.00    -0.018 A 
HETATM    7  C11 UNL     1      33.528   2.912 -75.781  1.00  0.00     0.034 A 
HETATM    8 BR1  UNL     1      35.107   3.913 -75.365  1.00  0.00    -0.049 Br
HETATM    9  C12 UNL     1      32.409   3.166 -75.029  1.00  0.00     0.109 A 
HETATM   10  N1  UNL     1      31.268   2.543 -75.245  1.00  0.00    -0.351 N 
ATOM     11  H1  UNL     1      30.458   2.759 -74.663  1.00  0.00     0.166 HD
HETATM   12  C13 UNL     1      31.157   1.627 -76.222  1.00  0.00     0.105 A 
HETATM   13  N2  UNL     1      30.025   1.012 -76.434  1.00  0.00    -0.385 N 
ATOM     14  H21 UNL     1      29.204   1.214 -75.863  1.00  0.00     0.157 HD
ATOM     15  H22 UNL     1      29.941   0.317 -77.175  1.00  0.00     0.157 HD
ENDROOT
BRANCH   1  16
HETATM   16  C3  UNL     1      35.530   0.575 -77.203  1.00  0.00     0.065 C 
HETATM   17  C4  UNL     1      36.944   1.162 -77.382  1.00  0.00     0.047 C 
BRANCH  16  18
HETATM   18  C2  UNL     1      35.589  -0.785 -77.829  1.00  0.00     0.034 C 
HETATM   19  C1  UNL     1      35.147  -1.815 -76.781  1.00  0.00     0.008 C 
ENDBRANCH  16  18
BRANCH  16  20
HETATM   20  O1  UNL     1      35.405   0.384 -75.832  1.00  0.00    -0.389 OA
ATOM     21  H1  UNL     1      36.213   0.690 -75.436  1.00  0.00     0.210 HD
ENDBRANCH  16  20
ENDBRANCH   1  16
TORSDOF 3
ENDMDL
MODEL 4
REMARK VINA RESULT: -5.484294949      2.574      4.004
REMARK  3 active torsions:
REMARK  status: ('A' for Active; 'I' for Inactive)
REMARK    1  A    between atoms: C2_2  and  C3_3 
REMARK    2  A    between atoms: C3_3  and  O1_5 
REMARK    3  A    between atoms: C3_3  and  C5_7 
ROOT
HETATM    1  C5  UNL     1      32.887   1.010 -77.553  1.00  0.00     0.016 C 
HETATM    2  C6  UNL     1      33.208   1.805 -76.304  1.00  0.00     0.023 C 
HETATM    3  C7  UNL     1      31.386   0.777 -77.505  1.00  0.00     0.022 C 
HETATM    4  C8  UNL     1      31.157  -0.616 -78.007  1.00  0.00     0.044 C 
HETATM    5  C9  UNL     1      32.444  -1.290 -77.732  1.00  0.00    -0.006 A 
HETATM    6  C10 UNL     1      33.436  -0.358 -77.456  1.00  0.00    -0.018 A 
HETATM    7  C11 UNL     1      34.677  -0.870 -77.165  1.00  0.00     0.034 A 
HETATM    8 BR1  UNL     1      36.167   0.253 -76.732  1.00  0.00    -0.049 Br
HETATM    9  C12 UNL     1      34.891  -2.225 -77.157  1.00  0.00     0.109 A 
HETATM   10  N1  UNL     1      33.928  -3.084 -77.425  1.00  0.00    -0.351 N 
ATOM     11  H1  UNL     1      34.128  -4.085 -77.410  1.00  0.00     0.166 HD
HETATM   12  C13 UNL     1      32.687  -2.660 -77.718  1.00  0.00     0.105 A 
HETATM   13  N2  UNL     1      31.736  -3.513 -77.982  1.00  0.00    -0.385 N 
ATOM     14  H21 UNL     1      31.915  -4.517 -77.972  1.00  0.00     0.157 HD
ATOM     15  H22 UNL     1      30.794  -3.190 -78.205  1.00  0.00     0.157 HD
ENDROOT
BRANCH   1  16
HETATM   16  C3  UNL     1      33.297   1.783 -78.762  1.00  0.00     0.065 C 
HETATM   17  C4  UNL     1      34.139   3.013 -78.375  1.00  0.00     0.047 C 
BRANCH  16  18
HETATM   18  C2  UNL     1      32.169   2.325 -79.586  1.00  0.00     0.034 C 
HETATM   19  C1  UNL     1      32.665   2.489 -81.029  1.00  0.00     0.008 C 
ENDBRANCH  16  18
BRANCH  16  20
HETATM   20  O1  UNL     1      34.115   1.059 -79.621  1.00  0.00    -0.389 OA
ATOM     21  H1  UNL     1      34.955   0.964 -79.189  1.00  0.00     0.210 HD
ENDBRANCH  16  20
ENDBRANCH   1  16
TORSDOF 3
ENDMDL
MODEL 5
REMARK VINA RESULT: -5.321098719      8.034      9.311
REMARK  3 active torsions:
REMARK  status: ('A' for Active; 'I' for Inactive)
REMARK    1  A    between atoms: C2_2  and  C3_3 
REMARK    2  A    between atoms: C3_3  and  O1_5 
REMARK    3  A    between atoms: C3_3  and  C5_7 
ROOT
HETATM    1  C5  UNL     1      42.220   3.278 -76.985  1.00  0.00     0.016 C 
HETATM    2  C6  UNL     1      41.947   4.760 -77.136  1.00  0.00     0.023 C 
HETATM    3  C7  UNL     1      41.261   2.593 -77.946  1.00  0.00     0.022 C 
HETATM    4  C8  UNL     1      40.778   1.355 -77.253  1.00  0.00     0.044 C 
HETATM    5  C9  UNL     1      40.947   1.682 -75.822  1.00  0.00    -0.006 A 
HETATM    6  C10 UNL     1      41.763   2.796 -75.665  1.00  0.00    -0.018 A 
HETATM    7  C11 UNL     1      41.977   3.206 -74.373  1.00  0.00     0.034 A 
HETATM    8 BR1  UNL     1      43.051   4.736 -73.954  1.00  0.00    -0.049 Br
HETATM    9  C12 UNL     1      41.407   2.535 -73.320  1.00  0.00     0.109 A 
HETATM   10  N1  UNL     1      40.638   1.480 -73.502  1.00  0.00    -0.351 N 
ATOM     11  H1  UNL     1      40.232   1.008 -72.694  1.00  0.00     0.166 HD
HETATM   12  C13 UNL     1      40.380   1.019 -74.738  1.00  0.00     0.105 A 
HETATM   13  N2  UNL     1      39.618  -0.026 -74.913  1.00  0.00    -0.385 N 
ATOM     14  H21 UNL     1      39.203  -0.512 -74.119  1.00  0.00     0.157 HD
ATOM     15  H22 UNL     1      39.423  -0.376 -75.852  1.00  0.00     0.157 HD
ENDROOT
BRANCH   1  16
HETATM   16  C3  UNL     1      43.646   2.991 -77.315  1.00  0.00     0.065 C 
HETATM   17  C4  UNL     1      44.506   4.265 -77.213  1.00  0.00     0.047 C 
BRANCH  16  18
HETATM   18  C2  UNL     1      43.889   2.465 -78.698  1.00  0.00     0.034 C 
HETATM   19  C1  UNL     1      44.890   3.395 -79.396  1.00  0.00     0.008 C 
ENDBRANCH  16  18
BRANCH  16  20
HETATM   20  O1  UNL     1      44.243   2.098 -76.432  1.00  0.00    -0.389 OA
ATOM     21  H1  UNL     1      44.620   1.401 -76.957  1.00  0.00     0.210 HD
ENDBRANCH  16  20
ENDBRANCH   1  16
TORSDOF 3
ENDMDL
