MODEL 1
REMARK VINA RESULT: -5.742060423      0.000      0.000
REMARK  5 active torsions:
REMARK  status: ('A' for Active; 'I' for Inactive)
REMARK    1  A    between atoms: C2_2  and  N1_5 
REMARK    2  A    between atoms: N1_5  and  C5_7 
REMARK    3  A    between atoms: C5_7  and  N2_9 
REMARK    4  A    between atoms: N2_9  and  C6_11 
REMARK    5  A    between atoms: C6_11  and  C7_12 
ROOT
HETATM    1  N2  UNL     1      34.722  -5.076 -78.713  1.00  0.00    -0.360 N 
ATOM      2  H2  UNL     1      35.642  -4.764 -79.025  1.00  0.00     0.162 HD
ENDROOT
BRANCH   1   3
HETATM    3  C5  UNL     1      33.957  -4.164 -77.953  1.00  0.00     0.168 C 
HETATM    4  S1  UNL     1      32.335  -4.274 -77.994  1.00  0.00    -0.041 SA
BRANCH   3   5
HETATM    5  N1  UNL     1      34.536  -3.153 -77.146  1.00  0.00    -0.359 N 
ATOM      6  H1  UNL     1      34.790  -3.385 -76.186  1.00  0.00     0.162 HD
BRANCH   5   7
HETATM    7  C2  UNL     1      34.784  -1.810 -77.618  1.00  0.00     0.021 C 
HETATM    8  C1  UNL     1      35.715  -1.857 -78.812  1.00  0.00     0.037 C 
HETATM    9  C3  UNL     1      35.496  -1.078 -76.507  1.00  0.00     0.037 C 
HETATM   10  C4  UNL     1      33.549  -1.075 -77.996  1.00  0.00     0.037 C 
ENDBRANCH   5   7
ENDBRANCH   3   5
ENDBRANCH   1   3
BRANCH   1  11
HETATM   11  C6  UNL     1      34.324  -6.392 -79.080  1.00  0.00     0.198 C 
BRANCH  11  12
HETATM   12  C7  UNL     1      35.494  -7.324 -79.256  1.00  0.00     0.100 A 
HETATM   13  N3  UNL     1      35.546  -8.635 -78.961  1.00  0.00    -0.338 N 
HETATM   14  C8  UNL     1      36.738  -9.154 -79.243  1.00  0.00     0.096 A 
ATOM     15  H3  UNL     1      34.768  -9.166 -78.570  1.00  0.00     0.168 HD
HETATM   16 BR1  UNL     1      37.205 -10.981 -78.966  1.00  0.00    -0.030 Br
HETATM   17  C9  UNL     1      37.488  -8.119 -79.745  1.00  0.00     0.127 A 
HETATM   18  N4  UNL     1      36.708  -7.023 -79.741  1.00  0.00    -0.352 N 
ATOM     19  H4  UNL     1      36.997  -6.098 -80.061  1.00  0.00     0.166 HD
ENDBRANCH  11  12
ENDBRANCH   1  11
TORSDOF 5
ENDMDL
MODEL 2
REMARK VINA RESULT: -5.711123641      0.096      1.074
REMARK  5 active torsions:
REMARK  status: ('A' for Active; 'I' for Inactive)
REMARK    1  A    between atoms: C2_2  and  N1_5 
REMARK    2  A    between atoms: N1_5  and  C5_7 
REMARK    3  A    between atoms: C5_7  and  N2_9 
REMARK    4  A    between atoms: N2_9  and  C6_11 
REMARK    5  A    between atoms: C6_11  and  C7_12 
ROOT
HETATM    1  N2  UNL     1      34.690  -5.044 -78.649  1.00  0.00    -0.360 N 
ATOM      2  H2  UNL     1      35.635  -4.740 -78.883  1.00  0.00     0.162 HD
ENDROOT
BRANCH   1   3
HETATM    3  C5  UNL     1      33.881  -4.135 -77.932  1.00  0.00     0.168 C 
HETATM    4  S1  UNL     1      32.264  -4.234 -78.082  1.00  0.00    -0.041 SA
BRANCH   3   5
HETATM    5  N1  UNL     1      34.411  -3.138 -77.076  1.00  0.00    -0.359 N 
ATOM      6  H1  UNL     1      34.516  -3.355 -76.085  1.00  0.00     0.162 HD
BRANCH   5   7
HETATM    7  C2  UNL     1      34.809  -1.829 -77.541  1.00  0.00     0.021 C 
HETATM    8  C1  UNL     1      35.577  -1.116 -76.447  1.00  0.00     0.037 C 
HETATM    9  C3  UNL     1      33.543  -1.048 -77.797  1.00  0.00     0.037 C 
HETATM   10  C4  UNL     1      35.639  -1.861 -78.773  1.00  0.00     0.037 C 
ENDBRANCH   5   7
ENDBRANCH   3   5
ENDBRANCH   1   3
BRANCH   1  11
HETATM   11  C6  UNL     1      34.302  -6.346 -79.073  1.00  0.00     0.198 C 
BRANCH  11  12
HETATM   12  C7  UNL     1      35.477  -7.272 -79.250  1.00  0.00     0.100 A 
HETATM   13  N3  UNL     1      35.535  -8.584 -78.963  1.00  0.00    -0.338 N 
HETATM   14  C8  UNL     1      36.730  -9.096 -79.243  1.00  0.00     0.096 A 
ATOM     15  H3  UNL     1      34.758  -9.121 -78.578  1.00  0.00     0.168 HD
HETATM   16 BR1  UNL     1      37.204 -10.922 -78.976  1.00  0.00    -0.030 Br
HETATM   17  C9  UNL     1      37.477  -8.054 -79.737  1.00  0.00     0.127 A 
HETATM   18  N4  UNL     1      36.692  -6.962 -79.729  1.00  0.00    -0.352 N 
ATOM     19  H4  UNL     1      36.977  -6.034 -80.042  1.00  0.00     0.166 HD
ENDBRANCH  11  12
ENDBRANCH   1  11
TORSDOF 5
ENDMDL
MODEL 3
REMARK VINA RESULT: -5.695797836      1.668      1.938
REMARK  5 active torsions:
REMARK  status: ('A' for Active; 'I' for Inactive)
REMARK    1  A    between atoms: C2_2  and  N1_5 
REMARK    2  A    between atoms: N1_5  and  C5_7 
REMARK    3  A    between atoms: C5_7  and  N2_9 
REMARK    4  A    between atoms: N2_9  and  C6_11 
REMARK    5  A    between atoms: C6_11  and  C7_12 
ROOT
HETATM    1  N2  UNL     1      34.495  -5.796 -79.502  1.00  0.00    -0.360 N 
ATOM      2  H2  UNL     1      34.075  -5.760 -80.431  1.00  0.00     0.162 HD
ENDROOT
BRANCH   1   3
HETATM    3  C5  UNL     1      35.100  -4.614 -79.022  1.00  0.00     0.168 C 
HETATM    4  S1  UNL     1      36.282  -3.924 -79.903  1.00  0.00    -0.041 SA
BRANCH   3   5
HETATM    5  N1  UNL     1      34.724  -3.990 -77.807  1.00  0.00    -0.359 N 
ATOM      6  H1  UNL     1      35.381  -4.010 -77.027  1.00  0.00     0.162 HD
BRANCH   5   7
HETATM    7  C2  UNL     1      33.454  -3.327 -77.621  1.00  0.00     0.021 C 
HETATM    8  C1  UNL     1      33.492  -1.964 -78.281  1.00  0.00     0.037 C 
HETATM    9  C3  UNL     1      33.282  -3.114 -76.136  1.00  0.00     0.037 C 
HETATM   10  C4  UNL     1      32.298  -4.092 -78.157  1.00  0.00     0.037 C 
ENDBRANCH   5   7
ENDBRANCH   3   5
ENDBRANCH   1   3
BRANCH   1  11
HETATM   11  C6  UNL     1      34.419  -7.034 -78.804  1.00  0.00     0.198 C 
BRANCH  11  12
HETATM   12  C7  UNL     1      35.589  -7.937 -79.095  1.00  0.00     0.100 A 
HETATM   13  N3  UNL     1      35.738  -9.224 -78.736  1.00  0.00    -0.338 N 
HETATM   14  C8  UNL     1      36.897  -9.721 -79.158  1.00  0.00     0.096 A 
ATOM     15  H3  UNL     1      35.047  -9.754 -78.205  1.00  0.00     0.168 HD
HETATM   16 BR1  UNL     1      37.474 -11.510 -78.848  1.00  0.00    -0.030 Br
HETATM   17  C9  UNL     1      37.523  -8.695 -79.824  1.00  0.00     0.127 A 
HETATM   18  N4  UNL     1      36.707  -7.627 -79.769  1.00  0.00    -0.352 N 
ATOM     19  H4  UNL     1      36.908  -6.715 -80.180  1.00  0.00     0.166 HD
ENDBRANCH  11  12
ENDBRANCH   1  11
TORSDOF 5
ENDMDL
MODEL 4
REMARK VINA RESULT: -5.656885818      2.356      3.041
REMARK  5 active torsions:
REMARK  status: ('A' for Active; 'I' for Inactive)
REMARK    1  A    between atoms: C2_2  and  N1_5 
REMARK    2  A    between atoms: N1_5  and  C5_7 
REMARK    3  A    between atoms: C5_7  and  N2_9 
REMARK    4  A    between atoms: N2_9  and  C6_11 
REMARK    5  A    between atoms: C6_11  and  C7_12 
ROOT
HETATM    1  N2  UNL     1      32.426  -3.504 -77.360  1.00  0.00    -0.360 N 
ATOM      2  H2  UNL     1      32.630  -3.619 -76.367  1.00  0.00     0.162 HD
ENDROOT
BRANCH   1   3
HETATM    3  C5  UNL     1      32.496  -2.194 -77.883  1.00  0.00     0.168 C 
HETATM    4  S1  UNL     1      31.244  -1.184 -77.643  1.00  0.00    -0.041 SA
BRANCH   3   5
HETATM    5  N1  UNL     1      33.615  -1.709 -78.605  1.00  0.00    -0.359 N 
ATOM      6  H1  UNL     1      33.557  -1.674 -79.623  1.00  0.00     0.162 HD
BRANCH   5   7
HETATM    7  C2  UNL     1      34.832  -1.260 -77.969  1.00  0.00     0.021 C 
HETATM    8  C1  UNL     1      34.884   0.254 -77.986  1.00  0.00     0.037 C 
HETATM    9  C3  UNL     1      35.980  -1.769 -78.806  1.00  0.00     0.037 C 
HETATM   10  C4  UNL     1      34.981  -1.734 -76.568  1.00  0.00     0.037 C 
ENDBRANCH   5   7
ENDBRANCH   3   5
ENDBRANCH   1   3
BRANCH   1  11
HETATM   11  C6  UNL     1      32.095  -4.676 -78.095  1.00  0.00     0.198 C 
BRANCH  11  12
HETATM   12  C7  UNL     1      33.297  -5.536 -78.388  1.00  0.00     0.100 A 
HETATM   13  N3  UNL     1      34.535  -5.127 -78.716  1.00  0.00    -0.338 N 
HETATM   14  C8  UNL     1      35.357  -6.154 -78.908  1.00  0.00     0.096 A 
ATOM     15  H3  UNL     1      34.810  -4.149 -78.807  1.00  0.00     0.168 HD
HETATM   16 BR1  UNL     1      37.194  -5.984 -79.385  1.00  0.00    -0.030 Br
HETATM   17  C9  UNL     1      34.604  -7.282 -78.690  1.00  0.00     0.127 A 
HETATM   18  N4  UNL     1      33.360  -6.876 -78.377  1.00  0.00    -0.352 N 
ATOM     19  H4  UNL     1      32.579  -7.496 -78.162  1.00  0.00     0.166 HD
ENDBRANCH  11  12
ENDBRANCH   1  11
TORSDOF 5
ENDMDL
MODEL 5
REMARK VINA RESULT: -5.491307034      1.610      2.357
REMARK  5 active torsions:
REMARK  status: ('A' for Active; 'I' for Inactive)
REMARK    1  A    between atoms: C2_2  and  N1_5 
REMARK    2  A    between atoms: N1_5  and  C5_7 
REMARK    3  A    between atoms: C5_7  and  N2_9 
REMARK    4  A    between atoms: N2_9  and  C6_11 
REMARK    5  A    between atoms: C6_11  and  C7_12 
ROOT
HETATM    1  N2  UNL     1      35.163  -3.512 -78.195  1.00  0.00    -0.360 N 
ATOM      2  H2  UNL     1      35.341  -3.930 -77.282  1.00  0.00     0.162 HD
ENDROOT
BRANCH   1   3
HETATM    3  C5  UNL     1      34.498  -2.267 -78.215  1.00  0.00     0.168 C 
HETATM    4  S1  UNL     1      32.887  -2.233 -77.991  1.00  0.00    -0.041 SA
BRANCH   3   5
HETATM    5  N1  UNL     1      35.169  -1.035 -78.413  1.00  0.00    -0.359 N 
ATOM      6  H1  UNL     1      35.368  -0.739 -79.369  1.00  0.00     0.162 HD
BRANCH   5   7
HETATM    7  C2  UNL     1      35.583  -0.177 -77.327  1.00  0.00     0.021 C 
HETATM    8  C1  UNL     1      34.492   0.832 -77.034  1.00  0.00     0.037 C 
HETATM    9  C3  UNL     1      36.796   0.584 -77.805  1.00  0.00     0.037 C 
HETATM   10  C4  UNL     1      35.910  -0.914 -76.078  1.00  0.00     0.037 C 
ENDBRANCH   5   7
ENDBRANCH   3   5
ENDBRANCH   1   3
BRANCH   1  11
HETATM   11  C6  UNL     1      35.606  -4.236 -79.338  1.00  0.00     0.198 C 
BRANCH  11  12
HETATM   12  C7  UNL     1      35.448  -5.726 -79.178  1.00  0.00     0.100 A 
HETATM   13  N3  UNL     1      36.364  -6.677 -79.432  1.00  0.00    -0.338 N 
HETATM   14  C8  UNL     1      35.890  -7.894 -79.181  1.00  0.00     0.096 A 
ATOM     15  H3  UNL     1      37.306  -6.489 -79.773  1.00  0.00     0.168 HD
HETATM   16 BR1  UNL     1      36.884  -9.502 -79.416  1.00  0.00    -0.030 Br
HETATM   17  C9  UNL     1      34.600  -7.711 -78.744  1.00  0.00     0.127 A 
HETATM   18  N4  UNL     1      34.361  -6.386 -78.753  1.00  0.00    -0.352 N 
ATOM     19  H4  UNL     1      33.482  -5.949 -78.476  1.00  0.00     0.166 HD
ENDBRANCH  11  12
ENDBRANCH   1  11
TORSDOF 5
ENDMDL
