MODEL 1
REMARK VINA RESULT: -9.073986526      0.000      0.000
REMARK  4 active torsions:
REMARK  status: ('A' for Active; 'I' for Inactive)
REMARK    1  A    between atoms: O1_1  and  C1_3 
REMARK    2  A    between atoms: C5_7  and  N1_8 
REMARK    3  A    between atoms: C7_13  and  N3_14 
REMARK    4  A    between atoms: N3_14  and  C8_16 
ROOT
HETATM    1  N1  UNL     1      34.654  -6.331 -78.918  1.00  0.00    -0.367 N 
ATOM      2  H1  UNL     1      33.926  -6.978 -78.617  1.00  0.00     0.161 HD
HETATM    3  C6  UNL     1      35.712  -6.968 -79.168  1.00  0.00     0.140 A 
HETATM    4  N2  UNL     1      35.725  -8.341 -79.009  1.00  0.00    -0.175 N 
ATOM      5  H2  UNL     1      34.869  -8.795 -78.691  1.00  0.00     0.186 HD
HETATM    6  C7  UNL     1      36.789  -9.103 -79.246  1.00  0.00     0.679 A 
HETATM    7  N4  UNL     1      37.949  -8.576 -79.666  1.00  0.00    -0.200 N 
ATOM      8  H4  UNL     1      38.759  -9.167 -79.845  1.00  0.00     0.183 HD
HETATM    9  C13 UNL     1      38.011  -7.250 -79.843  1.00  0.00     0.133 A 
HETATM   10  C14 UNL     1      36.904  -6.437 -79.599  1.00  0.00     0.094 A 
HETATM   11 CL1  UNL     1      37.057  -4.703 -79.852  1.00  0.00    -0.079 Cl
ENDROOT
BRANCH   1  12
HETATM   12  C5  UNL     1      34.163  -5.047 -78.919  1.00  0.00     0.111 C 
HETATM   13  C1  UNL     1      32.746  -5.058 -78.350  1.00  0.00     0.140 C 
HETATM   14  C2  UNL     1      32.752  -4.167 -77.129  1.00  0.00     0.034 C 
HETATM   15  C3  UNL     1      33.966  -3.261 -77.323  1.00  0.00     0.005 C 
HETATM   16  C4  UNL     1      34.979  -4.177 -77.924  1.00  0.00     0.028 C 
BRANCH  13  17
HETATM   17  O1  UNL     1      32.364  -6.337 -77.939  1.00  0.00    -0.394 OA
ATOM     18  H1  UNL     1      32.042  -6.801 -78.703  1.00  0.00     0.210 HD
ENDBRANCH  13  17
ENDBRANCH   1  12
BRANCH   6  19
HETATM   19  N3  UNL     1      36.713 -10.356 -79.073  1.00  0.00    -0.221 N 
ATOM     20  H3  UNL     1      35.807 -10.786 -79.255  1.00  0.00     0.178 HD
BRANCH  19  21
HETATM   21  C8  UNL     1      37.760 -11.232 -78.651  1.00  0.00     0.099 C 
HETATM   22  C9  UNL     1      37.871 -11.407 -77.184  1.00  0.00     0.026 C 
HETATM   23  C10 UNL     1      37.847 -12.890 -76.907  1.00  0.00     0.002 C 
HETATM   24  C11 UNL     1      37.364 -13.556 -78.155  1.00  0.00     0.002 C 
HETATM   25  C12 UNL     1      37.697 -12.588 -79.293  1.00  0.00     0.026 C 
ENDBRANCH  19  21
ENDBRANCH   6  19
TORSDOF 4
ENDMDL
MODEL 2
REMARK VINA RESULT: -7.697737178      3.567      5.781
REMARK  4 active torsions:
REMARK  status: ('A' for Active; 'I' for Inactive)
REMARK    1  A    between atoms: O1_1  and  C1_3 
REMARK    2  A    between atoms: C5_7  and  N1_8 
REMARK    3  A    between atoms: C7_13  and  N3_14 
REMARK    4  A    between atoms: N3_14  and  C8_16 
ROOT
HETATM    1  N1  UNL     1      34.394  -1.322 -77.598  1.00  0.00    -0.367 N 
ATOM      2  H1  UNL     1      35.411  -1.354 -77.530  1.00  0.00     0.161 HD
HETATM    3  C6  UNL     1      33.945  -2.479 -77.814  1.00  0.00     0.140 A 
HETATM    4  N2  UNL     1      34.831  -3.536 -77.918  1.00  0.00    -0.175 N 
ATOM      5  H2  UNL     1      35.826  -3.340 -77.816  1.00  0.00     0.186 HD
HETATM    6  C7  UNL     1      34.458  -4.793 -78.143  1.00  0.00     0.679 A 
HETATM    7  N4  UNL     1      33.167  -5.126 -78.288  1.00  0.00    -0.200 N 
ATOM      8  H4  UNL     1      32.891  -6.092 -78.462  1.00  0.00     0.183 HD
HETATM    9  C13 UNL     1      32.251  -4.153 -78.199  1.00  0.00     0.133 A 
HETATM   10  C14 UNL     1      32.626  -2.830 -77.962  1.00  0.00     0.094 A 
HETATM   11 CL1  UNL     1      31.370  -1.603 -77.857  1.00  0.00    -0.079 Cl
ENDROOT
BRANCH   1  12
HETATM   12  C5  UNL     1      33.958  -0.030 -77.424  1.00  0.00     0.111 C 
HETATM   13  C1  UNL     1      34.837   0.653 -76.379  1.00  0.00     0.140 C 
HETATM   14  C2  UNL     1      35.482   1.843 -77.051  1.00  0.00     0.034 C 
HETATM   15  C3  UNL     1      34.581   2.139 -78.249  1.00  0.00     0.005 C 
HETATM   16  C4  UNL     1      34.198   0.780 -78.728  1.00  0.00     0.028 C 
BRANCH  13  17
HETATM   17  O1  UNL     1      35.860  -0.188 -75.935  1.00  0.00    -0.394 OA
ATOM     18  H1  UNL     1      36.054  -0.800 -76.634  1.00  0.00     0.210 HD
ENDBRANCH  13  17
ENDBRANCH   1  12
BRANCH   6  19
HETATM   19  N3  UNL     1      35.337  -5.702 -78.226  1.00  0.00    -0.221 N 
ATOM     20  H3  UNL     1      35.673  -6.091 -77.345  1.00  0.00     0.178 HD
BRANCH  19  21
HETATM   21  C8  UNL     1      35.910  -6.241 -79.419  1.00  0.00     0.099 C 
HETATM   22  C9  UNL     1      37.381  -6.097 -79.523  1.00  0.00     0.026 C 
HETATM   23  C10 UNL     1      37.946  -7.469 -79.797  1.00  0.00     0.002 C 
HETATM   24  C11 UNL     1      36.862  -8.452 -79.496  1.00  0.00     0.002 C 
HETATM   25  C12 UNL     1      35.550  -7.680 -79.654  1.00  0.00     0.026 C 
ENDBRANCH  19  21
ENDBRANCH   6  19
TORSDOF 4
ENDMDL
MODEL 3
REMARK VINA RESULT: -7.493501167      4.944      7.393
REMARK  4 active torsions:
REMARK  status: ('A' for Active; 'I' for Inactive)
REMARK    1  A    between atoms: O1_1  and  C1_3 
REMARK    2  A    between atoms: C5_7  and  N1_8 
REMARK    3  A    between atoms: C7_13  and  N3_14 
REMARK    4  A    between atoms: N3_14  and  C8_16 
ROOT
HETATM    1  N1  UNL     1      34.281   0.591 -78.748  1.00  0.00    -0.367 N 
ATOM      2  H1  UNL     1      35.272   0.520 -78.979  1.00  0.00     0.161 HD
HETATM    3  C6  UNL     1      33.833  -0.545 -78.441  1.00  0.00     0.140 A 
HETATM    4  N2  UNL     1      34.686  -1.633 -78.463  1.00  0.00    -0.175 N 
ATOM      5  H2  UNL     1      35.658  -1.476 -78.730  1.00  0.00     0.186 HD
HETATM    6  C7  UNL     1      34.313  -2.872 -78.156  1.00  0.00     0.679 A 
HETATM    7  N4  UNL     1      33.051  -3.155 -77.796  1.00  0.00    -0.200 N 
ATOM      8  H4  UNL     1      32.774  -4.108 -77.563  1.00  0.00     0.183 HD
HETATM    9  C13 UNL     1      32.168  -2.150 -77.752  1.00  0.00     0.133 A 
HETATM   10  C14 UNL     1      32.545  -0.844 -78.070  1.00  0.00     0.094 A 
HETATM   11 CL1  UNL     1      31.332   0.427 -77.992  1.00  0.00    -0.079 Cl
ENDROOT
BRANCH   1  12
HETATM   12  C5  UNL     1      33.867   1.896 -78.872  1.00  0.00     0.111 C 
HETATM   13  C1  UNL     1      35.076   2.816 -78.715  1.00  0.00     0.140 C 
HETATM   14  C2  UNL     1      35.201   3.607 -79.997  1.00  0.00     0.034 C 
HETATM   15  C3  UNL     1      33.810   3.541 -80.623  1.00  0.00     0.005 C 
HETATM   16  C4  UNL     1      33.368   2.149 -80.321  1.00  0.00     0.028 C 
BRANCH  13  17
HETATM   17  O1  UNL     1      36.258   2.092 -78.547  1.00  0.00    -0.394 OA
ATOM     18  H1  UNL     1      36.981   2.659 -78.790  1.00  0.00     0.210 HD
ENDBRANCH  13  17
ENDBRANCH   1  12
BRANCH   6  19
HETATM   19  N3  UNL     1      35.161  -3.812 -78.203  1.00  0.00    -0.221 N 
ATOM     20  H3  UNL     1      35.737  -3.946 -77.372  1.00  0.00     0.178 HD
BRANCH  19  21
HETATM   21  C8  UNL     1      35.397  -4.706 -79.292  1.00  0.00     0.099 C 
HETATM   22  C9  UNL     1      36.817  -5.083 -79.491  1.00  0.00     0.026 C 
HETATM   23  C10 UNL     1      36.879  -6.590 -79.518  1.00  0.00     0.002 C 
HETATM   24  C11 UNL     1      35.576  -7.088 -78.981  1.00  0.00     0.002 C 
HETATM   25  C12 UNL     1      34.572  -5.959 -79.225  1.00  0.00     0.026 C 
ENDBRANCH  19  21
ENDBRANCH   6  19
TORSDOF 4
ENDMDL
MODEL 4
REMARK VINA RESULT: -7.341219200      6.299      9.130
REMARK  4 active torsions:
REMARK  status: ('A' for Active; 'I' for Inactive)
REMARK    1  A    between atoms: O1_1  and  C1_3 
REMARK    2  A    between atoms: C5_7  and  N1_8 
REMARK    3  A    between atoms: C7_13  and  N3_14 
REMARK    4  A    between atoms: N3_14  and  C8_16 
ROOT
HETATM    1  N1  UNL     1      37.998   0.757 -76.298  1.00  0.00    -0.367 N 
ATOM      2  H1  UNL     1      38.400  -0.166 -76.129  1.00  0.00     0.161 HD
HETATM    3  C6  UNL     1      36.779   0.642 -76.593  1.00  0.00     0.140 A 
HETATM    4  N2  UNL     1      36.213  -0.618 -76.640  1.00  0.00    -0.175 N 
ATOM      5  H2  UNL     1      36.809  -1.420 -76.433  1.00  0.00     0.186 HD
HETATM    6  C7  UNL     1      34.938  -0.845 -76.940  1.00  0.00     0.679 A 
HETATM    7  N4  UNL     1      34.095   0.159 -77.224  1.00  0.00    -0.200 N 
ATOM      8  H4  UNL     1      33.118  -0.025 -77.453  1.00  0.00     0.183 HD
HETATM    9  C13 UNL     1      34.573   1.410 -77.197  1.00  0.00     0.133 A 
HETATM   10  C14 UNL     1      35.908   1.664 -76.883  1.00  0.00     0.094 A 
HETATM   11 CL1  UNL     1      36.469   3.331 -76.867  1.00  0.00    -0.079 Cl
ENDROOT
BRANCH   1  12
HETATM   12  C5  UNL     1      38.963   1.721 -76.129  1.00  0.00     0.111 C 
HETATM   13  C1  UNL     1      40.089   1.151 -75.270  1.00  0.00     0.140 C 
HETATM   14  C2  UNL     1      41.353   1.212 -76.096  1.00  0.00     0.034 C 
HETATM   15  C3  UNL     1      41.064   2.274 -77.156  1.00  0.00     0.005 C 
HETATM   16  C4  UNL     1      39.633   2.032 -77.496  1.00  0.00     0.028 C 
BRANCH  13  17
HETATM   17  O1  UNL     1      39.862  -0.188 -74.942  1.00  0.00    -0.394 OA
ATOM     18  H1  UNL     1      38.929  -0.295 -74.799  1.00  0.00     0.210 HD
ENDBRANCH  13  17
ENDBRANCH   1  12
BRANCH   6  19
HETATM   19  N3  UNL     1      34.501  -2.035 -76.961  1.00  0.00    -0.221 N 
ATOM     20  H3  UNL     1      34.493  -2.532 -76.071  1.00  0.00     0.178 HD
BRANCH  19  21
HETATM   21  C8  UNL     1      34.018  -2.755 -78.097  1.00  0.00     0.099 C 
HETATM   22  C9  UNL     1      34.860  -3.902 -78.512  1.00  0.00     0.026 C 
HETATM   23  C10 UNL     1      33.963  -5.111 -78.586  1.00  0.00     0.002 C 
HETATM   24  C11 UNL     1      32.696  -4.757 -77.877  1.00  0.00     0.002 C 
HETATM   25  C12 UNL     1      32.601  -3.231 -77.942  1.00  0.00     0.026 C 
ENDBRANCH  19  21
ENDBRANCH   6  19
TORSDOF 4
ENDMDL
MODEL 5
REMARK VINA RESULT: -7.201928789      5.402     10.530
REMARK  4 active torsions:
REMARK  status: ('A' for Active; 'I' for Inactive)
REMARK    1  A    between atoms: O1_1  and  C1_3 
REMARK    2  A    between atoms: C5_7  and  N1_8 
REMARK    3  A    between atoms: C7_13  and  N3_14 
REMARK    4  A    between atoms: N3_14  and  C8_16 
ROOT
HETATM    1  N1  UNL     1      33.299  -2.267 -77.892  1.00  0.00    -0.367 N 
ATOM      2  H1  UNL     1      32.449  -2.442 -78.429  1.00  0.00     0.161 HD
HETATM    3  C6  UNL     1      33.442  -1.029 -77.713  1.00  0.00     0.140 A 
HETATM    4  N2  UNL     1      32.500  -0.160 -78.231  1.00  0.00    -0.175 N 
ATOM      5  H2  UNL     1      31.714  -0.556 -78.746  1.00  0.00     0.186 HD
HETATM    6  C7  UNL     1      32.560   1.162 -78.097  1.00  0.00     0.679 A 
HETATM    7  N4  UNL     1      33.564   1.754 -77.433  1.00  0.00    -0.200 N 
ATOM      8  H4  UNL     1      33.602   2.768 -77.335  1.00  0.00     0.183 HD
HETATM    9  C13 UNL     1      34.515   0.974 -76.903  1.00  0.00     0.133 A 
HETATM   10  C14 UNL     1      34.466  -0.414 -77.034  1.00  0.00     0.094 A 
HETATM   11 CL1  UNL     1      35.749  -1.376 -76.313  1.00  0.00    -0.079 Cl
ENDROOT
BRANCH   1  12
HETATM   12  C5  UNL     1      33.916  -3.460 -77.599  1.00  0.00     0.111 C 
HETATM   13  C1  UNL     1      32.862  -4.565 -77.555  1.00  0.00     0.140 C 
HETATM   14  C2  UNL     1      33.241  -5.582 -78.606  1.00  0.00     0.034 C 
HETATM   15  C3  UNL     1      34.731  -5.346 -78.846  1.00  0.00     0.005 C 
HETATM   16  C4  UNL     1      34.855  -3.862 -78.770  1.00  0.00     0.028 C 
BRANCH  13  17
HETATM   17  O1  UNL     1      31.591  -4.080 -77.873  1.00  0.00    -0.394 OA
ATOM     18  H1  UNL     1      31.269  -4.581 -78.613  1.00  0.00     0.210 HD
ENDBRANCH  13  17
ENDBRANCH   1  12
BRANCH   6  19
HETATM   19  N3  UNL     1      31.652   1.885 -78.605  1.00  0.00    -0.221 N 
ATOM     20  H3  UNL     1      31.737   2.089 -79.600  1.00  0.00     0.178 HD
BRANCH  19  21
HETATM   21  C8  UNL     1      30.523   2.449 -77.934  1.00  0.00     0.099 C 
HETATM   22  C9  UNL     1      30.116   1.740 -76.698  1.00  0.00     0.026 C 
HETATM   23  C10 UNL     1      30.052   2.767 -75.595  1.00  0.00     0.002 C 
HETATM   24  C11 UNL     1      30.760   3.985 -76.094  1.00  0.00     0.002 C 
HETATM   25  C12 UNL     1      30.684   3.909 -77.621  1.00  0.00     0.026 C 
ENDBRANCH  19  21
ENDBRANCH   6  19
TORSDOF 4
ENDMDL
