MODEL 1
REMARK VINA RESULT: -7.530315648      0.000      0.000
REMARK  4 active torsions:
REMARK  status: ('A' for Active; 'I' for Inactive)
REMARK    1  A    between atoms: C1_2  and  N1_3 
REMARK    2  A    between atoms: C1_2  and  N2_12 
REMARK    3  A    between atoms: N1_3  and  C2_5 
REMARK    4  A    between atoms: N2_12  and  C8_14 
ROOT
HETATM    1  N2  UNL     1      32.786  -1.887 -78.423  1.00  0.00    -0.362 N 
ATOM      2  H2  UNL     1      32.590  -1.899 -79.424  1.00  0.00     0.162 HD
ENDROOT
BRANCH   1   3
HETATM    3  C1  UNL     1      33.692  -2.866 -77.893  1.00  0.00     0.172 C 
HETATM    4  S1  UNL     1      34.774  -2.321 -76.820  1.00  0.00    -0.041 SA
BRANCH   3   5
HETATM    5  N1  UNL     1      33.607  -4.208 -78.264  1.00  0.00    -0.333 N 
ATOM      6  H1  UNL     1      32.668  -4.604 -78.219  1.00  0.00     0.168 HD
BRANCH   5   7
HETATM    7  C2  UNL     1      34.608  -5.107 -78.691  1.00  0.00     0.034 A 
HETATM    8  C3  UNL     1      35.864  -4.742 -79.070  1.00  0.00     0.031 A 
HETATM    9  C4  UNL     1      36.831  -5.679 -79.456  1.00  0.00     0.026 A 
HETATM   10  C5  UNL     1      36.511  -7.009 -79.454  1.00  0.00     0.034 A 
HETATM   11 CL1  UNL     1      37.733  -8.173 -79.939  1.00  0.00    -0.084 Cl
HETATM   12  C6  UNL     1      35.251  -7.416 -79.077  1.00  0.00     0.026 A 
HETATM   13  C7  UNL     1      34.333  -6.482 -78.708  1.00  0.00     0.031 A 
ENDBRANCH   5   7
ENDBRANCH   3   5
ENDBRANCH   1   3
BRANCH   1  14
HETATM   14  C8  UNL     1      32.134  -0.881 -77.605  1.00  0.00     0.084 C 
HETATM   15  C9  UNL     1      30.646  -0.854 -77.878  1.00  0.00     0.032 C 
HETATM   16  C10 UNL     1      30.335   0.477 -78.483  1.00  0.00     0.019 C 
HETATM   17  C11 UNL     1      29.065   1.085 -77.916  1.00  0.00     0.237 C 
HETATM   18  C13 UNL     1      31.391   1.349 -77.811  1.00  0.00     0.019 C 
HETATM   19  N3  UNL     1      29.414   1.722 -76.679  1.00  0.00    -0.074 N 
HETATM   20  C12 UNL     1      30.823   1.507 -76.444  1.00  0.00     0.237 C 
ATOM     21  H32 UNL     1      29.157   2.709 -76.659  1.00  0.00     0.277 HD
ATOM     22  H31 UNL     1      28.832   1.413 -75.899  1.00  0.00     0.277 HD
HETATM   23  C14 UNL     1      32.613   0.512 -77.886  1.00  0.00     0.032 C 
ENDBRANCH   1  14
TORSDOF 4
ENDMDL
MODEL 2
REMARK VINA RESULT: -7.441885051      0.682      1.237
REMARK  4 active torsions:
REMARK  status: ('A' for Active; 'I' for Inactive)
REMARK    1  A    between atoms: C1_2  and  N1_3 
REMARK    2  A    between atoms: C1_2  and  N2_12 
REMARK    3  A    between atoms: N1_3  and  C2_5 
REMARK    4  A    between atoms: N2_12  and  C8_14 
ROOT
HETATM    1  N2  UNL     1      32.910  -2.149 -78.326  1.00  0.00    -0.362 N 
ATOM      2  H2  UNL     1      32.365  -2.577 -79.074  1.00  0.00     0.162 HD
ENDROOT
BRANCH   1   3
HETATM    3  C1  UNL     1      34.225  -2.660 -78.060  1.00  0.00     0.172 C 
HETATM    4  S1  UNL     1      34.788  -2.421 -76.562  1.00  0.00    -0.041 SA
BRANCH   3   5
HETATM    5  N1  UNL     1      34.943  -3.351 -79.035  1.00  0.00    -0.333 N 
ATOM      6  H1  UNL     1      35.259  -2.778 -79.818  1.00  0.00     0.168 HD
BRANCH   5   7
HETATM    7  C2  UNL     1      35.306  -4.712 -79.116  1.00  0.00     0.034 A 
HETATM    8  C3  UNL     1      34.437  -5.753 -78.982  1.00  0.00     0.031 A 
HETATM    9  C4  UNL     1      34.844  -7.088 -79.103  1.00  0.00     0.026 A 
HETATM   10  C5  UNL     1      36.157  -7.365 -79.364  1.00  0.00     0.034 A 
HETATM   11 CL1  UNL     1      36.654  -9.043 -79.514  1.00  0.00    -0.084 Cl
HETATM   12  C6  UNL     1      37.066  -6.340 -79.506  1.00  0.00     0.026 A 
HETATM   13  C7  UNL     1      36.640  -5.053 -79.383  1.00  0.00     0.031 A 
ENDBRANCH   5   7
ENDBRANCH   3   5
ENDBRANCH   1   3
BRANCH   1  14
HETATM   14  C8  UNL     1      32.317  -1.053 -77.582  1.00  0.00     0.084 C 
HETATM   15  C9  UNL     1      30.816  -1.031 -77.770  1.00  0.00     0.032 C 
HETATM   16  C10 UNL     1      30.483   0.235 -78.493  1.00  0.00     0.019 C 
HETATM   17  C11 UNL     1      29.255   0.919 -77.921  1.00  0.00     0.237 C 
HETATM   18  C13 UNL     1      31.585   1.155 -77.978  1.00  0.00     0.019 C 
HETATM   19  N3  UNL     1      29.682   1.676 -76.780  1.00  0.00    -0.074 N 
HETATM   20  C12 UNL     1      31.100   1.464 -76.605  1.00  0.00     0.237 C 
ATOM     21  H32 UNL     1      29.436   2.663 -76.849  1.00  0.00     0.277 HD
ATOM     22  H31 UNL     1      29.144   1.459 -75.940  1.00  0.00     0.277 HD
HETATM   23  C14 UNL     1      32.793   0.295 -78.034  1.00  0.00     0.032 C 
ENDBRANCH   1  14
TORSDOF 4
ENDMDL
MODEL 3
REMARK VINA RESULT: -7.245379537      2.783      4.033
REMARK  4 active torsions:
REMARK  status: ('A' for Active; 'I' for Inactive)
REMARK    1  A    between atoms: C1_2  and  N1_3 
REMARK    2  A    between atoms: C1_2  and  N2_12 
REMARK    3  A    between atoms: N1_3  and  C2_5 
REMARK    4  A    between atoms: N2_12  and  C8_14 
ROOT
HETATM    1  N2  UNL     1      32.957  -0.429 -78.712  1.00  0.00    -0.362 N 
ATOM      2  H2  UNL     1      32.818  -0.548 -79.715  1.00  0.00     0.162 HD
ENDROOT
BRANCH   1   3
HETATM    3  C1  UNL     1      32.141  -1.194 -77.813  1.00  0.00     0.172 C 
HETATM    4  S1  UNL     1      30.634  -0.647 -77.587  1.00  0.00    -0.041 SA
BRANCH   3   5
HETATM    5  N1  UNL     1      32.621  -2.354 -77.208  1.00  0.00    -0.333 N 
ATOM      6  H1  UNL     1      32.495  -2.392 -76.197  1.00  0.00     0.168 HD
BRANCH   5   7
HETATM    7  C2  UNL     1      33.254  -3.485 -77.767  1.00  0.00     0.034 A 
HETATM    8  C3  UNL     1      34.570  -3.542 -78.114  1.00  0.00     0.031 A 
HETATM    9  C4  UNL     1      35.157  -4.702 -78.637  1.00  0.00     0.026 A 
HETATM   10  C5  UNL     1      34.389  -5.821 -78.807  1.00  0.00     0.034 A 
HETATM   11 CL1  UNL     1      35.137  -7.269 -79.462  1.00  0.00    -0.084 Cl
HETATM   12  C6  UNL     1      33.055  -5.802 -78.467  1.00  0.00     0.026 A 
HETATM   13  C7  UNL     1      32.513  -4.660 -77.962  1.00  0.00     0.031 A 
ENDBRANCH   5   7
ENDBRANCH   3   5
ENDBRANCH   1   3
BRANCH   1  14
HETATM   14  C8  UNL     1      33.972   0.507 -78.265  1.00  0.00     0.084 C 
HETATM   15  C9  UNL     1      35.299  -0.195 -78.076  1.00  0.00     0.032 C 
HETATM   16  C10 UNL     1      35.627  -0.130 -76.619  1.00  0.00     0.019 C 
HETATM   17  C11 UNL     1      37.087   0.202 -76.373  1.00  0.00     0.237 C 
HETATM   18  C13 UNL     1      34.969   1.192 -76.239  1.00  0.00     0.019 C 
HETATM   19  N3  UNL     1      37.224   1.626 -76.474  1.00  0.00    -0.074 N 
HETATM   20  C12 UNL     1      35.931   2.179 -76.803  1.00  0.00     0.237 C 
ATOM     21  H32 UNL     1      37.630   2.043 -75.636  1.00  0.00     0.277 HD
ATOM     22  H31 UNL     1      37.952   1.906 -77.132  1.00  0.00     0.277 HD
HETATM   23  C14 UNL     1      33.661   1.128 -76.936  1.00  0.00     0.032 C 
ENDBRANCH   1  14
TORSDOF 4
ENDMDL
MODEL 4
REMARK VINA RESULT: -7.134102492      2.578      3.450
REMARK  4 active torsions:
REMARK  status: ('A' for Active; 'I' for Inactive)
REMARK    1  A    between atoms: C1_2  and  N1_3 
REMARK    2  A    between atoms: C1_2  and  N2_12 
REMARK    3  A    between atoms: N1_3  and  C2_5 
REMARK    4  A    between atoms: N2_12  and  C8_14 
ROOT
HETATM    1  N2  UNL     1      34.466  -3.101 -77.682  1.00  0.00    -0.362 N 
ATOM      2  H2  UNL     1      34.853  -3.143 -76.739  1.00  0.00     0.162 HD
ENDROOT
BRANCH   1   3
HETATM    3  C1  UNL     1      34.090  -4.330 -78.322  1.00  0.00     0.172 C 
HETATM    4  S1  UNL     1      32.603  -4.874 -77.990  1.00  0.00    -0.041 SA
BRANCH   3   5
HETATM    5  N1  UNL     1      34.954  -4.982 -79.201  1.00  0.00    -0.333 N 
ATOM      6  H1  UNL     1      35.249  -4.424 -80.002  1.00  0.00     0.168 HD
BRANCH   5   7
HETATM    7  C2  UNL     1      35.487  -6.288 -79.163  1.00  0.00     0.034 A 
HETATM    8  C3  UNL     1      34.802  -7.391 -78.751  1.00  0.00     0.031 A 
HETATM    9  C4  UNL     1      35.369  -8.672 -78.763  1.00  0.00     0.026 A 
HETATM   10  C5  UNL     1      36.655  -8.830 -79.204  1.00  0.00     0.034 A 
HETATM   11 CL1  UNL     1      37.353 -10.441 -79.215  1.00  0.00    -0.084 Cl
HETATM   12  C6  UNL     1      37.379  -7.738 -79.628  1.00  0.00     0.026 A 
HETATM   13  C7  UNL     1      36.801  -6.507 -79.604  1.00  0.00     0.031 A 
ENDBRANCH   5   7
ENDBRANCH   3   5
ENDBRANCH   1   3
BRANCH   1  14
HETATM   14  C8  UNL     1      34.322  -1.801 -78.309  1.00  0.00     0.084 C 
HETATM   15  C9  UNL     1      35.550  -0.952 -78.067  1.00  0.00     0.032 C 
HETATM   16  C10 UNL     1      35.123   0.210 -77.229  1.00  0.00     0.019 C 
HETATM   17  C11 UNL     1      35.738   1.516 -77.699  1.00  0.00     0.237 C 
HETATM   18  C13 UNL     1      33.685   0.389 -77.704  1.00  0.00     0.019 C 
HETATM   19  N3  UNL     1      34.938   1.998 -78.786  1.00  0.00    -0.074 N 
HETATM   20  C12 UNL     1      33.885   1.039 -79.029  1.00  0.00     0.237 C 
ATOM     21  H32 UNL     1      34.584   2.940 -78.626  1.00  0.00     0.277 HD
ATOM     22  H31 UNL     1      35.488   2.198 -79.622  1.00  0.00     0.277 HD
HETATM   23  C14 UNL     1      33.175  -1.003 -77.763  1.00  0.00     0.032 C 
ENDBRANCH   1  14
TORSDOF 4
ENDMDL
MODEL 5
REMARK VINA RESULT: -7.133555118      2.841      3.324
REMARK  4 active torsions:
REMARK  status: ('A' for Active; 'I' for Inactive)
REMARK    1  A    between atoms: C1_2  and  N1_3 
REMARK    2  A    between atoms: C1_2  and  N2_12 
REMARK    3  A    between atoms: N1_3  and  C2_5 
REMARK    4  A    between atoms: N2_12  and  C8_14 
ROOT
HETATM    1  N2  UNL     1      35.302  -2.671 -77.271  1.00  0.00    -0.362 N 
ATOM      2  H2  UNL     1      36.247  -2.974 -77.034  1.00  0.00     0.162 HD
ENDROOT
BRANCH   1   3
HETATM    3  C1  UNL     1      34.459  -3.575 -78.001  1.00  0.00     0.172 C 
HETATM    4  S1  UNL     1      32.911  -3.633 -77.532  1.00  0.00    -0.041 SA
BRANCH   3   5
HETATM    5  N1  UNL     1      34.952  -4.322 -79.070  1.00  0.00    -0.333 N 
ATOM      6  H1  UNL     1      34.993  -3.822 -79.957  1.00  0.00     0.168 HD
BRANCH   5   7
HETATM    7  C2  UNL     1      35.403  -5.659 -79.124  1.00  0.00     0.034 A 
HETATM    8  C3  UNL     1      34.623  -6.749 -78.881  1.00  0.00     0.031 A 
HETATM    9  C4  UNL     1      35.114  -8.057 -78.979  1.00  0.00     0.026 A 
HETATM   10  C5  UNL     1      36.421  -8.256 -79.331  1.00  0.00     0.034 A 
HETATM   11 CL1  UNL     1      37.022  -9.902 -79.451  1.00  0.00    -0.084 Cl
HETATM   12  C6  UNL     1      37.240  -7.179 -79.583  1.00  0.00     0.026 A 
HETATM   13  C7  UNL     1      36.735  -5.920 -79.479  1.00  0.00     0.031 A 
ENDBRANCH   5   7
ENDBRANCH   3   5
ENDBRANCH   1   3
BRANCH   1  14
HETATM   14  C8  UNL     1      34.877  -1.348 -76.854  1.00  0.00     0.084 C 
HETATM   15  C9  UNL     1      34.523  -0.498 -78.054  1.00  0.00     0.032 C 
HETATM   16  C10 UNL     1      35.509   0.625 -78.103  1.00  0.00     0.019 C 
HETATM   17  C11 UNL     1      34.851   1.954 -78.426  1.00  0.00     0.237 C 
HETATM   18  C13 UNL     1      35.803   0.809 -76.618  1.00  0.00     0.019 C 
HETATM   19  N3  UNL     1      34.312   2.472 -77.203  1.00  0.00    -0.074 N 
HETATM   20  C12 UNL     1      34.576   1.514 -76.154  1.00  0.00     0.237 C 
ATOM     21  H32 UNL     1      34.663   3.404 -76.982  1.00  0.00     0.277 HD
ATOM     22  H31 UNL     1      33.323   2.712 -77.278  1.00  0.00     0.277 HD
HETATM   23  C14 UNL     1      35.945  -0.584 -76.129  1.00  0.00     0.032 C 
ENDBRANCH   1  14
TORSDOF 4
ENDMDL
