MODEL 1
REMARK VINA RESULT: -4.756431248      0.000      0.000
REMARK  4 active torsions:
REMARK  status: ('A' for Active; 'I' for Inactive)
REMARK    1  A    between atoms: C2_2  and  C3_3 
REMARK    2  A    between atoms: C3_3  and  O1_4 
REMARK    3  A    between atoms: O1_4  and  C4_5 
REMARK    4  A    between atoms: C4_5  and  C5_6 
ROOT
HETATM    1  C5  UNL     1      25.144  36.615  60.182  1.00  0.00    -0.018 A 
HETATM    2  C6  UNL     1      25.426  37.157  58.927  1.00  0.00     0.027 A 
HETATM    3  C7  UNL     1      26.457  38.057  59.036  1.00  0.00     0.088 A 
HETATM    4  N1  UNL     1      26.824  38.087  60.333  1.00  0.00    -0.375 N 
ATOM      5  H1  UNL     1      27.568  38.663  60.726  1.00  0.00     0.164 HD
HETATM    6  C8  UNL     1      26.040  37.224  61.029  1.00  0.00     0.096 A 
ENDROOT
BRANCH   1   7
HETATM    7  C4  UNL     1      24.093  35.619  60.479  1.00  0.00     0.208 C 
BRANCH   7   8
HETATM    8  O1  UNL     1      23.132  36.098  61.352  1.00  0.00    -0.383 OA
BRANCH   8   9
HETATM    9  C3  UNL     1      21.996  36.595  60.760  1.00  0.00     0.194 C 
BRANCH   9  10
HETATM   10  C2  UNL     1      21.680  37.973  61.272  1.00  0.00    -0.011 C 
HETATM   11  C1  UNL     1      22.366  39.024  60.871  1.00  0.00     0.009 C 
ENDBRANCH   9  10
ENDBRANCH   8   9
ENDBRANCH   7   8
ENDBRANCH   1   7
TORSDOF 4
ENDMDL
MODEL 2
REMARK VINA RESULT: -4.689032287      1.832      2.341
REMARK  4 active torsions:
REMARK  status: ('A' for Active; 'I' for Inactive)
REMARK    1  A    between atoms: C2_2  and  C3_3 
REMARK    2  A    between atoms: C3_3  and  O1_4 
REMARK    3  A    between atoms: O1_4  and  C4_5 
REMARK    4  A    between atoms: C4_5  and  C5_6 
ROOT
HETATM    1  C5  UNL     1      24.571  37.093  60.966  1.00  0.00    -0.018 A 
HETATM    2  C6  UNL     1      25.784  37.380  60.338  1.00  0.00     0.027 A 
HETATM    3  C7  UNL     1      26.095  36.375  59.457  1.00  0.00     0.088 A 
HETATM    4  N1  UNL     1      25.100  35.466  59.522  1.00  0.00    -0.375 N 
ATOM      5  H1  UNL     1      25.047  34.603  58.981  1.00  0.00     0.164 HD
HETATM    6  C8  UNL     1      24.181  35.890  60.426  1.00  0.00     0.096 A 
ENDROOT
BRANCH   1   7
HETATM    7  C4  UNL     1      23.906  37.929  61.988  1.00  0.00     0.208 C 
BRANCH   7   8
HETATM    8  O1  UNL     1      23.819  39.260  61.619  1.00  0.00    -0.383 OA
BRANCH   8   9
HETATM    9  C3  UNL     1      22.833  39.552  60.707  1.00  0.00     0.194 C 
BRANCH   9  10
HETATM   10  C2  UNL     1      21.518  38.956  61.127  1.00  0.00    -0.011 C 
HETATM   11  C1  UNL     1      20.652  38.518  60.237  1.00  0.00     0.009 C 
ENDBRANCH   9  10
ENDBRANCH   8   9
ENDBRANCH   7   8
ENDBRANCH   1   7
TORSDOF 4
ENDMDL
MODEL 3
REMARK VINA RESULT: -4.655399387      1.912      2.730
REMARK  4 active torsions:
REMARK  status: ('A' for Active; 'I' for Inactive)
REMARK    1  A    between atoms: C2_2  and  C3_3 
REMARK    2  A    between atoms: C3_3  and  O1_4 
REMARK    3  A    between atoms: O1_4  and  C4_5 
REMARK    4  A    between atoms: C4_5  and  C5_6 
ROOT
HETATM    1  C5  UNL     1      24.686  37.189  60.141  1.00  0.00    -0.018 A 
HETATM    2  C6  UNL     1      23.848  36.240  60.729  1.00  0.00     0.027 A 
HETATM    3  C7  UNL     1      24.165  34.991  60.257  1.00  0.00     0.088 A 
HETATM    4  N1  UNL     1      25.183  35.141  59.386  1.00  0.00    -0.375 N 
ATOM      5  H1  UNL     1      25.639  34.389  58.869  1.00  0.00     0.164 HD
HETATM    6  C8  UNL     1      25.502  36.459  59.310  1.00  0.00     0.096 A 
ENDROOT
BRANCH   1   7
HETATM    7  C4  UNL     1      24.649  38.647  60.384  1.00  0.00     0.208 C 
BRANCH   7   8
HETATM    8  O1  UNL     1      23.428  39.213  60.064  1.00  0.00    -0.383 OA
BRANCH   8   9
HETATM    9  C3  UNL     1      22.683  39.645  61.135  1.00  0.00     0.194 C 
BRANCH   9  10
HETATM   10  C2  UNL     1      21.384  38.892  61.226  1.00  0.00    -0.011 C 
HETATM   11  C1  UNL     1      20.770  38.457  60.145  1.00  0.00     0.009 C 
ENDBRANCH   9  10
ENDBRANCH   8   9
ENDBRANCH   7   8
ENDBRANCH   1   7
TORSDOF 4
ENDMDL
MODEL 4
REMARK VINA RESULT: -4.632232667      1.893      2.695
REMARK  4 active torsions:
REMARK  status: ('A' for Active; 'I' for Inactive)
REMARK    1  A    between atoms: C2_2  and  C3_3 
REMARK    2  A    between atoms: C3_3  and  O1_4 
REMARK    3  A    between atoms: O1_4  and  C4_5 
REMARK    4  A    between atoms: C4_5  and  C5_6 
ROOT
HETATM    1  C5  UNL     1      24.886  38.712  59.776  1.00  0.00    -0.018 A 
HETATM    2  C6  UNL     1      25.925  37.989  60.363  1.00  0.00     0.027 A 
HETATM    3  C7  UNL     1      26.154  36.844  59.641  1.00  0.00     0.088 A 
HETATM    4  N1  UNL     1      25.279  36.838  58.615  1.00  0.00    -0.375 N 
ATOM      5  H1  UNL     1      25.205  36.113  57.902  1.00  0.00     0.164 HD
HETATM    6  C8  UNL     1      24.513  37.957  58.689  1.00  0.00     0.096 A 
ENDROOT
BRANCH   1   7
HETATM    7  C4  UNL     1      24.339  39.995  60.266  1.00  0.00     0.208 C 
BRANCH   7   8
HETATM    8  O1  UNL     1      22.974  39.945  60.489  1.00  0.00    -0.383 OA
BRANCH   8   9
HETATM    9  C3  UNL     1      22.587  39.241  61.604  1.00  0.00     0.194 C 
BRANCH   9  10
HETATM   10  C2  UNL     1      21.632  38.137  61.239  1.00  0.00    -0.011 C 
HETATM   11  C1  UNL     1      21.999  36.874  61.284  1.00  0.00     0.009 C 
ENDBRANCH   9  10
ENDBRANCH   8   9
ENDBRANCH   7   8
ENDBRANCH   1   7
TORSDOF 4
ENDMDL
MODEL 5
REMARK VINA RESULT: -4.615500737      2.119      4.112
REMARK  4 active torsions:
REMARK  status: ('A' for Active; 'I' for Inactive)
REMARK    1  A    between atoms: C2_2  and  C3_3 
REMARK    2  A    between atoms: C3_3  and  O1_4 
REMARK    3  A    between atoms: O1_4  and  C4_5 
REMARK    4  A    between atoms: C4_5  and  C5_6 
ROOT
HETATM    1  C5  UNL     1      23.292  38.319  61.671  1.00  0.00    -0.018 A 
HETATM    2  C6  UNL     1      22.355  37.360  61.282  1.00  0.00     0.027 A 
HETATM    3  C7  UNL     1      21.336  37.968  60.591  1.00  0.00     0.088 A 
HETATM    4  N1  UNL     1      21.618  39.285  60.542  1.00  0.00    -0.375 N 
ATOM      5  H1  UNL     1      21.045  40.000  60.093  1.00  0.00     0.164 HD
HETATM    6  C8  UNL     1      22.792  39.505  61.188  1.00  0.00     0.096 A 
ENDROOT
BRANCH   1   7
HETATM    7  C4  UNL     1      24.526  38.060  62.442  1.00  0.00     0.208 C 
BRANCH   7   8
HETATM    8  O1  UNL     1      25.290  37.037  61.906  1.00  0.00    -0.383 OA
BRANCH   8   9
HETATM    9  C3  UNL     1      26.215  37.426  60.968  1.00  0.00     0.194 C 
BRANCH   9  10
HETATM   10  C2  UNL     1      25.926  36.796  59.633  1.00  0.00    -0.011 C 
HETATM   11  C1  UNL     1      25.331  37.473  58.673  1.00  0.00     0.009 C 
ENDBRANCH   9  10
ENDBRANCH   8   9
ENDBRANCH   7   8
ENDBRANCH   1   7
TORSDOF 4
ENDMDL
