MODEL 1
REMARK VINA RESULT: -4.983373797      0.000      0.000
REMARK  4 active torsions:
REMARK  status: ('A' for Active; 'I' for Inactive)
REMARK    1  A    between atoms: C2_2  and  C3_3 
REMARK    2  A    between atoms: C3_3  and  N1_4 
REMARK    3  A    between atoms: N1_4  and  C4_7 
REMARK    4  A    between atoms: C4_7  and  C5_8 
ROOT
HETATM    1  C4  UNL     1      24.063  35.681  60.552  1.00  0.00     0.289 C 
ENDROOT
BRANCH   1   2
HETATM    2  N1  UNL     1      23.179  36.372  61.450  1.00  0.00    -0.067 N 
ATOM      3  H12 UNL     1      23.512  37.304  61.694  1.00  0.00     0.277 HD
ATOM      4  H11 UNL     1      23.181  35.977  62.391  1.00  0.00     0.277 HD
BRANCH   2   5
HETATM    5  C3  UNL     1      21.856  36.385  60.848  1.00  0.00     0.259 C 
BRANCH   5   6
HETATM    6  C2  UNL     1      21.445  37.780  60.533  1.00  0.00    -0.010 C 
HETATM    7  C1  UNL     1      21.955  38.843  61.126  1.00  0.00     0.008 C 
ENDBRANCH   5   6
ENDBRANCH   2   5
ENDBRANCH   1   2
BRANCH   1   8
HETATM    8  C5  UNL     1      24.939  36.638  59.815  1.00  0.00     0.034 A 
HETATM    9  C6  UNL     1      26.247  36.958  60.105  1.00  0.00     0.028 A 
HETATM   10  C7  UNL     1      26.699  37.900  59.178  1.00  0.00     0.019 A 
HETATM   11  C8  UNL     1      25.630  38.121  58.341  1.00  0.00     0.088 A 
HETATM   12  N2  UNL     1      24.598  37.354  58.748  1.00  0.00    -0.368 N 
ATOM     13  H2  UNL     1      23.682  37.327  58.300  1.00  0.00     0.165 HD
ENDBRANCH   1   8
TORSDOF 4
ENDMDL
MODEL 2
REMARK VINA RESULT: -4.968355444      1.601      4.212
REMARK  4 active torsions:
REMARK  status: ('A' for Active; 'I' for Inactive)
REMARK    1  A    between atoms: C2_2  and  C3_3 
REMARK    2  A    between atoms: C3_3  and  N1_4 
REMARK    3  A    between atoms: N1_4  and  C4_7 
REMARK    4  A    between atoms: C4_7  and  C5_8 
ROOT
HETATM    1  C4  UNL     1      24.808  38.213  62.334  1.00  0.00     0.289 C 
ENDROOT
BRANCH   1   2
HETATM    2  N1  UNL     1      25.947  37.709  61.616  1.00  0.00    -0.067 N 
ATOM      3  H12 UNL     1      25.786  36.786  61.216  1.00  0.00     0.277 HD
ATOM      4  H11 UNL     1      26.722  37.457  62.230  1.00  0.00     0.277 HD
BRANCH   2   5
HETATM    5  C3  UNL     1      26.317  38.700  60.620  1.00  0.00     0.259 C 
BRANCH   5   6
HETATM    6  C2  UNL     1      26.410  38.071  59.275  1.00  0.00    -0.010 C 
HETATM    7  C1  UNL     1      25.366  37.858  58.495  1.00  0.00     0.008 C 
ENDBRANCH   5   6
ENDBRANCH   2   5
ENDBRANCH   1   2
BRANCH   1   8
HETATM    8  C5  UNL     1      23.532  37.787  61.689  1.00  0.00     0.034 A 
HETATM    9  C6  UNL     1      22.494  38.598  61.286  1.00  0.00     0.028 A 
HETATM   10  C7  UNL     1      21.485  37.804  60.738  1.00  0.00     0.019 A 
HETATM   11  C8  UNL     1      21.955  36.514  60.827  1.00  0.00     0.088 A 
HETATM   12  N2  UNL     1      23.177  36.540  61.398  1.00  0.00    -0.368 N 
ATOM     13  H2  UNL     1      23.749  35.715  61.582  1.00  0.00     0.165 HD
ENDBRANCH   1   8
TORSDOF 4
ENDMDL
MODEL 3
REMARK VINA RESULT: -4.965993287      1.227      3.871
REMARK  4 active torsions:
REMARK  status: ('A' for Active; 'I' for Inactive)
REMARK    1  A    between atoms: C2_2  and  C3_3 
REMARK    2  A    between atoms: C3_3  and  N1_4 
REMARK    3  A    between atoms: N1_4  and  C4_7 
REMARK    4  A    between atoms: C4_7  and  C5_8 
ROOT
HETATM    1  C4  UNL     1      24.401  35.866  60.416  1.00  0.00     0.289 C 
ENDROOT
BRANCH   1   2
HETATM    2  N1  UNL     1      25.195  36.107  59.242  1.00  0.00    -0.067 N 
ATOM      3  H12 UNL     1      24.704  36.659  58.539  1.00  0.00     0.277 HD
ATOM      4  H11 UNL     1      25.336  35.267  58.679  1.00  0.00     0.277 HD
BRANCH   2   5
HETATM    5  C3  UNL     1      26.444  36.716  59.667  1.00  0.00     0.259 C 
BRANCH   5   6
HETATM    6  C2  UNL     1      26.420  38.180  59.406  1.00  0.00    -0.010 C 
HETATM    7  C1  UNL     1      26.299  39.090  60.355  1.00  0.00     0.008 C 
ENDBRANCH   5   6
ENDBRANCH   2   5
ENDBRANCH   1   2
BRANCH   1   8
HETATM    8  C5  UNL     1      23.253  36.815  60.495  1.00  0.00     0.034 A 
HETATM    9  C6  UNL     1      22.577  37.208  61.629  1.00  0.00     0.028 A 
HETATM   10  C7  UNL     1      21.564  38.098  61.268  1.00  0.00     0.019 A 
HETATM   11  C8  UNL     1      21.662  38.217  59.900  1.00  0.00     0.088 A 
HETATM   12  N2  UNL     1      22.678  37.440  59.472  1.00  0.00    -0.368 N 
ATOM     13  H2  UNL     1      22.965  37.345  58.498  1.00  0.00     0.165 HD
ENDBRANCH   1   8
TORSDOF 4
ENDMDL
MODEL 4
REMARK VINA RESULT: -4.891236226      1.143      1.348
REMARK  4 active torsions:
REMARK  status: ('A' for Active; 'I' for Inactive)
REMARK    1  A    between atoms: C2_2  and  C3_3 
REMARK    2  A    between atoms: C3_3  and  N1_4 
REMARK    3  A    between atoms: N1_4  and  C4_7 
REMARK    4  A    between atoms: C4_7  and  C5_8 
ROOT
HETATM    1  C4  UNL     1      23.988  35.502  60.555  1.00  0.00     0.289 C 
ENDROOT
BRANCH   1   2
HETATM    2  N1  UNL     1      22.655  35.940  60.246  1.00  0.00    -0.067 N 
ATOM      3  H12 UNL     1      22.036  35.172  59.985  1.00  0.00     0.277 HD
ATOM      4  H11 UNL     1      22.602  36.460  59.369  1.00  0.00     0.277 HD
BRANCH   2   5
HETATM    5  C3  UNL     1      22.163  36.701  61.382  1.00  0.00     0.259 C 
BRANCH   5   6
HETATM    6  C2  UNL     1      21.626  38.013  60.933  1.00  0.00    -0.010 C 
HETATM    7  C1  UNL     1      22.306  39.142  61.001  1.00  0.00     0.008 C 
ENDBRANCH   5   6
ENDBRANCH   2   5
ENDBRANCH   1   2
BRANCH   1   8
HETATM    8  C5  UNL     1      24.990  36.565  60.253  1.00  0.00     0.034 A 
HETATM    9  C6  UNL     1      25.283  37.103  59.019  1.00  0.00     0.028 A 
HETATM   10  C7  UNL     1      26.285  38.064  59.170  1.00  0.00     0.019 A 
HETATM   11  C8  UNL     1      26.571  38.076  60.516  1.00  0.00     0.088 A 
HETATM   12  N2  UNL     1      25.781  37.172  61.132  1.00  0.00    -0.368 N 
ATOM     13  H2  UNL     1      25.791  36.980  62.134  1.00  0.00     0.165 HD
ENDBRANCH   1   8
TORSDOF 4
ENDMDL
MODEL 5
REMARK VINA RESULT: -4.847492841      1.740      4.127
REMARK  4 active torsions:
REMARK  status: ('A' for Active; 'I' for Inactive)
REMARK    1  A    between atoms: C2_2  and  C3_3 
REMARK    2  A    between atoms: C3_3  and  N1_4 
REMARK    3  A    between atoms: N1_4  and  C4_7 
REMARK    4  A    between atoms: C4_7  and  C5_8 
ROOT
HETATM    1  C4  UNL     1      24.669  38.080  62.476  1.00  0.00     0.289 C 
ENDROOT
BRANCH   1   2
HETATM    2  N1  UNL     1      25.480  37.012  61.959  1.00  0.00    -0.067 N 
ATOM      3  H12 UNL     1      24.927  36.224  61.622  1.00  0.00     0.277 HD
ATOM      4  H11 UNL     1      25.993  36.515  62.688  1.00  0.00     0.277 HD
BRANCH   2   5
HETATM    5  C3  UNL     1      26.350  37.570  60.938  1.00  0.00     0.259 C 
BRANCH   5   6
HETATM    6  C2  UNL     1      26.081  36.929  59.623  1.00  0.00    -0.010 C 
HETATM    7  C1  UNL     1      25.369  37.495  58.667  1.00  0.00     0.008 C 
ENDBRANCH   5   6
ENDBRANCH   2   5
ENDBRANCH   1   2
BRANCH   1   8
HETATM    8  C5  UNL     1      23.367  38.169  61.752  1.00  0.00     0.034 A 
HETATM    9  C6  UNL     1      22.597  37.120  61.298  1.00  0.00     0.028 A 
HETATM   10  C7  UNL     1      21.462  37.632  60.666  1.00  0.00     0.019 A 
HETATM   11  C8  UNL     1      21.584  39.000  60.762  1.00  0.00     0.088 A 
HETATM   12  N2  UNL     1      22.730  39.285  61.414  1.00  0.00    -0.368 N 
ATOM     13  H2  UNL     1      23.061  40.228  61.620  1.00  0.00     0.165 HD
ENDBRANCH   1   8
TORSDOF 4
ENDMDL
