MODEL 1
REMARK VINA RESULT: -5.123625810      0.000      0.000
REMARK  4 active torsions:
REMARK  status: ('A' for Active; 'I' for Inactive)
REMARK    1  A    between atoms: C2_2  and  C3_3 
REMARK    2  A    between atoms: C3_3  and  C4_4 
REMARK    3  A    between atoms: C4_4  and  N1_5 
REMARK    4  A    between atoms: N1_5  and  C5_7 
ROOT
HETATM    1  N1  UNL     1      24.648  37.423  61.956  1.00  0.00    -0.394 N 
ATOM      2  H1  UNL     1      24.683  36.476  62.332  1.00  0.00     0.159 HD
ENDROOT
BRANCH   1   3
HETATM    3  C4  UNL     1      25.765  37.947  61.291  1.00  0.00     0.060 C 
BRANCH   3   4
HETATM    4  C3  UNL     1      26.390  37.078  60.232  1.00  0.00     0.070 C 
BRANCH   4   5
HETATM    5  C2  UNL     1      25.396  36.954  59.118  1.00  0.00    -0.032 C 
HETATM    6  C1  UNL     1      24.947  37.988  58.426  1.00  0.00     0.007 C 
ENDBRANCH   4   5
ENDBRANCH   3   4
ENDBRANCH   1   3
BRANCH   1   7
HETATM    7  C5  UNL     1      23.484  38.188  62.109  1.00  0.00     0.109 C 
HETATM    8  C6  UNL     1      23.300  39.460  61.355  1.00  0.00     0.034 C 
HETATM    9  C7  UNL     1      21.884  38.979  61.070  1.00  0.00     0.038 C 
HETATM   10  C8  UNL     1      22.380  37.590  61.261  1.00  0.00    -0.067 C 
HETATM   11  C9  UNL     1      22.053  36.355  60.894  1.00  0.00     0.016 C 
ENDBRANCH   1   7
TORSDOF 4
ENDMDL
MODEL 2
REMARK VINA RESULT: -5.098855093      1.194      3.850
REMARK  4 active torsions:
REMARK  status: ('A' for Active; 'I' for Inactive)
REMARK    1  A    between atoms: C2_2  and  C3_3 
REMARK    2  A    between atoms: C3_3  and  C4_4 
REMARK    3  A    between atoms: C4_4  and  N1_5 
REMARK    4  A    between atoms: N1_5  and  C5_7 
ROOT
HETATM    1  N1  UNL     1      23.594  36.606  60.085  1.00  0.00    -0.394 N 
ATOM      2  H1  UNL     1      23.288  35.782  60.602  1.00  0.00     0.159 HD
ENDROOT
BRANCH   1   3
HETATM    3  C4  UNL     1      22.710  37.678  59.901  1.00  0.00     0.060 C 
BRANCH   3   4
HETATM    4  C3  UNL     1      22.083  38.257  61.143  1.00  0.00     0.070 C 
BRANCH   4   5
HETATM    5  C2  UNL     1      22.855  39.492  61.493  1.00  0.00    -0.032 C 
HETATM    6  C1  UNL     1      23.445  40.260  60.594  1.00  0.00     0.007 C 
ENDBRANCH   4   5
ENDBRANCH   3   4
ENDBRANCH   1   3
BRANCH   1   7
HETATM    7  C5  UNL     1      24.894  36.656  59.563  1.00  0.00     0.109 C 
HETATM    8  C6  UNL     1      25.290  37.715  58.595  1.00  0.00     0.034 C 
HETATM    9  C7  UNL     1      26.565  37.860  59.414  1.00  0.00     0.038 C 
HETATM   10  C8  UNL     1      25.811  37.313  60.574  1.00  0.00    -0.067 C 
HETATM   11  C9  UNL     1      25.865  37.342  61.901  1.00  0.00     0.016 C 
ENDBRANCH   1   7
TORSDOF 4
ENDMDL
MODEL 3
REMARK VINA RESULT: -4.970573603      1.171      3.814
REMARK  4 active torsions:
REMARK  status: ('A' for Active; 'I' for Inactive)
REMARK    1  A    between atoms: C2_2  and  C3_3 
REMARK    2  A    between atoms: C3_3  and  C4_4 
REMARK    3  A    between atoms: C4_4  and  N1_5 
REMARK    4  A    between atoms: N1_5  and  C5_7 
ROOT
HETATM    1  N1  UNL     1      23.945  35.701  60.839  1.00  0.00    -0.394 N 
ATOM      2  H1  UNL     1      23.961  34.922  61.497  1.00  0.00     0.159 HD
ENDROOT
BRANCH   1   3
HETATM    3  C4  UNL     1      22.722  36.289  60.488  1.00  0.00     0.060 C 
BRANCH   3   4
HETATM    4  C3  UNL     1      21.967  36.984  61.589  1.00  0.00     0.070 C 
BRANCH   4   5
HETATM    5  C2  UNL     1      21.611  38.350  61.088  1.00  0.00    -0.032 C 
HETATM    6  C1  UNL     1      22.504  39.302  60.876  1.00  0.00     0.007 C 
ENDBRANCH   4   5
ENDBRANCH   3   4
ENDBRANCH   1   3
BRANCH   1   7
HETATM    7  C5  UNL     1      25.147  36.174  60.292  1.00  0.00     0.109 C 
HETATM    8  C6  UNL     1      25.145  37.105  59.131  1.00  0.00     0.034 C 
HETATM    9  C7  UNL     1      26.204  37.899  59.882  1.00  0.00     0.038 C 
HETATM   10  C8  UNL     1      25.663  37.318  61.140  1.00  0.00    -0.067 C 
HETATM   11  C9  UNL     1      25.621  37.610  62.436  1.00  0.00     0.016 C 
ENDBRANCH   1   7
TORSDOF 4
ENDMDL
MODEL 4
REMARK VINA RESULT: -4.965698657      1.399      2.632
REMARK  4 active torsions:
REMARK  status: ('A' for Active; 'I' for Inactive)
REMARK    1  A    between atoms: C2_2  and  C3_3 
REMARK    2  A    between atoms: C3_3  and  C4_4 
REMARK    3  A    between atoms: C4_4  and  N1_5 
REMARK    4  A    between atoms: N1_5  and  C5_7 
ROOT
HETATM    1  N1  UNL     1      23.984  37.516  59.094  1.00  0.00    -0.394 N 
ATOM      2  H1  UNL     1      24.268  37.963  58.222  1.00  0.00     0.159 HD
ENDROOT
BRANCH   1   3
HETATM    3  C4  UNL     1      24.847  36.610  59.723  1.00  0.00     0.060 C 
BRANCH   3   4
HETATM    4  C3  UNL     1      26.290  37.024  59.843  1.00  0.00     0.070 C 
BRANCH   4   5
HETATM    5  C2  UNL     1      26.444  37.715  61.163  1.00  0.00    -0.032 C 
HETATM    6  C1  UNL     1      25.740  37.396  62.236  1.00  0.00     0.007 C 
ENDBRANCH   4   5
ENDBRANCH   3   4
ENDBRANCH   1   3
BRANCH   1   7
HETATM    7  C5  UNL     1      22.732  37.815  59.651  1.00  0.00     0.109 C 
HETATM    8  C6  UNL     1      22.231  37.078  60.844  1.00  0.00     0.034 C 
HETATM    9  C7  UNL     1      21.809  38.434  61.391  1.00  0.00     0.038 C 
HETATM   10  C8  UNL     1      22.859  39.043  60.530  1.00  0.00    -0.067 C 
HETATM   11  C9  UNL     1      23.599  40.145  60.488  1.00  0.00     0.016 C 
ENDBRANCH   1   7
TORSDOF 4
ENDMDL
MODEL 5
REMARK VINA RESULT: -4.964373864      1.088      1.295
REMARK  4 active torsions:
REMARK  status: ('A' for Active; 'I' for Inactive)
REMARK    1  A    between atoms: C2_2  and  C3_3 
REMARK    2  A    between atoms: C3_3  and  C4_4 
REMARK    3  A    between atoms: C4_4  and  N1_5 
REMARK    4  A    between atoms: N1_5  and  C5_7 
ROOT
HETATM    1  N1  UNL     1      24.032  36.925  61.637  1.00  0.00    -0.394 N 
ATOM      2  H1  UNL     1      23.459  36.122  61.898  1.00  0.00     0.159 HD
ENDROOT
BRANCH   1   3
HETATM    3  C4  UNL     1      25.276  36.720  61.023  1.00  0.00     0.060 C 
BRANCH   3   4
HETATM    4  C3  UNL     1      25.254  36.176  59.619  1.00  0.00     0.070 C 
BRANCH   4   5
HETATM    5  C2  UNL     1      25.437  37.337  58.692  1.00  0.00    -0.032 C 
HETATM    6  C1  UNL     1      26.477  38.151  58.743  1.00  0.00     0.007 C 
ENDBRANCH   4   5
ENDBRANCH   3   4
ENDBRANCH   1   3
BRANCH   1   7
HETATM    7  C5  UNL     1      23.569  38.223  61.895  1.00  0.00     0.109 C 
HETATM    8  C6  UNL     1      24.401  39.412  61.563  1.00  0.00     0.034 C 
HETATM    9  C7  UNL     1      23.131  40.026  60.991  1.00  0.00     0.038 C 
HETATM   10  C8  UNL     1      22.622  38.643  60.790  1.00  0.00    -0.067 C 
HETATM   11  C9  UNL     1      21.746  38.005  60.022  1.00  0.00     0.016 C 
ENDBRANCH   1   7
TORSDOF 4
ENDMDL
