MODEL 1
REMARK VINA RESULT: -5.130057044      0.000      0.000
REMARK  5 active torsions:
REMARK  status: ('A' for Active; 'I' for Inactive)
REMARK    1  A    between atoms: C2_2  and  C3_3 
REMARK    2  A    between atoms: C3_3  and  N1_4 
REMARK    3  A    between atoms: N1_4  and  C4_7 
REMARK    4  A    between atoms: C4_7  and  C5_8 
REMARK    5  A    between atoms: C7_10  and  C8_11 
ROOT
HETATM    1  N1  UNL     1      23.345  35.725  60.289  1.00  0.00    -0.072 N 
ATOM      2  H11 UNL     1      23.298  34.726  60.487  1.00  0.00     0.277 HD
ATOM      3  H12 UNL     1      23.213  35.676  59.279  1.00  0.00     0.277 HD
ENDROOT
BRANCH   1   4
HETATM    4  C3  UNL     1      24.623  36.302  60.652  1.00  0.00     0.259 C 
BRANCH   4   5
HETATM    5  C2  UNL     1      25.438  36.364  59.398  1.00  0.00    -0.010 C 
HETATM    6  C1  UNL     1      25.407  37.413  58.631  1.00  0.00     0.008 C 
ENDBRANCH   4   5
ENDBRANCH   1   4
BRANCH   1   7
HETATM    7  C4  UNL     1      22.275  36.482  60.960  1.00  0.00     0.237 C 
BRANCH   7   8
HETATM    8  C5  UNL     1      22.127  37.820  60.219  1.00  0.00     0.019 A 
HETATM    9  C6  UNL     1      20.938  38.665  60.624  1.00  0.00     0.016 A 
HETATM   10  C7  UNL     1      22.282  39.042  61.069  1.00  0.00     0.013 A 
BRANCH  10  11
HETATM   11  C8  UNL     1      22.993  40.238  60.575  1.00  0.00    -0.032 C 
HETATM   12  C9  UNL     1      24.315  40.319  60.610  1.00  0.00     0.007 C 
ENDBRANCH  10  11
ENDBRANCH   7   8
ENDBRANCH   1   7
TORSDOF 5
ENDMDL
MODEL 2
REMARK VINA RESULT: -5.107481492      1.352      1.915
REMARK  5 active torsions:
REMARK  status: ('A' for Active; 'I' for Inactive)
REMARK    1  A    between atoms: C2_2  and  C3_3 
REMARK    2  A    between atoms: C3_3  and  N1_4 
REMARK    3  A    between atoms: N1_4  and  C4_7 
REMARK    4  A    between atoms: C4_7  and  C5_8 
REMARK    5  A    between atoms: C7_10  and  C8_11 
ROOT
HETATM    1  N1  UNL     1      25.126  35.520  59.428  1.00  0.00    -0.072 N 
ATOM      2  H11 UNL     1      25.981  35.002  59.629  1.00  0.00     0.277 HD
ATOM      3  H12 UNL     1      24.805  34.962  58.636  1.00  0.00     0.277 HD
ENDROOT
BRANCH   1   4
HETATM    4  C3  UNL     1      25.386  36.898  59.063  1.00  0.00     0.259 C 
BRANCH   4   5
HETATM    5  C2  UNL     1      26.656  37.292  59.751  1.00  0.00    -0.010 C 
HETATM    6  C1  UNL     1      26.651  38.157  60.721  1.00  0.00     0.008 C 
ENDBRANCH   4   5
ENDBRANCH   1   4
BRANCH   1   7
HETATM    7  C4  UNL     1      24.177  35.498  60.554  1.00  0.00     0.237 C 
BRANCH   7   8
HETATM    8  C5  UNL     1      23.214  36.680  60.363  1.00  0.00     0.019 A 
HETATM    9  C6  UNL     1      21.887  36.565  61.083  1.00  0.00     0.016 A 
HETATM   10  C7  UNL     1      22.917  37.468  61.600  1.00  0.00     0.013 A 
BRANCH  10  11
HETATM   11  C8  UNL     1      22.797  38.939  61.565  1.00  0.00    -0.032 C 
HETATM   12  C9  UNL     1      23.214  39.642  60.521  1.00  0.00     0.007 C 
ENDBRANCH  10  11
ENDBRANCH   7   8
ENDBRANCH   1   7
TORSDOF 5
ENDMDL
MODEL 3
REMARK VINA RESULT: -4.806734662      1.529      2.498
REMARK  5 active torsions:
REMARK  status: ('A' for Active; 'I' for Inactive)
REMARK    1  A    between atoms: C2_2  and  C3_3 
REMARK    2  A    between atoms: C3_3  and  N1_4 
REMARK    3  A    between atoms: N1_4  and  C4_7 
REMARK    4  A    between atoms: C4_7  and  C5_8 
REMARK    5  A    between atoms: C7_10  and  C8_11 
ROOT
HETATM    1  N1  UNL     1      25.073  36.234  61.287  1.00  0.00    -0.072 N 
ATOM      2  H11 UNL     1      25.512  35.446  61.764  1.00  0.00     0.277 HD
ATOM      3  H12 UNL     1      24.100  35.974  61.452  1.00  0.00     0.277 HD
ENDROOT
BRANCH   1   4
HETATM    4  C3  UNL     1      25.401  36.282  59.878  1.00  0.00     0.259 C 
BRANCH   4   5
HETATM    5  C2  UNL     1      26.533  37.251  59.733  1.00  0.00    -0.010 C 
HETATM    6  C1  UNL     1      26.612  38.039  58.702  1.00  0.00     0.008 C 
ENDBRANCH   4   5
ENDBRANCH   1   4
BRANCH   1   7
HETATM    7  C4  UNL     1      25.421  37.527  61.900  1.00  0.00     0.237 C 
BRANCH   7   8
HETATM    8  C5  UNL     1      24.111  38.174  62.376  1.00  0.00     0.019 A 
HETATM    9  C6  UNL     1      24.093  39.688  62.379  1.00  0.00     0.016 A 
HETATM   10  C7  UNL     1      23.370  38.956  61.337  1.00  0.00     0.013 A 
BRANCH  10  11
HETATM   11  C8  UNL     1      21.897  38.914  61.250  1.00  0.00    -0.032 C 
HETATM   12  C9  UNL     1      21.280  38.239  60.291  1.00  0.00     0.007 C 
ENDBRANCH  10  11
ENDBRANCH   7   8
ENDBRANCH   1   7
TORSDOF 5
ENDMDL
MODEL 4
REMARK VINA RESULT: -4.791706152      1.235      3.438
REMARK  5 active torsions:
REMARK  status: ('A' for Active; 'I' for Inactive)
REMARK    1  A    between atoms: C2_2  and  C3_3 
REMARK    2  A    between atoms: C3_3  and  N1_4 
REMARK    3  A    between atoms: N1_4  and  C4_7 
REMARK    4  A    between atoms: C4_7  and  C5_8 
REMARK    5  A    between atoms: C7_10  and  C8_11 
ROOT
HETATM    1  N1  UNL     1      23.617  36.619  61.347  1.00  0.00    -0.072 N 
ATOM      2  H11 UNL     1      23.862  36.369  62.305  1.00  0.00     0.277 HD
ATOM      3  H12 UNL     1      23.892  37.601  61.383  1.00  0.00     0.277 HD
ENDROOT
BRANCH   1   4
HETATM    4  C3  UNL     1      22.204  36.451  61.075  1.00  0.00     0.259 C 
BRANCH   4   5
HETATM    5  C2  UNL     1      21.712  37.760  60.541  1.00  0.00    -0.010 C 
HETATM    6  C1  UNL     1      21.893  38.864  61.202  1.00  0.00     0.008 C 
ENDBRANCH   4   5
ENDBRANCH   1   4
BRANCH   1   7
HETATM    7  C4  UNL     1      24.387  35.854  60.352  1.00  0.00     0.237 C 
BRANCH   7   8
HETATM    8  C5  UNL     1      25.595  36.713  59.950  1.00  0.00     0.019 A 
HETATM    9  C6  UNL     1      25.434  37.514  58.675  1.00  0.00     0.016 A 
HETATM   10  C7  UNL     1      25.365  38.191  59.972  1.00  0.00     0.013 A 
BRANCH  10  11
HETATM   11  C8  UNL     1      26.402  39.124  60.455  1.00  0.00    -0.032 C 
HETATM   12  C9  UNL     1      26.111  40.106  61.296  1.00  0.00     0.007 C 
ENDBRANCH  10  11
ENDBRANCH   7   8
ENDBRANCH   1   7
TORSDOF 5
ENDMDL
MODEL 5
REMARK VINA RESULT: -4.784622108      1.812      4.022
REMARK  5 active torsions:
REMARK  status: ('A' for Active; 'I' for Inactive)
REMARK    1  A    between atoms: C2_2  and  C3_3 
REMARK    2  A    between atoms: C3_3  and  N1_4 
REMARK    3  A    between atoms: N1_4  and  C4_7 
REMARK    4  A    between atoms: C4_7  and  C5_8 
REMARK    5  A    between atoms: C7_10  and  C8_11 
ROOT
HETATM    1  N1  UNL     1      23.667  37.816  62.338  1.00  0.00    -0.072 N 
ATOM      2  H11 UNL     1      23.841  36.876  61.984  1.00  0.00     0.277 HD
ATOM      3  H12 UNL     1      23.252  37.556  63.233  1.00  0.00     0.277 HD
ENDROOT
BRANCH   1   4
HETATM    4  C3  UNL     1      22.752  38.564  61.501  1.00  0.00     0.259 C 
BRANCH   4   5
HETATM    5  C2  UNL     1      21.810  37.567  60.898  1.00  0.00    -0.010 C 
HETATM    6  C1  UNL     1      22.087  36.297  60.903  1.00  0.00     0.008 C 
ENDBRANCH   4   5
ENDBRANCH   1   4
BRANCH   1   7
HETATM    7  C4  UNL     1      24.907  38.595  62.498  1.00  0.00     0.237 C 
BRANCH   7   8
HETATM    8  C5  UNL     1      25.299  39.122  61.109  1.00  0.00     0.019 A 
HETATM    9  C6  UNL     1      26.686  39.719  61.003  1.00  0.00     0.016 A 
HETATM   10  C7  UNL     1      26.422  38.392  60.443  1.00  0.00     0.013 A 
BRANCH  10  11
HETATM   11  C8  UNL     1      26.406  38.113  58.993  1.00  0.00    -0.032 C 
HETATM   12  C9  UNL     1      25.281  37.813  58.359  1.00  0.00     0.007 C 
ENDBRANCH  10  11
ENDBRANCH   7   8
ENDBRANCH   1   7
TORSDOF 5
ENDMDL
