MODEL 1
REMARK VINA RESULT: -5.558454291      0.000      0.000
REMARK  4 active torsions:
REMARK  status: ('A' for Active; 'I' for Inactive)
REMARK    1  A    between atoms: C3_3  and  C4_4 
REMARK    2  A    between atoms: C4_4  and  N1_5 
REMARK    3  A    between atoms: N1_5  and  C5_8 
REMARK    4  A    between atoms: C5_8  and  C6_9 
ROOT
HETATM    1  N1  UNL     1      23.583  36.310  61.296  1.00  0.00    -0.071 N 
ATOM      2  H11 UNL     1      23.939  37.216  61.601  1.00  0.00     0.277 HD
ATOM      3  H12 UNL     1      23.642  35.798  62.176  1.00  0.00     0.277 HD
ENDROOT
BRANCH   1   4
HETATM    4  C4  UNL     1      24.466  35.719  60.295  1.00  0.00     0.270 C 
BRANCH   4   5
HETATM    5  C3  UNL     1      25.365  36.705  59.631  1.00  0.00    -0.033 A 
HETATM    6  C2  UNL     1      26.720  37.204  59.738  1.00  0.00     0.009 A 
HETATM    7  C1  UNL     1      26.560  38.067  58.737  1.00  0.00     0.001 A 
HETATM    8  C9  UNL     1      25.186  37.581  58.609  1.00  0.00     0.009 A 
ENDBRANCH   4   5
ENDBRANCH   1   4
BRANCH   1   9
HETATM    9  C5  UNL     1      22.222  36.421  60.867  1.00  0.00     0.237 C 
BRANCH   9  10
HETATM   10  C6  UNL     1      21.719  37.810  61.286  1.00  0.00     0.011 A 
HETATM   11  C7  UNL     1      20.894  38.571  60.298  1.00  0.00     0.007 A 
HETATM   12  C8  UNL     1      22.308  39.011  60.617  1.00  0.00     0.007 A 
ENDBRANCH   9  10
ENDBRANCH   1   9
TORSDOF 4
ENDMDL
MODEL 2
REMARK VINA RESULT: -5.423013154      1.460      4.263
REMARK  4 active torsions:
REMARK  status: ('A' for Active; 'I' for Inactive)
REMARK    1  A    between atoms: C3_3  and  C4_4 
REMARK    2  A    between atoms: C4_4  and  N1_5 
REMARK    3  A    between atoms: N1_5  and  C5_8 
REMARK    4  A    between atoms: C5_8  and  C6_9 
ROOT
HETATM    1  N1  UNL     1      25.616  37.520  61.800  1.00  0.00    -0.071 N 
ATOM      2  H11 UNL     1      25.325  36.643  61.367  1.00  0.00     0.277 HD
ATOM      3  H12 UNL     1      26.258  37.158  62.505  1.00  0.00     0.277 HD
ENDROOT
BRANCH   1   4
HETATM    4  C4  UNL     1      24.479  38.185  62.431  1.00  0.00     0.270 C 
BRANCH   4   5
HETATM    5  C3  UNL     1      23.202  38.034  61.678  1.00  0.00    -0.033 A 
HETATM    6  C2  UNL     1      22.268  36.996  61.294  1.00  0.00     0.009 A 
HETATM    7  C1  UNL     1      21.485  37.845  60.630  1.00  0.00     0.001 A 
HETATM    8  C9  UNL     1      22.414  38.911  61.004  1.00  0.00     0.009 A 
ENDBRANCH   4   5
ENDBRANCH   1   4
BRANCH   1   9
HETATM    9  C5  UNL     1      26.311  38.343  60.857  1.00  0.00     0.237 C 
BRANCH   9  10
HETATM   10  C6  UNL     1      26.422  37.548  59.548  1.00  0.00     0.011 A 
HETATM   11  C7  UNL     1      25.269  37.622  58.598  1.00  0.00     0.007 A 
HETATM   12  C8  UNL     1      25.548  36.348  59.369  1.00  0.00     0.007 A 
ENDBRANCH   9  10
ENDBRANCH   1   9
TORSDOF 4
ENDMDL
MODEL 3
REMARK VINA RESULT: -5.367287688      1.380      3.814
REMARK  4 active torsions:
REMARK  status: ('A' for Active; 'I' for Inactive)
REMARK    1  A    between atoms: C3_3  and  C4_4 
REMARK    2  A    between atoms: C4_4  and  N1_5 
REMARK    3  A    between atoms: N1_5  and  C5_8 
REMARK    4  A    between atoms: C5_8  and  C6_9 
ROOT
HETATM    1  N1  UNL     1      23.350  36.344  60.156  1.00  0.00    -0.071 N 
ATOM      2  H11 UNL     1      23.335  36.913  59.309  1.00  0.00     0.277 HD
ATOM      3  H12 UNL     1      22.804  35.545  59.835  1.00  0.00     0.277 HD
ENDROOT
BRANCH   1   4
HETATM    4  C4  UNL     1      22.668  37.029  61.250  1.00  0.00     0.270 C 
BRANCH   4   5
HETATM    5  C3  UNL     1      23.235  38.372  61.563  1.00  0.00    -0.033 A 
HETATM    6  C2  UNL     1      24.192  38.979  62.464  1.00  0.00     0.009 A 
HETATM    7  C1  UNL     1      23.972  40.204  61.990  1.00  0.00     0.001 A 
HETATM    8  C9  UNL     1      22.999  39.615  61.070  1.00  0.00     0.009 A 
ENDBRANCH   4   5
ENDBRANCH   1   4
BRANCH   1   9
HETATM    9  C5  UNL     1      24.688  35.946  60.474  1.00  0.00     0.237 C 
BRANCH   9  10
HETATM   10  C6  UNL     1      25.592  36.412  59.323  1.00  0.00     0.011 A 
HETATM   11  C7  UNL     1      26.398  37.652  59.539  1.00  0.00     0.007 A 
HETATM   12  C8  UNL     1      25.219  37.659  58.587  1.00  0.00     0.007 A 
ENDBRANCH   9  10
ENDBRANCH   1   9
TORSDOF 4
ENDMDL
MODEL 4
REMARK VINA RESULT: -5.365072072      0.767      1.051
REMARK  4 active torsions:
REMARK  status: ('A' for Active; 'I' for Inactive)
REMARK    1  A    between atoms: C3_3  and  C4_4 
REMARK    2  A    between atoms: C4_4  and  N1_5 
REMARK    3  A    between atoms: N1_5  and  C5_8 
REMARK    4  A    between atoms: C5_8  and  C6_9 
ROOT
HETATM    1  N1  UNL     1      23.473  36.600  61.384  1.00  0.00    -0.071 N 
ATOM      2  H11 UNL     1      24.013  37.262  61.941  1.00  0.00     0.277 HD
ATOM      3  H12 UNL     1      23.184  35.954  62.118  1.00  0.00     0.277 HD
ENDROOT
BRANCH   1   4
HETATM    4  C4  UNL     1      24.329  35.926  60.412  1.00  0.00     0.270 C 
BRANCH   4   5
HETATM    5  C3  UNL     1      25.314  36.830  59.751  1.00  0.00    -0.033 A 
HETATM    6  C2  UNL     1      26.632  37.381  59.986  1.00  0.00     0.009 A 
HETATM    7  C1  UNL     1      26.623  38.079  58.852  1.00  0.00     0.001 A 
HETATM    8  C9  UNL     1      25.289  37.537  58.591  1.00  0.00     0.009 A 
ENDBRANCH   4   5
ENDBRANCH   1   4
BRANCH   1   9
HETATM    9  C5  UNL     1      22.336  37.243  60.798  1.00  0.00     0.237 C 
BRANCH   9  10
HETATM   10  C6  UNL     1      22.278  38.673  61.356  1.00  0.00     0.011 A 
HETATM   11  C7  UNL     1      22.962  39.746  60.571  1.00  0.00     0.007 A 
HETATM   12  C8  UNL     1      23.536  39.277  61.893  1.00  0.00     0.007 A 
ENDBRANCH   9  10
ENDBRANCH   1   9
TORSDOF 4
ENDMDL
MODEL 5
REMARK VINA RESULT: -5.324790451      0.716      4.014
REMARK  4 active torsions:
REMARK  status: ('A' for Active; 'I' for Inactive)
REMARK    1  A    between atoms: C3_3  and  C4_4 
REMARK    2  A    between atoms: C4_4  and  N1_5 
REMARK    3  A    between atoms: N1_5  and  C5_8 
REMARK    4  A    between atoms: C5_8  and  C6_9 
ROOT
HETATM    1  N1  UNL     1      23.552  35.703  60.122  1.00  0.00    -0.071 N 
ATOM      2  H11 UNL     1      23.400  36.017  59.163  1.00  0.00     0.277 HD
ATOM      3  H12 UNL     1      23.505  34.694  59.981  1.00  0.00     0.277 HD
ENDROOT
BRANCH   1   4
HETATM    4  C4  UNL     1      22.468  36.154  60.991  1.00  0.00     0.270 C 
BRANCH   4   5
HETATM    5  C3  UNL     1      22.161  37.607  60.862  1.00  0.00    -0.033 A 
HETATM    6  C2  UNL     1      22.629  38.880  61.369  1.00  0.00     0.009 A 
HETATM    7  C1  UNL     1      21.712  39.570  60.694  1.00  0.00     0.001 A 
HETATM    8  C9  UNL     1      21.220  38.297  60.167  1.00  0.00     0.009 A 
ENDBRANCH   4   5
ENDBRANCH   1   4
BRANCH   1   9
HETATM    9  C5  UNL     1      24.852  36.090  60.579  1.00  0.00     0.237 C 
BRANCH   9  10
HETATM   10  C6  UNL     1      25.641  36.586  59.358  1.00  0.00     0.011 A 
HETATM   11  C7  UNL     1      26.308  37.920  59.465  1.00  0.00     0.007 A 
HETATM   12  C8  UNL     1      25.092  37.739  58.579  1.00  0.00     0.007 A 
ENDBRANCH   9  10
ENDBRANCH   1   9
TORSDOF 4
ENDMDL
