MODEL 1
REMARK VINA RESULT: -6.257481605      0.000      0.000
REMARK  2 active torsions:
REMARK  status: ('A' for Active; 'I' for Inactive)
REMARK    1  A    between atoms: O1_1  and  C1_3 
REMARK    2  A    between atoms: C1_3  and  C2_4 
ROOT
HETATM    1  C1  UNL     1      55.666  -0.014   3.933  1.00  0.00     0.230 C 
HETATM    2  N1  UNL     1      56.784  -0.314   4.745  1.00  0.00    -0.335 N 
ATOM      3  H1  UNL     1      57.158  -1.262   4.784  1.00  0.00     0.164 HD
HETATM    4  C3  UNL     1      57.364   0.707   5.486  1.00  0.00     0.142 C 
HETATM    5  S1  UNL     1      58.376   0.726   6.743  1.00  0.00    -0.052 SA
HETATM    6  S2  UNL     1      56.722   2.225   4.727  1.00  0.00    -0.058 SA
HETATM    7  C4  UNL     1      55.356   1.398   3.922  1.00  0.00     0.070 C 
HETATM    8  C5  UNL     1      54.311   2.005   3.444  1.00  0.00     0.075 C 
HETATM    9 BR1  UNL     1      52.931   0.958   2.620  1.00  0.00    -0.042 Br
HETATM   10 BR2  UNL     1      54.125   3.893   3.546  1.00  0.00    -0.042 Br
ENDROOT
BRANCH   1  11
HETATM   11  O1  UNL     1      54.540  -0.791   4.295  1.00  0.00    -0.362 OA
ATOM     12  H1  UNL     1      54.889  -1.548   4.753  1.00  0.00     0.213 HD
ENDBRANCH   1  11
BRANCH   1  13
HETATM   13  C2  UNL     1      56.040  -0.468   2.512  1.00  0.00     0.413 C 
HETATM   14  F1  UNL     1      57.383  -0.202   2.342  1.00  0.00    -0.209 F 
HETATM   15  F2  UNL     1      55.909  -1.864   2.549  1.00  0.00    -0.209 F 
ENDBRANCH   1  13
TORSDOF 2
ENDMDL
MODEL 2
REMARK VINA RESULT: -5.788039090      3.149      3.739
REMARK  2 active torsions:
REMARK  status: ('A' for Active; 'I' for Inactive)
REMARK    1  A    between atoms: O1_1  and  C1_3 
REMARK    2  A    between atoms: C1_3  and  C2_4 
ROOT
HETATM    1  C1  UNL     1      53.162   2.601   4.137  1.00  0.00     0.230 C 
HETATM    2  N1  UNL     1      54.347   1.848   4.307  1.00  0.00    -0.335 N 
ATOM      3  H1  UNL     1      54.316   0.829   4.321  1.00  0.00     0.164 HD
HETATM    4  C3  UNL     1      55.551   2.523   4.456  1.00  0.00     0.142 C 
HETATM    5  S1  UNL     1      57.006   2.084   4.998  1.00  0.00    -0.052 SA
HETATM    6  S2  UNL     1      55.194   4.202   3.869  1.00  0.00    -0.058 SA
HETATM    7  C4  UNL     1      53.423   4.020   4.031  1.00  0.00     0.070 C 
HETATM    8  C5  UNL     1      52.582   5.011   4.050  1.00  0.00     0.075 C 
HETATM    9 BR1  UNL     1      50.712   4.635   4.242  1.00  0.00    -0.042 Br
HETATM   10 BR2  UNL     1      53.168   6.812   3.890  1.00  0.00    -0.042 Br
ENDROOT
BRANCH   1  11
HETATM   11  O1  UNL     1      52.218   2.320   5.152  1.00  0.00    -0.362 OA
ATOM     12  H1  UNL     1      52.718   1.941   5.867  1.00  0.00     0.213 HD
ENDBRANCH   1  11
BRANCH   1  13
HETATM   13  C2  UNL     1      52.525   2.098   2.830  1.00  0.00     0.413 C 
HETATM   14  F1  UNL     1      53.443   1.263   2.227  1.00  0.00    -0.209 F 
HETATM   15  F2  UNL     1      51.462   1.288   3.253  1.00  0.00    -0.209 F 
ENDBRANCH   1  13
TORSDOF 2
ENDMDL
MODEL 3
REMARK VINA RESULT: -5.711683154      2.885      3.511
REMARK  2 active torsions:
REMARK  status: ('A' for Active; 'I' for Inactive)
REMARK    1  A    between atoms: O1_1  and  C1_3 
REMARK    2  A    between atoms: C1_3  and  C2_4 
ROOT
HETATM    1  C1  UNL     1      57.067   0.922   4.507  1.00  0.00     0.230 C 
HETATM    2  N1  UNL     1      57.867  -0.243   4.514  1.00  0.00    -0.335 N 
ATOM      3  H1  UNL     1      58.715  -0.287   5.080  1.00  0.00     0.164 HD
HETATM    4  C3  UNL     1      57.477  -1.326   3.738  1.00  0.00     0.142 C 
HETATM    5  S1  UNL     1      58.245  -2.644   3.210  1.00  0.00    -0.052 SA
HETATM    6  S2  UNL     1      55.736  -0.990   3.351  1.00  0.00    -0.058 SA
HETATM    7  C4  UNL     1      55.854   0.752   3.739  1.00  0.00     0.070 C 
HETATM    8  C5  UNL     1      54.986   1.645   3.367  1.00  0.00     0.075 C 
HETATM    9 BR1  UNL     1      55.274   3.475   3.862  1.00  0.00    -0.042 Br
HETATM   10 BR2  UNL     1      53.450   1.176   2.351  1.00  0.00    -0.042 Br
ENDROOT
BRANCH   1  11
HETATM   11  O1  UNL     1      57.801   2.052   4.078  1.00  0.00    -0.362 OA
ATOM     12  H1  UNL     1      58.246   1.781   3.283  1.00  0.00     0.213 HD
ENDBRANCH   1  11
BRANCH   1  13
HETATM   13  C2  UNL     1      56.707   1.198   5.978  1.00  0.00     0.413 C 
HETATM   14  F1  UNL     1      57.292   0.202   6.731  1.00  0.00    -0.209 F 
HETATM   15  F2  UNL     1      57.389   2.385   6.283  1.00  0.00    -0.209 F 
ENDBRANCH   1  13
TORSDOF 2
ENDMDL
MODEL 4
REMARK VINA RESULT: -5.182072998      1.740      1.863
REMARK  2 active torsions:
REMARK  status: ('A' for Active; 'I' for Inactive)
REMARK    1  A    between atoms: O1_1  and  C1_3 
REMARK    2  A    between atoms: C1_3  and  C2_4 
ROOT
HETATM    1  C1  UNL     1      54.596   1.213   3.992  1.00  0.00     0.230 C 
HETATM    2  N1  UNL     1      55.936   0.959   4.366  1.00  0.00    -0.335 N 
ATOM      3  H1  UNL     1      56.327   0.021   4.291  1.00  0.00     0.164 HD
HETATM    4  C3  UNL     1      56.708   2.012   4.837  1.00  0.00     0.142 C 
HETATM    5  S1  UNL     1      58.095   2.087   5.659  1.00  0.00    -0.052 SA
HETATM    6  S2  UNL     1      55.798   3.495   4.321  1.00  0.00    -0.058 SA
HETATM    7  C4  UNL     1      54.261   2.618   4.062  1.00  0.00     0.070 C 
HETATM    8  C5  UNL     1      53.098   3.189   3.968  1.00  0.00     0.075 C 
HETATM    9 BR1  UNL     1      51.548   2.093   3.700  1.00  0.00    -0.042 Br
HETATM   10 BR2  UNL     1      52.906   5.076   4.091  1.00  0.00    -0.042 Br
ENDROOT
BRANCH   1  11
HETATM   11  O1  UNL     1      53.691   0.424   4.740  1.00  0.00    -0.362 OA
ATOM     12  H1  UNL     1      53.979   0.493   5.643  1.00  0.00     0.213 HD
ENDBRANCH   1  11
BRANCH   1  13
HETATM   13  C2  UNL     1      54.463   0.726   2.538  1.00  0.00     0.413 C 
HETATM   14  F1  UNL     1      55.621   0.042   2.233  1.00  0.00    -0.209 F 
HETATM   15  F2  UNL     1      53.434  -0.227   2.585  1.00  0.00    -0.209 F 
ENDBRANCH   1  13
TORSDOF 2
ENDMDL
MODEL 5
REMARK VINA RESULT: -4.905357332      0.749      1.152
REMARK  2 active torsions:
REMARK  status: ('A' for Active; 'I' for Inactive)
REMARK    1  A    between atoms: O1_1  and  C1_3 
REMARK    2  A    between atoms: C1_3  and  C2_4 
ROOT
HETATM    1  C1  UNL     1      56.199   0.058   4.321  1.00  0.00     0.230 C 
HETATM    2  N1  UNL     1      57.245  -0.261   5.217  1.00  0.00    -0.335 N 
ATOM      3  H1  UNL     1      57.531  -1.230   5.357  1.00  0.00     0.164 HD
HETATM    4  C3  UNL     1      57.876   0.769   5.902  1.00  0.00     0.142 C 
HETATM    5  S1  UNL     1      58.823   0.813   7.207  1.00  0.00    -0.052 SA
HETATM    6  S2  UNL     1      57.409   2.262   4.982  1.00  0.00    -0.058 SA
HETATM    7  C4  UNL     1      56.017   1.485   4.174  1.00  0.00     0.070 C 
HETATM    8  C5  UNL     1      55.054   2.133   3.588  1.00  0.00     0.075 C 
HETATM    9 BR1  UNL     1      53.629   1.138   2.779  1.00  0.00    -0.042 Br
HETATM   10 BR2  UNL     1      55.033   4.032   3.520  1.00  0.00    -0.042 Br
ENDROOT
BRANCH   1  11
HETATM   11  O1  UNL     1      54.992  -0.586   4.683  1.00  0.00    -0.362 OA
ATOM     12  H1  UNL     1      54.903  -0.453   5.620  1.00  0.00     0.213 HD
ENDBRANCH   1  11
BRANCH   1  13
HETATM   13  C2  UNL     1      56.601  -0.551   2.966  1.00  0.00     0.413 C 
HETATM   14  F1  UNL     1      55.461  -1.100   2.415  1.00  0.00    -0.209 F 
HETATM   15  F2  UNL     1      56.935   0.558   2.175  1.00  0.00    -0.209 F 
ENDBRANCH   1  13
TORSDOF 2
ENDMDL
