MODEL 1
REMARK VINA RESULT: -7.541751406      0.000      0.000
REMARK  2 active torsions:
REMARK  status: ('A' for Active; 'I' for Inactive)
REMARK    1  A    between atoms: C7_11  and  C8_12 
REMARK    2  A    between atoms: C11_16  and  C12_17 
ROOT
HETATM    1  C1  UNL     1      57.970  -1.695   3.712  1.00  0.00     0.161 C 
HETATM    2  N1  UNL     1      57.578  -0.400   4.204  1.00  0.00    -0.303 N 
HETATM    3  C2  UNL     1      58.309   0.284   5.226  1.00  0.00     0.252 C 
HETATM    4  O1  UNL     1      59.500  -0.019   5.451  1.00  0.00    -0.270 OA
HETATM    5  C3  UNL     1      57.685   1.354   6.035  1.00  0.00     0.105 C 
HETATM    6  C4  UNL     1      56.856   0.697   7.119  1.00  0.00     0.048 C 
HETATM    7  C5  UNL     1      58.762   2.155   6.712  1.00  0.00     0.048 C 
HETATM    8  N2  UNL     1      56.844   2.127   5.185  1.00  0.00    -0.368 N 
ATOM      9  H2  UNL     1      56.788   3.138   5.305  1.00  0.00     0.161 HD
HETATM   10  C6  UNL     1      56.088   1.492   4.177  1.00  0.00     0.106 A 
HETATM   11  C7  UNL     1      54.951   1.857   3.481  1.00  0.00     0.105 A 
HETATM   12  N4  UNL     1      54.659   0.882   2.636  1.00  0.00    -0.293 N 
ATOM     13  H4  UNL     1      53.865   0.889   1.995  1.00  0.00     0.187 HD
HETATM   14  N5  UNL     1      55.541  -0.109   2.732  1.00  0.00    -0.278 N 
HETATM   15  C15 UNL     1      55.545  -1.337   1.967  1.00  0.00     0.179 C 
HETATM   16  C16 UNL     1      56.433   0.240   3.674  1.00  0.00     0.155 A 
ENDROOT
BRANCH  11  17
HETATM   17  C8  UNL     1      54.223   3.119   3.678  1.00  0.00     0.067 A 
HETATM   18  C9  UNL     1      54.906   4.314   3.602  1.00  0.00     0.075 A 
HETATM   19  C10 UNL     1      54.236   5.513   3.785  1.00  0.00     0.131 A 
HETATM   20  F1  UNL     1      54.907   6.701   3.712  1.00  0.00    -0.205 F 
HETATM   21  C11 UNL     1      52.894   5.464   4.039  1.00  0.00     0.060 A 
HETATM   22  C13 UNL     1      52.265   4.238   4.103  1.00  0.00     0.106 A 
HETATM   23  N3  UNL     1      52.922   3.079   3.924  1.00  0.00    -0.358 N 
HETATM   24  C14 UNL     1      52.222   1.800   4.000  1.00  0.00     0.156 C 
BRANCH  21  25
HETATM   25  C12 UNL     1      52.108   6.690   4.245  1.00  0.00     0.391 C 
HETATM   26  F2  UNL     1      51.953   7.372   3.061  1.00  0.00    -0.209 F 
HETATM   27  F3  UNL     1      52.703   7.515   5.208  1.00  0.00    -0.209 F 
ENDBRANCH  21  25
ENDBRANCH  11  17
TORSDOF 2
ENDMDL
MODEL 2
REMARK VINA RESULT: -6.835936724      4.050      7.193
REMARK  2 active torsions:
REMARK  status: ('A' for Active; 'I' for Inactive)
REMARK    1  A    between atoms: C7_11  and  C8_12 
REMARK    2  A    between atoms: C11_16  and  C12_17 
ROOT
HETATM    1  C1  UNL     1      52.043   6.734   4.330  1.00  0.00     0.161 C 
HETATM    2  N1  UNL     1      52.274   5.318   4.222  1.00  0.00    -0.303 N 
HETATM    3  C2  UNL     1      51.209   4.363   4.259  1.00  0.00     0.252 C 
HETATM    4  O1  UNL     1      50.040   4.721   3.999  1.00  0.00    -0.270 OA
HETATM    5  C3  UNL     1      51.456   2.945   4.603  1.00  0.00     0.105 C 
HETATM    6  C4  UNL     1      51.554   2.841   6.111  1.00  0.00     0.048 C 
HETATM    7  C5  UNL     1      50.279   2.118   4.167  1.00  0.00     0.048 C 
HETATM    8  N2  UNL     1      52.688   2.548   4.010  1.00  0.00    -0.368 N 
ATOM      9  H2  UNL     1      52.785   1.612   3.615  1.00  0.00     0.161 HD
HETATM   10  C6  UNL     1      53.773   3.449   3.969  1.00  0.00     0.106 A 
HETATM   11  C7  UNL     1      55.137   3.275   3.835  1.00  0.00     0.105 A 
HETATM   12  N4  UNL     1      55.705   4.470   3.859  1.00  0.00    -0.293 N 
ATOM     13  H4  UNL     1      56.708   4.636   3.778  1.00  0.00     0.187 HD
HETATM   14  N5  UNL     1      54.792   5.426   4.001  1.00  0.00    -0.278 N 
HETATM   15  C15 UNL     1      55.038   6.850   4.067  1.00  0.00     0.179 C 
HETATM   16  C16 UNL     1      53.592   4.826   4.071  1.00  0.00     0.155 A 
ENDROOT
BRANCH  11  17
HETATM   17  C8  UNL     1      55.801   1.971   3.692  1.00  0.00     0.067 A 
HETATM   18  C9  UNL     1      55.368   1.093   2.722  1.00  0.00     0.075 A 
HETATM   19  C10 UNL     1      55.982  -0.140   2.574  1.00  0.00     0.131 A 
HETATM   20  F1  UNL     1      55.558  -1.016   1.615  1.00  0.00    -0.205 F 
HETATM   21  C11 UNL     1      57.016  -0.446   3.414  1.00  0.00     0.060 A 
HETATM   22  C13 UNL     1      57.405   0.474   4.366  1.00  0.00     0.106 A 
HETATM   23  N3  UNL     1      56.804   1.669   4.503  1.00  0.00    -0.358 N 
HETATM   24  C14 UNL     1      57.243   2.617   5.523  1.00  0.00     0.156 C 
BRANCH  21  25
HETATM   25  C12 UNL     1      57.721  -1.733   3.324  1.00  0.00     0.391 C 
HETATM   26  F2  UNL     1      56.834  -2.780   3.415  1.00  0.00    -0.209 F 
HETATM   27  F3  UNL     1      58.705  -1.840   4.316  1.00  0.00    -0.209 F 
ENDBRANCH  21  25
ENDBRANCH  11  17
TORSDOF 2
ENDMDL
MODEL 3
REMARK VINA RESULT: -6.441968603      1.023      1.733
REMARK  2 active torsions:
REMARK  status: ('A' for Active; 'I' for Inactive)
REMARK    1  A    between atoms: C7_11  and  C8_12 
REMARK    2  A    between atoms: C11_16  and  C12_17 
ROOT
HETATM    1  C1  UNL     1      57.750  -1.228   3.705  1.00  0.00     0.161 C 
HETATM    2  N1  UNL     1      57.335   0.052   4.215  1.00  0.00    -0.303 N 
HETATM    3  C2  UNL     1      58.071   0.749   5.224  1.00  0.00     0.252 C 
HETATM    4  O1  UNL     1      59.274   0.477   5.420  1.00  0.00    -0.270 OA
HETATM    5  C3  UNL     1      57.437   1.797   6.055  1.00  0.00     0.105 C 
HETATM    6  C4  UNL     1      56.651   1.111   7.153  1.00  0.00     0.048 C 
HETATM    7  C5  UNL     1      58.509   2.622   6.713  1.00  0.00     0.048 C 
HETATM    8  N2  UNL     1      56.557   2.552   5.230  1.00  0.00    -0.368 N 
ATOM      9  H2  UNL     1      56.477   3.561   5.359  1.00  0.00     0.161 HD
HETATM   10  C6  UNL     1      55.795   1.905   4.235  1.00  0.00     0.106 A 
HETATM   11  C7  UNL     1      54.632   2.243   3.569  1.00  0.00     0.105 A 
HETATM   12  N4  UNL     1      54.348   1.266   2.723  1.00  0.00    -0.293 N 
ATOM     13  H4  UNL     1      53.539   1.256   2.101  1.00  0.00     0.187 HD
HETATM   14  N5  UNL     1      55.257   0.299   2.792  1.00  0.00    -0.278 N 
HETATM   15  C15 UNL     1      55.276  -0.924   2.019  1.00  0.00     0.179 C 
HETATM   16  C16 UNL     1      56.161   0.666   3.715  1.00  0.00     0.155 A 
ENDROOT
BRANCH  11  17
HETATM   17  C8  UNL     1      53.876   3.485   3.791  1.00  0.00     0.067 A 
HETATM   18  C9  UNL     1      52.618   3.420   4.350  1.00  0.00     0.075 A 
HETATM   19  C10 UNL     1      51.892   4.580   4.567  1.00  0.00     0.131 A 
HETATM   20  F1  UNL     1      50.644   4.524   5.120  1.00  0.00    -0.205 F 
HETATM   21  C11 UNL     1      52.463   5.769   4.209  1.00  0.00     0.060 A 
HETATM   22  C13 UNL     1      53.725   5.770   3.653  1.00  0.00     0.106 A 
HETATM   23  N3  UNL     1      54.424   4.640   3.447  1.00  0.00    -0.358 N 
HETATM   24  C14 UNL     1      55.758   4.681   2.856  1.00  0.00     0.156 C 
BRANCH  21  25
HETATM   25  C12 UNL     1      51.759   7.046   4.405  1.00  0.00     0.391 C 
HETATM   26  F2  UNL     1      51.606   7.704   3.207  1.00  0.00    -0.209 F 
HETATM   27  F3  UNL     1      52.435   7.859   5.324  1.00  0.00    -0.209 F 
ENDBRANCH  21  25
ENDBRANCH  11  17
TORSDOF 2
ENDMDL
MODEL 4
REMARK VINA RESULT: -6.286476114      1.283      1.627
REMARK  2 active torsions:
REMARK  status: ('A' for Active; 'I' for Inactive)
REMARK    1  A    between atoms: C7_11  and  C8_12 
REMARK    2  A    between atoms: C11_16  and  C12_17 
ROOT
HETATM    1  C1  UNL     1      56.016  -1.262   2.934  1.00  0.00     0.161 C 
HETATM    2  N1  UNL     1      56.084   0.058   3.504  1.00  0.00    -0.303 N 
HETATM    3  C2  UNL     1      57.192   0.493   4.296  1.00  0.00     0.252 C 
HETATM    4  O1  UNL     1      58.293  -0.091   4.206  1.00  0.00    -0.270 OA
HETATM    5  C3  UNL     1      57.069   1.632   5.234  1.00  0.00     0.105 C 
HETATM    6  C4  UNL     1      56.409   1.125   6.499  1.00  0.00     0.048 C 
HETATM    7  C5  UNL     1      58.443   2.119   5.603  1.00  0.00     0.048 C 
HETATM    8  N2  UNL     1      56.251   2.626   4.627  1.00  0.00    -0.368 N 
ATOM      9  H2  UNL     1      56.472   3.614   4.752  1.00  0.00     0.161 HD
HETATM   10  C6  UNL     1      55.135   2.244   3.853  1.00  0.00     0.106 A 
HETATM   11  C7  UNL     1      53.980   2.903   3.475  1.00  0.00     0.105 A 
HETATM   12  N4  UNL     1      53.259   2.072   2.740  1.00  0.00    -0.293 N 
ATOM     13  H4  UNL     1      52.354   2.301   2.328  1.00  0.00     0.187 HD
HETATM   14  N5  UNL     1      53.872   0.900   2.610  1.00  0.00    -0.278 N 
HETATM   15  C15 UNL     1      53.386  -0.250   1.877  1.00  0.00     0.179 C 
HETATM   16  C16 UNL     1      55.030   0.977   3.285  1.00  0.00     0.155 A 
ENDROOT
BRANCH  11  17
HETATM   17  C8  UNL     1      53.651   4.287   3.847  1.00  0.00     0.067 A 
HETATM   18  C9  UNL     1      54.637   5.250   3.815  1.00  0.00     0.075 A 
HETATM   19  C10 UNL     1      54.344   6.559   4.162  1.00  0.00     0.131 A 
HETATM   20  F1  UNL     1      55.316   7.518   4.134  1.00  0.00    -0.205 F 
HETATM   21  C11 UNL     1      53.061   6.851   4.532  1.00  0.00     0.060 A 
HETATM   22  C13 UNL     1      52.117   5.845   4.544  1.00  0.00     0.106 A 
HETATM   23  N3  UNL     1      52.410   4.578   4.206  1.00  0.00    -0.358 N 
HETATM   24  C14 UNL     1      51.384   3.539   4.231  1.00  0.00     0.156 C 
BRANCH  21  25
HETATM   25  C12 UNL     1      52.667   8.215   4.915  1.00  0.00     0.391 C 
HETATM   26  F2  UNL     1      51.350   8.247   5.311  1.00  0.00    -0.209 F 
HETATM   27  F3  UNL     1      52.881   9.117   3.865  1.00  0.00    -0.209 F 
ENDBRANCH  21  25
ENDBRANCH  11  17
TORSDOF 2
ENDMDL
MODEL 5
REMARK VINA RESULT: -5.576025032      1.445      2.059
REMARK  2 active torsions:
REMARK  status: ('A' for Active; 'I' for Inactive)
REMARK    1  A    between atoms: C7_11  and  C8_12 
REMARK    2  A    between atoms: C11_16  and  C12_17 
ROOT
HETATM    1  C1  UNL     1      58.501  -1.643   3.940  1.00  0.00     0.161 C 
HETATM    2  N1  UNL     1      57.857  -0.453   4.430  1.00  0.00    -0.303 N 
HETATM    3  C2  UNL     1      58.436   0.366   5.449  1.00  0.00     0.252 C 
HETATM    4  O1  UNL     1      59.664   0.309   5.674  1.00  0.00    -0.270 OA
HETATM    5  C3  UNL     1      57.611   1.291   6.258  1.00  0.00     0.105 C 
HETATM    6  C4  UNL     1      56.931   0.482   7.343  1.00  0.00     0.048 C 
HETATM    7  C5  UNL     1      58.506   2.293   6.932  1.00  0.00     0.048 C 
HETATM    8  N2  UNL     1      56.631   1.877   5.407  1.00  0.00    -0.368 N 
ATOM      9  H2  UNL     1      56.373   2.857   5.526  1.00  0.00     0.161 HD
HETATM   10  C6  UNL     1      56.017   1.102   4.401  1.00  0.00     0.106 A 
HETATM   11  C7  UNL     1      54.829   1.230   3.706  1.00  0.00     0.105 A 
HETATM   12  N4  UNL     1      54.739   0.214   2.862  1.00  0.00    -0.293 N 
ATOM     13  H4  UNL     1      53.959   0.060   2.223  1.00  0.00     0.187 HD
HETATM   14  N5  UNL     1      55.802  -0.579   2.960  1.00  0.00    -0.278 N 
HETATM   15  C15 UNL     1      56.052  -1.783   2.197  1.00  0.00     0.179 C 
HETATM   16  C16 UNL     1      56.606  -0.056   3.899  1.00  0.00     0.155 A 
ENDROOT
BRANCH  11  17
HETATM   17  C8  UNL     1      53.863   2.320   3.901  1.00  0.00     0.067 A 
HETATM   18  C9  UNL     1      52.580   2.024   4.307  1.00  0.00     0.075 A 
HETATM   19  C10 UNL     1      51.656   3.039   4.496  1.00  0.00     0.131 A 
HETATM   20  F1  UNL     1      50.383   2.753   4.898  1.00  0.00    -0.205 F 
HETATM   21  C11 UNL     1      52.062   4.324   4.267  1.00  0.00     0.060 A 
HETATM   22  C13 UNL     1      53.360   4.559   3.863  1.00  0.00     0.106 A 
HETATM   23  N3  UNL     1      54.250   3.568   3.682  1.00  0.00    -0.358 N 
HETATM   24  C14 UNL     1      55.615   3.855   3.252  1.00  0.00     0.156 C 
BRANCH  21  25
HETATM   25  C12 UNL     1      51.145   5.460   4.444  1.00  0.00     0.391 C 
HETATM   26  F2  UNL     1      49.850   5.086   4.169  1.00  0.00    -0.209 F 
HETATM   27  F3  UNL     1      51.521   6.543   3.639  1.00  0.00    -0.209 F 
ENDBRANCH  21  25
ENDBRANCH  11  17
TORSDOF 2
ENDMDL
