MODEL 1
REMARK VINA RESULT: -7.011857328      0.000      0.000
REMARK  2 active torsions:
REMARK  status: ('A' for Active; 'I' for Inactive)
REMARK    1  A    between atoms: O1_2  and  C2_3 
REMARK    2  A    between atoms: C12_18  and  C13_20 
ROOT
HETATM    1  C2  UNL     1      52.438   1.860   3.499  1.00  0.00     0.088 C 
HETATM    2  C3  UNL     1      51.218   2.374   3.633  1.00  0.00     0.095 C 
HETATM    3  C4  UNL     1      50.828   3.706   4.084  1.00  0.00     0.202 C 
HETATM    4  O2  UNL     1      49.608   3.852   4.333  1.00  0.00    -0.286 OA
HETATM    5  C5  UNL     1      51.649   4.903   4.289  1.00  0.00     0.099 A 
HETATM    6  N1  UNL     1      51.241   6.105   4.707  1.00  0.00    -0.354 N 
ATOM      7  H1  UNL     1      50.273   6.324   4.939  1.00  0.00     0.166 HD
HETATM    8  C6  UNL     1      52.250   6.994   4.789  1.00  0.00     0.028 A 
HETATM    9  C7  UNL     1      52.185   8.421   5.212  1.00  0.00     0.070 C 
HETATM   10  C8  UNL     1      53.390   6.318   4.397  1.00  0.00     0.072 A 
HETATM   11 CL1  UNL     1      55.036   6.929   4.283  1.00  0.00    -0.081 Cl
HETATM   12  C9  UNL     1      53.017   5.032   4.091  1.00  0.00     0.069 A 
HETATM   13  C10 UNL     1      53.915   3.982   3.628  1.00  0.00     0.201 C 
HETATM   14  O3  UNL     1      54.944   4.362   3.039  1.00  0.00    -0.286 OA
HETATM   15  C11 UNL     1      53.744   2.517   3.777  1.00  0.00     0.075 C 
HETATM   16  C12 UNL     1      54.709   1.752   4.109  1.00  0.00     0.113 C 
HETATM   17 CL2  UNL     1      54.311  -0.006   4.167  1.00  0.00    -0.078 Cl
ENDROOT
BRANCH   1  18
HETATM   18  O1  UNL     1      52.522   0.558   3.049  1.00  0.00    -0.355 OA
HETATM   19  C1  UNL     1      52.240   0.296   1.672  1.00  0.00     0.210 C 
ENDBRANCH   1  18
BRANCH  16  20
HETATM   20  C13 UNL     1      56.043   2.033   4.529  1.00  0.00     0.264 C 
HETATM   21  O4  UNL     1      56.342   2.788   5.461  1.00  0.00    -0.273 OA
HETATM   22 CL3  UNL     1      57.443   1.288   3.712  1.00  0.00    -0.037 Cl
ENDBRANCH  16  20
TORSDOF 2
ENDMDL
MODEL 2
REMARK VINA RESULT: -6.261363246      1.721      2.305
REMARK  2 active torsions:
REMARK  status: ('A' for Active; 'I' for Inactive)
REMARK    1  A    between atoms: O1_2  and  C2_3 
REMARK    2  A    between atoms: C12_18  and  C13_20 
ROOT
HETATM    1  C2  UNL     1      54.754   0.754   4.082  1.00  0.00     0.088 C 
HETATM    2  C3  UNL     1      53.455   0.731   3.795  1.00  0.00     0.095 C 
HETATM    3  C4  UNL     1      52.492   1.826   3.815  1.00  0.00     0.202 C 
HETATM    4  O2  UNL     1      51.289   1.485   3.723  1.00  0.00    -0.286 OA
HETATM    5  C5  UNL     1      52.718   3.271   3.926  1.00  0.00     0.099 A 
HETATM    6  N1  UNL     1      51.795   4.237   3.941  1.00  0.00    -0.354 N 
ATOM      7  H1  UNL     1      50.793   4.063   3.875  1.00  0.00     0.166 HD
HETATM    8  C6  UNL     1      52.335   5.466   4.052  1.00  0.00     0.028 A 
HETATM    9  C7  UNL     1      51.632   6.778   4.101  1.00  0.00     0.070 C 
HETATM   10  C8  UNL     1      53.704   5.279   4.114  1.00  0.00     0.072 A 
HETATM   11 CL1  UNL     1      54.966   6.496   4.259  1.00  0.00    -0.081 Cl
HETATM   12  C9  UNL     1      53.935   3.928   4.037  1.00  0.00     0.069 A 
HETATM   13  C10 UNL     1      55.247   3.295   4.062  1.00  0.00     0.201 C 
HETATM   14  O3  UNL     1      56.199   3.992   3.665  1.00  0.00    -0.286 OA
HETATM   15  C11 UNL     1      55.578   1.919   4.503  1.00  0.00     0.075 C 
HETATM   16  C12 UNL     1      56.598   1.666   5.227  1.00  0.00     0.113 C 
HETATM   17 CL2  UNL     1      56.863  -0.079   5.597  1.00  0.00    -0.078 Cl
ENDROOT
BRANCH   1  18
HETATM   18  O1  UNL     1      55.438  -0.441   3.982  1.00  0.00    -0.355 OA
HETATM   19  C1  UNL     1      55.781  -0.921   2.680  1.00  0.00     0.210 C 
ENDBRANCH   1  18
BRANCH  16  20
HETATM   20  C13 UNL     1      57.538   2.520   5.877  1.00  0.00     0.264 C 
HETATM   21  O4  UNL     1      57.235   3.494   6.575  1.00  0.00    -0.273 OA
HETATM   22 CL3  UNL     1      59.293   2.240   5.730  1.00  0.00    -0.037 Cl
ENDBRANCH  16  20
TORSDOF 2
ENDMDL
MODEL 3
REMARK VINA RESULT: -5.871911756      2.118      3.121
REMARK  2 active torsions:
REMARK  status: ('A' for Active; 'I' for Inactive)
REMARK    1  A    between atoms: O1_2  and  C2_3 
REMARK    2  A    between atoms: C12_18  and  C13_20 
ROOT
HETATM    1  C2  UNL     1      55.519   0.389   3.177  1.00  0.00     0.088 C 
HETATM    2  C3  UNL     1      54.310   0.061   2.728  1.00  0.00     0.095 C 
HETATM    3  C4  UNL     1      53.052   0.786   2.868  1.00  0.00     0.202 C 
HETATM    4  O2  UNL     1      52.024   0.143   2.548  1.00  0.00    -0.286 OA
HETATM    5  C5  UNL     1      52.806   2.156   3.328  1.00  0.00     0.099 A 
HETATM    6  N1  UNL     1      51.627   2.775   3.441  1.00  0.00    -0.354 N 
ATOM      7  H1  UNL     1      50.735   2.339   3.210  1.00  0.00     0.166 HD
HETATM    8  C6  UNL     1      51.747   4.038   3.893  1.00  0.00     0.028 A 
HETATM    9  C7  UNL     1      50.665   5.031   4.145  1.00  0.00     0.070 C 
HETATM   10  C8  UNL     1      53.100   4.249   4.088  1.00  0.00     0.072 A 
HETATM   11 CL1  UNL     1      53.905   5.703   4.663  1.00  0.00    -0.081 Cl
HETATM   12  C9  UNL     1      53.747   3.089   3.739  1.00  0.00     0.069 A 
HETATM   13  C10 UNL     1      55.189   2.882   3.791  1.00  0.00     0.201 C 
HETATM   14  O3  UNL     1      55.893   3.903   3.686  1.00  0.00    -0.286 OA
HETATM   15  C11 UNL     1      55.911   1.597   3.951  1.00  0.00     0.075 C 
HETATM   16  C12 UNL     1      56.919   1.478   4.725  1.00  0.00     0.113 C 
HETATM   17 CL2  UNL     1      57.699  -0.147   4.725  1.00  0.00    -0.078 Cl
ENDROOT
BRANCH   1  18
HETATM   18  O1  UNL     1      56.548  -0.488   2.900  1.00  0.00    -0.355 OA
HETATM   19  C1  UNL     1      56.224  -1.858   2.650  1.00  0.00     0.210 C 
ENDBRANCH   1  18
BRANCH  16  20
HETATM   20  C13 UNL     1      57.506   2.376   5.665  1.00  0.00     0.264 C 
HETATM   21  O4  UNL     1      56.870   3.075   6.461  1.00  0.00    -0.273 OA
HETATM   22 CL3  UNL     1      59.276   2.570   5.773  1.00  0.00    -0.037 Cl
ENDBRANCH  16  20
TORSDOF 2
ENDMDL
MODEL 4
REMARK VINA RESULT: -5.405841412      2.328      5.234
REMARK  2 active torsions:
REMARK  status: ('A' for Active; 'I' for Inactive)
REMARK    1  A    between atoms: O1_2  and  C2_3 
REMARK    2  A    between atoms: C12_18  and  C13_20 
ROOT
HETATM    1  C2  UNL     1      52.104   3.354   3.830  1.00  0.00     0.088 C 
HETATM    2  C3  UNL     1      51.654   2.164   3.441  1.00  0.00     0.095 C 
HETATM    3  C4  UNL     1      52.411   0.985   3.037  1.00  0.00     0.202 C 
HETATM    4  O2  UNL     1      51.738   0.072   2.502  1.00  0.00    -0.286 OA
HETATM    5  C5  UNL     1      53.845   0.704   3.161  1.00  0.00     0.099 A 
HETATM    6  N1  UNL     1      54.493  -0.398   2.771  1.00  0.00    -0.354 N 
ATOM      7  H1  UNL     1      54.037  -1.193   2.324  1.00  0.00     0.166 HD
HETATM    8  C6  UNL     1      55.813  -0.342   3.032  1.00  0.00     0.028 A 
HETATM    9  C7  UNL     1      56.851  -1.371   2.746  1.00  0.00     0.070 C 
HETATM   10  C8  UNL     1      56.033   0.884   3.634  1.00  0.00     0.072 A 
HETATM   11 CL1  UNL     1      57.550   1.555   4.218  1.00  0.00    -0.081 Cl
HETATM   12  C9  UNL     1      54.820   1.523   3.711  1.00  0.00     0.069 A 
HETATM   13  C10 UNL     1      54.601   2.846   4.283  1.00  0.00     0.201 C 
HETATM   14  O3  UNL     1      55.419   3.211   5.147  1.00  0.00    -0.286 OA
HETATM   15  C11 UNL     1      53.517   3.802   3.956  1.00  0.00     0.075 C 
HETATM   16  C12 UNL     1      53.736   5.051   3.807  1.00  0.00     0.113 C 
HETATM   17 CL2  UNL     1      52.273   6.054   3.483  1.00  0.00    -0.078 Cl
ENDROOT
BRANCH   1  18
HETATM   18  O1  UNL     1      51.157   4.303   4.161  1.00  0.00    -0.355 OA
HETATM   19  C1  UNL     1      49.784   3.906   4.207  1.00  0.00     0.210 C 
ENDBRANCH   1  18
BRANCH  16  20
HETATM   20  C13 UNL     1      54.946   5.805   3.768  1.00  0.00     0.264 C 
HETATM   21  O4  UNL     1      55.967   5.462   3.163  1.00  0.00    -0.273 OA
HETATM   22 CL3  UNL     1      55.088   7.364   4.622  1.00  0.00    -0.037 Cl
ENDBRANCH  16  20
TORSDOF 2
ENDMDL
MODEL 5
REMARK VINA RESULT: -5.106181412      3.121      6.583
REMARK  2 active torsions:
REMARK  status: ('A' for Active; 'I' for Inactive)
REMARK    1  A    between atoms: O1_2  and  C2_3 
REMARK    2  A    between atoms: C12_18  and  C13_20 
ROOT
HETATM    1  C2  UNL     1      55.101   3.519   4.260  1.00  0.00     0.088 C 
HETATM    2  C3  UNL     1      56.322   3.487   4.787  1.00  0.00     0.095 C 
HETATM    3  C4  UNL     1      57.235   2.357   4.918  1.00  0.00     0.202 C 
HETATM    4  O2  UNL     1      58.229   2.551   5.657  1.00  0.00    -0.286 OA
HETATM    5  C5  UNL     1      57.166   1.022   4.314  1.00  0.00     0.099 A 
HETATM    6  N1  UNL     1      58.032   0.016   4.468  1.00  0.00    -0.354 N 
ATOM      7  H1  UNL     1      58.868   0.074   5.049  1.00  0.00     0.166 HD
HETATM    8  C6  UNL     1      57.679  -1.081   3.771  1.00  0.00     0.028 A 
HETATM    9  C7  UNL     1      58.389  -2.389   3.694  1.00  0.00     0.070 C 
HETATM   10  C8  UNL     1      56.501  -0.762   3.122  1.00  0.00     0.072 A 
HETATM   11 CL1  UNL     1      55.537  -1.770   2.050  1.00  0.00    -0.081 Cl
HETATM   12  C9  UNL     1      56.189   0.533   3.459  1.00  0.00     0.069 A 
HETATM   13  C10 UNL     1      55.022   1.268   2.987  1.00  0.00     0.201 C 
HETATM   14  O3  UNL     1      54.552   0.904   1.892  1.00  0.00    -0.286 OA
HETATM   15  C11 UNL     1      54.334   2.397   3.657  1.00  0.00     0.075 C 
HETATM   16  C12 UNL     1      53.062   2.478   3.713  1.00  0.00     0.113 C 
HETATM   17 CL2  UNL     1      52.422   3.964   4.510  1.00  0.00    -0.078 Cl
ENDROOT
BRANCH   1  18
HETATM   18  O1  UNL     1      54.450   4.737   4.266  1.00  0.00    -0.355 OA
HETATM   19  C1  UNL     1      55.117   5.867   3.700  1.00  0.00     0.210 C 
ENDBRANCH   1  18
BRANCH  16  20
HETATM   20  C13 UNL     1      52.034   1.566   3.332  1.00  0.00     0.264 C 
HETATM   21  O4  UNL     1      51.058   1.275   4.032  1.00  0.00    -0.273 OA
HETATM   22 CL3  UNL     1      52.074   0.739   1.752  1.00  0.00    -0.037 Cl
ENDBRANCH  16  20
TORSDOF 2
ENDMDL
