MODEL 1
REMARK VINA RESULT: -7.295203011      0.000      0.000
REMARK  2 active torsions:
REMARK  status: ('A' for Active; 'I' for Inactive)
REMARK    1  A    between atoms: O1_2  and  C2_3 
REMARK    2  A    between atoms: C7_11  and  O3_12 
ROOT
HETATM    1  C2  UNL     1      55.544   2.039   3.700  1.00  0.00     0.140 A 
HETATM    2  C3  UNL     1      54.612   1.123   3.703  1.00  0.00     0.099 A 
HETATM    3 BR1  UNL     1      55.130  -0.695   3.500  1.00  0.00    -0.044 Br
HETATM    4  C4  UNL     1      53.220   1.492   3.860  1.00  0.00     0.206 A 
HETATM    5  O2  UNL     1      52.305   0.607   3.865  1.00  0.00    -0.286 OA
HETATM    6  C5  UNL     1      52.840   2.891   4.016  1.00  0.00     0.073 A 
HETATM    7  C6  UNL     1      51.523   3.283   4.168  1.00  0.00     0.166 A 
HETATM    8  F1  UNL     1      50.572   2.340   4.171  1.00  0.00    -0.202 F 
HETATM    9  C7  UNL     1      51.161   4.603   4.314  1.00  0.00     0.129 A 
HETATM   10  C8  UNL     1      52.167   5.546   4.307  1.00  0.00     0.093 A 
HETATM   11 CL1  UNL     1      51.834   7.264   4.486  1.00  0.00    -0.079 Cl
HETATM   12  C9  UNL     1      53.483   5.173   4.157  1.00  0.00     0.074 A 
HETATM   13 CL2  UNL     1      54.768   6.383   4.147  1.00  0.00    -0.081 Cl
HETATM   14  C10 UNL     1      53.832   3.839   4.009  1.00  0.00     0.058 A 
HETATM   15  C11 UNL     1      55.221   3.438   3.851  1.00  0.00     0.219 A 
HETATM   16  O4  UNL     1      56.093   4.348   3.852  1.00  0.00    -0.284 OA
ENDROOT
BRANCH   1  17
HETATM   17  O1  UNL     1      56.894   1.705   3.551  1.00  0.00    -0.351 OA
HETATM   18  C1  UNL     1      57.658   1.587   4.735  1.00  0.00     0.210 C 
ENDBRANCH   1  17
BRANCH   9  19
HETATM   19  O3  UNL     1      49.855   5.041   4.470  1.00  0.00    -0.356 OA
ATOM     20  H3  UNL     1      49.609   5.946   4.624  1.00  0.00     0.218 HD
ENDBRANCH   9  19
TORSDOF 2
ENDMDL
MODEL 2
REMARK VINA RESULT: -5.585582944      4.232      6.510
REMARK  2 active torsions:
REMARK  status: ('A' for Active; 'I' for Inactive)
REMARK    1  A    between atoms: O1_2  and  C2_3 
REMARK    2  A    between atoms: C7_11  and  O3_12 
ROOT
HETATM    1  C2  UNL     1      53.949   2.107   3.086  1.00  0.00     0.140 A 
HETATM    2  C3  UNL     1      54.411   3.104   3.793  1.00  0.00     0.099 A 
HETATM    3 BR1  UNL     1      53.393   4.708   3.868  1.00  0.00    -0.044 Br
HETATM    4  C4  UNL     1      55.670   2.982   4.499  1.00  0.00     0.206 A 
HETATM    5  O2  UNL     1      56.129   3.948   5.190  1.00  0.00    -0.286 OA
HETATM    6  C5  UNL     1      56.439   1.745   4.431  1.00  0.00     0.073 A 
HETATM    7  C6  UNL     1      57.644   1.589   5.090  1.00  0.00     0.166 A 
HETATM    8  F1  UNL     1      58.113   2.615   5.814  1.00  0.00    -0.202 F 
HETATM    9  C7  UNL     1      58.371   0.423   5.028  1.00  0.00     0.129 A 
HETATM   10  C8  UNL     1      57.857  -0.611   4.274  1.00  0.00     0.093 A 
HETATM   11 CL1  UNL     1      58.691  -2.152   4.115  1.00  0.00    -0.079 Cl
HETATM   12  C9  UNL     1      56.659  -0.474   3.611  1.00  0.00     0.074 A 
HETATM   13 CL2  UNL     1      56.004  -1.799   2.647  1.00  0.00    -0.081 Cl
HETATM   14  C10 UNL     1      55.937   0.709   3.683  1.00  0.00     0.058 A 
HETATM   15  C11 UNL     1      54.671   0.860   2.986  1.00  0.00     0.219 A 
HETATM   16  O4  UNL     1      54.255  -0.121   2.313  1.00  0.00    -0.284 OA
ENDROOT
BRANCH   1  17
HETATM   17  O1  UNL     1      52.735   2.203   2.396  1.00  0.00    -0.351 OA
HETATM   18  C1  UNL     1      51.596   1.653   3.029  1.00  0.00     0.210 C 
ENDBRANCH   1  17
BRANCH   9  19
HETATM   19  O3  UNL     1      59.582   0.223   5.672  1.00  0.00    -0.356 OA
ATOM     20  H3  UNL     1      60.337  -0.195   5.275  1.00  0.00     0.218 HD
ENDBRANCH   9  19
TORSDOF 2
ENDMDL
MODEL 3
REMARK VINA RESULT: -5.391988512      2.456      3.451
REMARK  2 active torsions:
REMARK  status: ('A' for Active; 'I' for Inactive)
REMARK    1  A    between atoms: O1_2  and  C2_3 
REMARK    2  A    between atoms: C7_11  and  O3_12 
ROOT
HETATM    1  C2  UNL     1      55.148   0.847   4.339  1.00  0.00     0.140 A 
HETATM    2  C3  UNL     1      56.117   1.723   4.354  1.00  0.00     0.099 A 
HETATM    3 BR1  UNL     1      57.907   1.089   4.443  1.00  0.00    -0.044 Br
HETATM    4  C4  UNL     1      55.827   3.142   4.301  1.00  0.00     0.206 A 
HETATM    5  O2  UNL     1      56.765   4.002   4.316  1.00  0.00    -0.286 OA
HETATM    6  C5  UNL     1      54.448   3.611   4.232  1.00  0.00     0.073 A 
HETATM    7  C6  UNL     1      54.130   4.955   4.182  1.00  0.00     0.166 A 
HETATM    8  F1  UNL     1      55.128   5.849   4.197  1.00  0.00    -0.202 F 
HETATM    9  C7  UNL     1      52.830   5.402   4.116  1.00  0.00     0.129 A 
HETATM   10  C8  UNL     1      51.829   4.453   4.102  1.00  0.00     0.093 A 
HETATM   11 CL1  UNL     1      50.128   4.896   4.021  1.00  0.00    -0.079 Cl
HETATM   12  C9  UNL     1      52.128   3.110   4.152  1.00  0.00     0.074 A 
HETATM   13 CL2  UNL     1      50.844   1.900   4.135  1.00  0.00    -0.081 Cl
HETATM   14  C10 UNL     1      53.443   2.676   4.218  1.00  0.00     0.058 A 
HETATM   15  C11 UNL     1      53.766   1.260   4.271  1.00  0.00     0.219 A 
HETATM   16  O4  UNL     1      52.806   0.443   4.255  1.00  0.00    -0.284 OA
ENDROOT
BRANCH   1  17
HETATM   17  O1  UNL     1      55.406  -0.527   4.387  1.00  0.00    -0.351 OA
HETATM   18  C1  UNL     1      55.575  -1.189   3.149  1.00  0.00     0.210 C 
ENDBRANCH   1  17
BRANCH   9  19
HETATM   19  O3  UNL     1      52.465   6.738   4.063  1.00  0.00    -0.356 OA
ATOM     20  H3  UNL     1      51.747   7.117   4.557  1.00  0.00     0.218 HD
ENDBRANCH   9  19
TORSDOF 2
ENDMDL
MODEL 4
REMARK VINA RESULT: -5.320942584      3.104      5.064
REMARK  2 active torsions:
REMARK  status: ('A' for Active; 'I' for Inactive)
REMARK    1  A    between atoms: O1_2  and  C2_3 
REMARK    2  A    between atoms: C7_11  and  O3_12 
ROOT
HETATM    1  C2  UNL     1      53.567   4.245   4.298  1.00  0.00     0.140 A 
HETATM    2  C3  UNL     1      52.490   3.570   3.994  1.00  0.00     0.099 A 
HETATM    3 BR1  UNL     1      50.834   4.500   3.910  1.00  0.00    -0.044 Br
HETATM    4  C4  UNL     1      52.565   2.148   3.727  1.00  0.00     0.206 A 
HETATM    5  O2  UNL     1      51.521   1.483   3.430  1.00  0.00    -0.286 OA
HETATM    6  C5  UNL     1      53.843   1.450   3.795  1.00  0.00     0.073 A 
HETATM    7  C6  UNL     1      53.955   0.094   3.547  1.00  0.00     0.166 A 
HETATM    8  F1  UNL     1      52.848  -0.592   3.236  1.00  0.00    -0.202 F 
HETATM    9  C7  UNL     1      55.161  -0.567   3.611  1.00  0.00     0.129 A 
HETATM   10  C8  UNL     1      56.279   0.172   3.934  1.00  0.00     0.093 A 
HETATM   11 CL1  UNL     1      57.876  -0.557   4.047  1.00  0.00    -0.079 Cl
HETATM   12  C9  UNL     1      56.185   1.522   4.184  1.00  0.00     0.074 A 
HETATM   13 CL2  UNL     1      57.619   2.465   4.598  1.00  0.00    -0.081 Cl
HETATM   14  C10 UNL     1      54.963   2.175   4.116  1.00  0.00     0.058 A 
HETATM   15  C11 UNL     1      54.857   3.601   4.378  1.00  0.00     0.219 A 
HETATM   16  O4  UNL     1      55.916   4.220   4.669  1.00  0.00    -0.284 OA
ENDROOT
BRANCH   1  17
HETATM   17  O1  UNL     1      53.518   5.618   4.558  1.00  0.00    -0.351 OA
HETATM   18  C1  UNL     1      53.684   6.484   3.453  1.00  0.00     0.210 C 
ENDBRANCH   1  17
BRANCH   9  19
HETATM   19  O3  UNL     1      55.320  -1.923   3.370  1.00  0.00    -0.356 OA
ATOM     20  H3  UNL     1      55.544  -2.294   2.525  1.00  0.00     0.218 HD
ENDBRANCH   9  19
TORSDOF 2
ENDMDL
MODEL 5
REMARK VINA RESULT: -5.065099047      3.528      5.941
REMARK  2 active torsions:
REMARK  status: ('A' for Active; 'I' for Inactive)
REMARK    1  A    between atoms: O1_2  and  C2_3 
REMARK    2  A    between atoms: C7_11  and  O3_12 
ROOT
HETATM    1  C2  UNL     1      52.412   4.261   3.710  1.00  0.00     0.140 A 
HETATM    2  C3  UNL     1      53.438   5.014   4.003  1.00  0.00     0.099 A 
HETATM    3 BR1  UNL     1      53.150   6.875   4.262  1.00  0.00    -0.044 Br
HETATM    4  C4  UNL     1      54.762   4.436   4.128  1.00  0.00     0.206 A 
HETATM    5  O2  UNL     1      55.767   5.162   4.414  1.00  0.00    -0.286 OA
HETATM    6  C5  UNL     1      54.965   3.007   3.927  1.00  0.00     0.073 A 
HETATM    7  C6  UNL     1      56.211   2.419   4.037  1.00  0.00     0.166 A 
HETATM    8  F1  UNL     1      57.260   3.195   4.339  1.00  0.00    -0.202 F 
HETATM    9  C7  UNL     1      56.407   1.069   3.848  1.00  0.00     0.129 A 
HETATM   10  C8  UNL     1      55.304   0.301   3.539  1.00  0.00     0.093 A 
HETATM   11 CL1  UNL     1      55.423  -1.434   3.274  1.00  0.00    -0.079 Cl
HETATM   12  C9  UNL     1      54.056   0.870   3.426  1.00  0.00     0.074 A 
HETATM   13 CL2  UNL     1      52.648  -0.116   3.030  1.00  0.00    -0.081 Cl
HETATM   14  C10 UNL     1      53.875   2.232   3.619  1.00  0.00     0.058 A 
HETATM   15  C11 UNL     1      52.560   2.839   3.501  1.00  0.00     0.219 A 
HETATM   16  O4  UNL     1      51.593   2.083   3.216  1.00  0.00    -0.284 OA
ENDROOT
BRANCH   1  17
HETATM   17  O1  UNL     1      51.126   4.797   3.585  1.00  0.00    -0.351 OA
HETATM   18  C1  UNL     1      50.170   4.396   4.548  1.00  0.00     0.210 C 
ENDBRANCH   1  17
BRANCH   9  19
HETATM   19  O3  UNL     1      57.637   0.438   3.948  1.00  0.00    -0.356 OA
ATOM     20  H3  UNL     1      58.352   0.743   4.495  1.00  0.00     0.218 HD
ENDBRANCH   9  19
TORSDOF 2
ENDMDL
