MODEL 1
REMARK VINA RESULT: -8.240231956      0.000      0.000
REMARK  3 active torsions:
REMARK  status: ('A' for Active; 'I' for Inactive)
REMARK    1  A    between atoms: O1_2  and  C2_3 
REMARK    2  A    between atoms: C2_3  and  C3_5 
REMARK    3  A    between atoms: C13_19  and  O4_20 
ROOT
HETATM    1  C3  UNL     1      55.569   0.742   3.910  1.00  0.00     0.073 A 
HETATM    2  C4  UNL     1      54.207   1.051   4.069  1.00  0.00     0.036 A 
HETATM    3  C5  UNL     1      53.747   2.348   4.162  1.00  0.00     0.017 A 
HETATM    4  C6  UNL     1      52.371   2.428   4.315  1.00  0.00     0.170 C 
HETATM    5  F1  UNL     1      51.764   1.226   4.590  1.00  0.00    -0.202 F 
HETATM    6  C7  UNL     1      51.566   3.528   4.230  1.00  0.00     0.206 C 
HETATM    7  F2  UNL     1      50.236   3.234   4.293  1.00  0.00    -0.198 F 
HETATM    8  C8  UNL     1      51.924   4.856   4.092  1.00  0.00     0.230 C 
HETATM    9  O3  UNL     1      50.995   5.668   3.940  1.00  0.00    -0.284 OA
HETATM   10  C9  UNL     1      53.177   5.434   4.096  1.00  0.00     0.065 C 
HETATM   11 BR1  UNL     1      53.238   7.340   3.989  1.00  0.00    -0.047 Br
HETATM   12  C10 UNL     1      54.381   4.765   4.171  1.00  0.00     0.035 C 
HETATM   13  C11 UNL     1      54.646   3.392   4.098  1.00  0.00    -0.019 A 
HETATM   14  C12 UNL     1      55.967   3.120   3.944  1.00  0.00     0.050 A 
HETATM   15  C13 UNL     1      56.435   1.784   3.849  1.00  0.00     0.082 A 
ENDROOT
BRANCH   1  16
HETATM   16  C2  UNL     1      55.913  -0.661   3.826  1.00  0.00     0.295 C 
HETATM   17  O2  UNL     1      55.007  -1.552   3.723  1.00  0.00    -0.259 OA
BRANCH  16  18
HETATM   18  O1  UNL     1      57.190  -1.125   3.850  1.00  0.00    -0.322 OA
HETATM   19  C1  UNL     1      57.627  -2.352   3.310  1.00  0.00     0.213 C 
ENDBRANCH  16  18
ENDBRANCH   1  16
BRANCH  15  20
HETATM   20  O4  UNL     1      57.772   1.596   3.697  1.00  0.00    -0.360 OA
ATOM     21  H4  UNL     1      58.365   2.323   3.542  1.00  0.00     0.217 HD
ENDBRANCH  15  20
TORSDOF 3
ENDMDL
MODEL 2
REMARK VINA RESULT: -8.108878686      2.181      2.980
REMARK  3 active torsions:
REMARK  status: ('A' for Active; 'I' for Inactive)
REMARK    1  A    between atoms: O1_2  and  C2_3 
REMARK    2  A    between atoms: C2_3  and  C3_5 
REMARK    3  A    between atoms: C13_19  and  O4_20 
ROOT
HETATM    1  C3  UNL     1      55.800   0.439   4.129  1.00  0.00     0.073 A 
HETATM    2  C4  UNL     1      55.854   1.836   3.983  1.00  0.00     0.036 A 
HETATM    3  C5  UNL     1      54.720   2.619   3.936  1.00  0.00     0.017 A 
HETATM    4  C6  UNL     1      54.997   3.971   3.788  1.00  0.00     0.170 C 
HETATM    5  F1  UNL     1      56.306   4.245   3.473  1.00  0.00    -0.202 F 
HETATM    6  C7  UNL     1      54.150   5.034   3.912  1.00  0.00     0.206 C 
HETATM    7  F2  UNL     1      54.779   6.242   3.841  1.00  0.00    -0.198 F 
HETATM    8  C8  UNL     1      52.779   5.034   4.095  1.00  0.00     0.230 C 
HETATM    9  O3  UNL     1      52.244   6.141   4.277  1.00  0.00    -0.284 OA
HETATM   10  C9  UNL     1      51.894   3.976   4.109  1.00  0.00     0.065 C 
HETATM   11 BR1  UNL     1      50.043   4.413   4.282  1.00  0.00    -0.047 Br
HETATM   12  C10 UNL     1      52.222   2.640   4.009  1.00  0.00     0.035 C 
HETATM   13  C11 UNL     1      53.479   2.024   4.035  1.00  0.00    -0.019 A 
HETATM   14  C12 UNL     1      53.402   0.677   4.177  1.00  0.00     0.050 A 
HETATM   15  C13 UNL     1      54.571  -0.125   4.225  1.00  0.00     0.082 A 
ENDROOT
BRANCH   1  16
HETATM   16  C2  UNL     1      57.066  -0.261   4.164  1.00  0.00     0.295 C 
HETATM   17  O2  UNL     1      57.877  -0.101   5.136  1.00  0.00    -0.259 OA
BRANCH  16  18
HETATM   18  O1  UNL     1      57.480  -1.117   3.193  1.00  0.00    -0.322 OA
HETATM   19  C1  UNL     1      58.231  -2.292   3.401  1.00  0.00     0.213 C 
ENDBRANCH  16  18
ENDBRANCH   1  16
BRANCH  15  20
HETATM   20  O4  UNL     1      54.407  -1.467   4.369  1.00  0.00    -0.360 OA
ATOM     21  H4  UNL     1      54.078  -2.009   3.662  1.00  0.00     0.217 HD
ENDBRANCH  15  20
TORSDOF 3
ENDMDL
MODEL 3
REMARK VINA RESULT: -8.106112080      2.288      3.097
REMARK  3 active torsions:
REMARK  status: ('A' for Active; 'I' for Inactive)
REMARK    1  A    between atoms: O1_2  and  C2_3 
REMARK    2  A    between atoms: C2_3  and  C3_5 
REMARK    3  A    between atoms: C13_19  and  O4_20 
ROOT
HETATM    1  C3  UNL     1      55.780   0.680   4.308  1.00  0.00     0.073 A 
HETATM    2  C4  UNL     1      55.780   2.073   4.114  1.00  0.00     0.036 A 
HETATM    3  C5  UNL     1      54.616   2.807   4.020  1.00  0.00     0.017 A 
HETATM    4  C6  UNL     1      54.841   4.162   3.830  1.00  0.00     0.170 C 
HETATM    5  F1  UNL     1      56.144   4.479   3.528  1.00  0.00    -0.202 F 
HETATM    6  C7  UNL     1      53.950   5.194   3.903  1.00  0.00     0.206 C 
HETATM    7  F2  UNL     1      54.531   6.423   3.801  1.00  0.00    -0.198 F 
HETATM    8  C8  UNL     1      52.577   5.144   4.063  1.00  0.00     0.230 C 
HETATM    9  O3  UNL     1      51.994   6.234   4.197  1.00  0.00    -0.284 OA
HETATM   10  C9  UNL     1      51.735   4.052   4.099  1.00  0.00     0.065 C 
HETATM   11 BR1  UNL     1      49.865   4.419   4.226  1.00  0.00    -0.047 Br
HETATM   12  C10 UNL     1      52.119   2.728   4.051  1.00  0.00     0.035 C 
HETATM   13  C11 UNL     1      53.399   2.165   4.119  1.00  0.00    -0.019 A 
HETATM   14  C12 UNL     1      53.373   0.821   4.307  1.00  0.00     0.050 A 
HETATM   15  C13 UNL     1      54.573   0.070   4.403  1.00  0.00     0.082 A 
ENDROOT
BRANCH   1  16
HETATM   16  C2  UNL     1      57.072   0.035   4.388  1.00  0.00     0.295 C 
HETATM   17  O2  UNL     1      57.313  -1.035   3.737  1.00  0.00    -0.259 OA
BRANCH  16  18
HETATM   18  O1  UNL     1      58.101   0.504   5.142  1.00  0.00    -0.322 OA
HETATM   19  C1  UNL     1      58.101   0.619   6.548  1.00  0.00     0.213 C 
ENDBRANCH  16  18
ENDBRANCH   1  16
BRANCH  15  20
HETATM   20  O4  UNL     1      54.461  -1.271   4.590  1.00  0.00    -0.360 OA
ATOM     21  H4  UNL     1      54.597  -1.889   3.881  1.00  0.00     0.217 HD
ENDBRANCH  15  20
TORSDOF 3
ENDMDL
MODEL 4
REMARK VINA RESULT: -6.896792689      2.572      6.004
REMARK  3 active torsions:
REMARK  status: ('A' for Active; 'I' for Inactive)
REMARK    1  A    between atoms: O1_2  and  C2_3 
REMARK    2  A    between atoms: C2_3  and  C3_5 
REMARK    3  A    between atoms: C13_19  and  O4_20 
ROOT
HETATM    1  C3  UNL     1      53.266   5.187   3.917  1.00  0.00     0.073 A 
HETATM    2  C4  UNL     1      52.820   3.873   3.691  1.00  0.00     0.036 A 
HETATM    3  C5  UNL     1      53.687   2.808   3.569  1.00  0.00     0.017 A 
HETATM    4  C6  UNL     1      53.040   1.601   3.350  1.00  0.00     0.170 C 
HETATM    5  F1  UNL     1      51.704   1.725   3.052  1.00  0.00    -0.202 F 
HETATM    6  C7  UNL     1      53.555   0.337   3.390  1.00  0.00     0.206 C 
HETATM    7  F2  UNL     1      52.610  -0.639   3.264  1.00  0.00    -0.198 F 
HETATM    8  C8  UNL     1      54.871  -0.059   3.538  1.00  0.00     0.230 C 
HETATM    9  O3  UNL     1      55.075  -1.281   3.641  1.00  0.00    -0.284 OA
HETATM   10  C9  UNL     1      56.019   0.705   3.592  1.00  0.00     0.065 C 
HETATM   11 BR1  UNL     1      57.673  -0.244   3.692  1.00  0.00    -0.047 Br
HETATM   12  C10 UNL     1      56.079   2.083   3.579  1.00  0.00     0.035 C 
HETATM   13  C11 UNL     1      55.046   3.024   3.672  1.00  0.00    -0.019 A 
HETATM   14  C12 UNL     1      55.501   4.284   3.891  1.00  0.00     0.050 A 
HETATM   15  C13 UNL     1      54.605   5.376   4.015  1.00  0.00     0.082 A 
ENDROOT
BRANCH   1  16
HETATM   16  C2  UNL     1      52.248   6.210   4.025  1.00  0.00     0.295 C 
HETATM   17  O2  UNL     1      51.010   5.906   4.017  1.00  0.00    -0.259 OA
BRANCH  16  18
HETATM   18  O1  UNL     1      52.524   7.536   4.140  1.00  0.00    -0.322 OA
HETATM   19  C1  UNL     1      52.195   8.349   5.244  1.00  0.00     0.213 C 
ENDBRANCH  16  18
ENDBRANCH   1  16
BRANCH  15  20
HETATM   20  O4  UNL     1      55.141   6.606   4.233  1.00  0.00    -0.360 OA
ATOM     21  H4  UNL     1      55.933   6.892   3.793  1.00  0.00     0.217 HD
ENDBRANCH  15  20
TORSDOF 3
ENDMDL
MODEL 5
REMARK VINA RESULT: -6.770179213      3.064      6.586
REMARK  3 active torsions:
REMARK  status: ('A' for Active; 'I' for Inactive)
REMARK    1  A    between atoms: O1_2  and  C2_3 
REMARK    2  A    between atoms: C2_3  and  C3_5 
REMARK    3  A    between atoms: C13_19  and  O4_20 
ROOT
HETATM    1  C3  UNL     1      52.593   4.429   4.103  1.00  0.00     0.073 A 
HETATM    2  C4  UNL     1      53.946   4.050   4.156  1.00  0.00     0.036 A 
HETATM    3  C5  UNL     1      54.344   2.731   4.218  1.00  0.00     0.017 A 
HETATM    4  C6  UNL     1      55.722   2.579   4.262  1.00  0.00     0.170 C 
HETATM    5  F1  UNL     1      56.409   3.748   4.483  1.00  0.00    -0.202 F 
HETATM    6  C7  UNL     1      56.460   1.439   4.119  1.00  0.00     0.206 C 
HETATM    7  F2  UNL     1      57.804   1.664   4.075  1.00  0.00    -0.198 F 
HETATM    8  C8  UNL     1      56.023   0.131   4.015  1.00  0.00     0.230 C 
HETATM    9  O3  UNL     1      56.894  -0.729   3.794  1.00  0.00    -0.284 OA
HETATM   10  C9  UNL     1      54.746  -0.381   4.121  1.00  0.00     0.065 C 
HETATM   11 BR1  UNL     1      54.578  -2.281   4.027  1.00  0.00    -0.047 Br
HETATM   12  C10 UNL     1      53.588   0.350   4.287  1.00  0.00     0.035 C 
HETATM   13  C11 UNL     1      53.389   1.734   4.229  1.00  0.00    -0.019 A 
HETATM   14  C12 UNL     1      52.077   2.075   4.179  1.00  0.00     0.050 A 
HETATM   15  C13 UNL     1      51.673   3.433   4.115  1.00  0.00     0.082 A 
ENDROOT
BRANCH   1  16
HETATM   16  C2  UNL     1      52.317   5.848   4.041  1.00  0.00     0.295 C 
HETATM   17  O2  UNL     1      51.202   6.317   4.443  1.00  0.00    -0.259 OA
BRANCH  16  18
HETATM   18  O1  UNL     1      53.199   6.765   3.562  1.00  0.00    -0.322 OA
HETATM   19  C1  UNL     1      53.440   8.038   4.118  1.00  0.00     0.213 C 
ENDBRANCH  16  18
ENDBRANCH   1  16
BRANCH  15  20
HETATM   20  O4  UNL     1      50.339   3.690   4.068  1.00  0.00    -0.360 OA
ATOM     21  H4  UNL     1      49.943   4.378   4.591  1.00  0.00     0.217 HD
ENDBRANCH  15  20
TORSDOF 3
ENDMDL
