MODEL 1
REMARK VINA RESULT: -7.772962100      0.000      0.000
REMARK  1 active torsions:
REMARK  status: ('A' for Active; 'I' for Inactive)
REMARK    1  A    between atoms: C6_11  and  C7_12 
ROOT
HETATM    1  N1  UNL     1      55.796   5.297   3.137  1.00  0.00    -0.104 NA
HETATM    2  C1  UNL     1      54.671   4.495   3.460  1.00  0.00     0.060 A 
HETATM    3  C2  UNL     1      53.576   5.093   3.872  1.00  0.00     0.084 A 
HETATM    4 BR1  UNL     1      53.540   6.998   4.021  1.00  0.00    -0.045 Br
HETATM    5  C3  UNL     1      52.367   4.338   4.227  1.00  0.00     0.213 A 
HETATM    6  O1  UNL     1      51.318   4.898   4.621  1.00  0.00    -0.285 OA
HETATM    7  C4  UNL     1      52.441   2.898   4.099  1.00  0.00     0.104 A 
HETATM    8 CL1  UNL     1      51.053   1.873   4.495  1.00  0.00    -0.079 Cl
HETATM    9  C5  UNL     1      53.530   2.307   3.689  1.00  0.00     0.053 A 
HETATM   10 CL2  UNL     1      53.555   0.522   3.554  1.00  0.00    -0.086 Cl
HETATM   11  C6  UNL     1      54.737   3.057   3.335  1.00  0.00     0.132 A 
ENDROOT
BRANCH  11  12
HETATM   12  C7  UNL     1      55.873   2.444   4.067  1.00  0.00     0.039 A 
HETATM   13  C8  UNL     1      56.595   1.438   3.489  1.00  0.00     0.116 A 
HETATM   14  N2  UNL     1      57.622   0.892   4.166  1.00  0.00    -0.340 N 
HETATM   15  C9  UNL     1      57.919   1.356   5.412  1.00  0.00     0.203 A 
ATOM     16  H2  UNL     1      58.172   0.140   3.751  1.00  0.00     0.167 HD
HETATM   17  F1  UNL     1      58.947   0.840   6.139  1.00  0.00    -0.185 F 
HETATM   18  C10 UNL     1      57.195   2.373   6.002  1.00  0.00     0.149 A 
HETATM   19  N3  UNL     1      56.175   2.888   5.286  1.00  0.00    -0.363 N 
ATOM     20  H3  UNL     1      55.617   3.639   5.691  1.00  0.00     0.165 HD
ENDBRANCH  11  12
TORSDOF 1
ENDMDL
MODEL 2
REMARK VINA RESULT: -7.227886241      0.672      1.131
REMARK  1 active torsions:
REMARK  status: ('A' for Active; 'I' for Inactive)
REMARK    1  A    between atoms: C6_11  and  C7_12 
ROOT
HETATM    1  N1  UNL     1      55.703   5.413   3.244  1.00  0.00    -0.104 NA
HETATM    2  C1  UNL     1      54.554   4.623   3.506  1.00  0.00     0.060 A 
HETATM    3  C2  UNL     1      53.455   5.229   3.893  1.00  0.00     0.084 A 
HETATM    4 BR1  UNL     1      53.443   7.130   4.087  1.00  0.00    -0.045 Br
HETATM    5  C3  UNL     1      52.222   4.486   4.186  1.00  0.00     0.213 A 
HETATM    6  O1  UNL     1      51.168   5.054   4.556  1.00  0.00    -0.285 OA
HETATM    7  C4  UNL     1      52.278   3.048   4.026  1.00  0.00     0.104 A 
HETATM    8 CL1  UNL     1      50.860   2.038   4.346  1.00  0.00    -0.079 Cl
HETATM    9  C5  UNL     1      53.372   2.449   3.641  1.00  0.00     0.053 A 
HETATM   10 CL2  UNL     1      53.373   0.668   3.463  1.00  0.00    -0.086 Cl
HETATM   11  C6  UNL     1      54.602   3.187   3.349  1.00  0.00     0.132 A 
ENDROOT
BRANCH  11  12
HETATM   12  C7  UNL     1      55.701   2.538   4.106  1.00  0.00     0.039 A 
HETATM   13  C8  UNL     1      55.825   2.752   5.449  1.00  0.00     0.116 A 
HETATM   14  N2  UNL     1      56.828   2.155   6.121  1.00  0.00    -0.340 N 
HETATM   15  C9  UNL     1      57.696   1.351   5.445  1.00  0.00     0.203 A 
ATOM     16  H2  UNL     1      56.936   2.304   7.124  1.00  0.00     0.167 HD
HETATM   17  F1  UNL     1      58.725   0.724   6.075  1.00  0.00    -0.185 F 
HETATM   18  C10 UNL     1      57.576   1.130   4.087  1.00  0.00     0.149 A 
HETATM   19  N3  UNL     1      56.557   1.749   3.457  1.00  0.00    -0.363 N 
ATOM     20  H3  UNL     1      56.439   1.610   2.454  1.00  0.00     0.165 HD
ENDBRANCH  11  12
TORSDOF 1
ENDMDL
MODEL 3
REMARK VINA RESULT: -7.083942795      1.494      1.701
REMARK  1 active torsions:
REMARK  status: ('A' for Active; 'I' for Inactive)
REMARK    1  A    between atoms: C6_11  and  C7_12 
ROOT
HETATM    1  N1  UNL     1      55.600   4.821   4.293  1.00  0.00    -0.104 NA
HETATM    2  C1  UNL     1      54.831   3.716   3.847  1.00  0.00     0.060 A 
HETATM    3  C2  UNL     1      53.523   3.838   3.813  1.00  0.00     0.084 A 
HETATM    4 BR1  UNL     1      52.715   5.482   4.360  1.00  0.00    -0.045 Br
HETATM    5  C3  UNL     1      52.653   2.743   3.364  1.00  0.00     0.213 A 
HETATM    6  O1  UNL     1      51.406   2.850   3.328  1.00  0.00    -0.285 OA
HETATM    7  C4  UNL     1      53.309   1.518   2.960  1.00  0.00     0.104 A 
HETATM    8 CL1  UNL     1      52.374   0.124   2.399  1.00  0.00    -0.079 Cl
HETATM    9  C5  UNL     1      54.609   1.399   2.994  1.00  0.00     0.053 A 
HETATM   10 CL2  UNL     1      55.357  -0.144   2.481  1.00  0.00    -0.086 Cl
HETATM   11  C6  UNL     1      55.478   2.489   3.441  1.00  0.00     0.132 A 
ENDROOT
BRANCH  11  12
HETATM   12  C7  UNL     1      56.401   1.933   4.462  1.00  0.00     0.039 A 
HETATM   13  C8  UNL     1      56.091   0.766   5.099  1.00  0.00     0.116 A 
HETATM   14  N2  UNL     1      56.938   0.275   6.023  1.00  0.00    -0.340 N 
HETATM   15  C9  UNL     1      58.087   0.954   6.300  1.00  0.00     0.203 A 
ATOM     16  H2  UNL     1      56.723  -0.596   6.509  1.00  0.00     0.167 HD
HETATM   17  F1  UNL     1      58.977   0.501   7.224  1.00  0.00    -0.185 F 
HETATM   18  C10 UNL     1      58.407   2.134   5.659  1.00  0.00     0.149 A 
HETATM   19  N3  UNL     1      57.528   2.587   4.743  1.00  0.00    -0.363 N 
ATOM     20  H3  UNL     1      57.730   3.457   4.251  1.00  0.00     0.165 HD
ENDBRANCH  11  12
TORSDOF 1
ENDMDL
MODEL 4
REMARK VINA RESULT: -6.833749762      3.885      5.387
REMARK  1 active torsions:
REMARK  status: ('A' for Active; 'I' for Inactive)
REMARK    1  A    between atoms: C6_11  and  C7_12 
ROOT
HETATM    1  N1  UNL     1      56.604   2.417   6.684  1.00  0.00    -0.104 NA
HETATM    2  C1  UNL     1      56.421   1.483   5.633  1.00  0.00     0.060 A 
HETATM    3  C2  UNL     1      57.404   0.656   5.353  1.00  0.00     0.084 A 
HETATM    4 BR1  UNL     1      59.025   0.743   6.362  1.00  0.00    -0.045 Br
HETATM    5  C3  UNL     1      57.297  -0.341   4.280  1.00  0.00     0.213 A 
HETATM    6  O1  UNL     1      58.228  -1.133   4.007  1.00  0.00    -0.285 OA
HETATM    7  C4  UNL     1      56.052  -0.370   3.544  1.00  0.00     0.104 A 
HETATM    8 CL1  UNL     1      55.796  -1.525   2.227  1.00  0.00    -0.079 Cl
HETATM    9  C5  UNL     1      55.077   0.452   3.823  1.00  0.00     0.053 A 
HETATM   10 CL2  UNL     1      53.563   0.364   2.873  1.00  0.00    -0.086 Cl
HETATM   11  C6  UNL     1      55.181   1.448   4.892  1.00  0.00     0.132 A 
ENDROOT
BRANCH  11  12
HETATM   12  C7  UNL     1      54.788   2.759   4.319  1.00  0.00     0.039 A 
HETATM   13  C8  UNL     1      53.478   3.140   4.320  1.00  0.00     0.116 A 
HETATM   14  N2  UNL     1      53.138   4.333   3.796  1.00  0.00    -0.340 N 
HETATM   15  C9  UNL     1      54.111   5.133   3.276  1.00  0.00     0.203 A 
ATOM     16  H2  UNL     1      52.163   4.634   3.788  1.00  0.00     0.167 HD
HETATM   17  F1  UNL     1      53.822   6.347   2.735  1.00  0.00    -0.185 F 
HETATM   18  C10 UNL     1      55.439   4.754   3.272  1.00  0.00     0.149 A 
HETATM   19  N3  UNL     1      55.730   3.551   3.807  1.00  0.00    -0.363 N 
ATOM     20  H3  UNL     1      56.700   3.238   3.820  1.00  0.00     0.165 HD
ENDBRANCH  11  12
TORSDOF 1
ENDMDL
MODEL 5
REMARK VINA RESULT: -6.409977662      3.628      5.069
REMARK  1 active torsions:
REMARK  status: ('A' for Active; 'I' for Inactive)
REMARK    1  A    between atoms: C6_11  and  C7_12 
ROOT
HETATM    1  N1  UNL     1      55.998   2.684   5.453  1.00  0.00    -0.104 NA
HETATM    2  C1  UNL     1      55.091   2.108   4.527  1.00  0.00     0.060 A 
HETATM    3  C2  UNL     1      55.527   1.155   3.735  1.00  0.00     0.084 A 
HETATM    4 BR1  UNL     1      57.348   0.586   3.858  1.00  0.00    -0.045 Br
HETATM    5  C3  UNL     1      54.654   0.506   2.748  1.00  0.00     0.213 A 
HETATM    6  O1  UNL     1      55.061  -0.403   1.988  1.00  0.00    -0.285 OA
HETATM    7  C4  UNL     1      53.284   0.970   2.690  1.00  0.00     0.104 A 
HETATM    8 CL1  UNL     1      52.131   0.270   1.544  1.00  0.00    -0.079 Cl
HETATM    9  C5  UNL     1      52.853   1.918   3.478  1.00  0.00     0.053 A 
HETATM   10 CL2  UNL     1      51.147   2.444   3.355  1.00  0.00    -0.086 Cl
HETATM   11  C6  UNL     1      53.722   2.566   4.463  1.00  0.00     0.132 A 
ENDROOT
BRANCH  11  12
HETATM   12  C7  UNL     1      53.588   4.032   4.277  1.00  0.00     0.039 A 
HETATM   13  C8  UNL     1      52.422   4.659   4.610  1.00  0.00     0.116 A 
HETATM   14  N2  UNL     1      52.316   5.990   4.436  1.00  0.00    -0.340 N 
HETATM   15  C9  UNL     1      53.377   6.681   3.931  1.00  0.00     0.203 A 
ATOM     16  H2  UNL     1      51.453   6.475   4.678  1.00  0.00     0.167 HD
HETATM   17  F1  UNL     1      53.324   8.026   3.735  1.00  0.00    -0.185 F 
HETATM   18  C10 UNL     1      54.560   6.054   3.593  1.00  0.00     0.149 A 
HETATM   19  N3  UNL     1      54.617   4.720   3.785  1.00  0.00    -0.363 N 
ATOM     20  H3  UNL     1      55.475   4.223   3.545  1.00  0.00     0.165 HD
ENDBRANCH  11  12
TORSDOF 1
ENDMDL
