MODEL 1
REMARK VINA RESULT: -8.122170040      0.000      0.000
REMARK  8 active torsions:
REMARK  status: ('A' for Active; 'I' for Inactive)
REMARK    1  A    between atoms: N1_1  and  N2_4 
REMARK       I    between atoms: N2_4  and  C1_6 
REMARK    2  A    between atoms: C1_6  and  O2_8 
REMARK    3  A    between atoms: O2_8  and  N3_9 
REMARK    4  A    between atoms: N3_9  and  C2_10 
REMARK    5  A    between atoms: C2_10  and  C3_11 
REMARK    6  A    between atoms: C3_11  and  C4_12 
REMARK    7  A    between atoms: C4_12  and  N4_13 
REMARK    8  A    between atoms: N4_13  and  C5_15 
ROOT
HETATM    1  C5  UNL     1      21.181  -1.728  11.104  1.00  0.00     0.149 A 
HETATM    2  N5  UNL     1      20.868  -1.554  12.425  1.00  0.00    -0.335 N 
ATOM      3  H5  UNL     1      21.463  -1.953  13.150  1.00  0.00     0.168 HD
HETATM    4  C6  UNL     1      19.775  -0.856  12.758  1.00  0.00     0.199 A 
HETATM    5  N6  UNL     1      18.963  -0.314  11.827  1.00  0.00    -0.286 N 
ATOM      6  H6  UNL     1      18.134   0.214  12.096  1.00  0.00     0.188 HD
HETATM    7  N7  UNL     1      19.276  -0.489  10.552  1.00  0.00    -0.217 N 
HETATM    8  C7  UNL     1      18.670  -0.074   9.404  1.00  0.00     0.151 A 
HETATM    9  C8  UNL     1      19.376  -0.505   8.305  1.00  0.00     0.083 A 
HETATM   10  N8  UNL     1      20.413  -1.184   8.795  1.00  0.00    -0.337 N 
ATOM     11  H8  UNL     1      21.135  -1.637   8.235  1.00  0.00     0.167 HD
HETATM   12  C9  UNL     1      20.365  -1.183  10.142  1.00  0.00     0.173 A 
HETATM   13  C10 UNL     1      18.854  -0.139   6.967  1.00  0.00     0.295 C 
HETATM   14  N9  UNL     1      17.433  -0.290   6.972  1.00  0.00    -0.054 N 
ATOM     15  H91 UNL     1      17.182  -1.274   7.064  1.00  0.00     0.279 HD
ATOM     16  H92 UNL     1      17.052  -0.097   6.046  1.00  0.00     0.279 HD
HETATM   17  C11 UNL     1      16.756   0.488   7.957  1.00  0.00     0.356 C 
HETATM   18  N10 UNL     1      17.495   0.688   9.162  1.00  0.00    -0.350 N 
ATOM     19  H10 UNL     1      17.181   1.376   9.847  1.00  0.00     0.162 HD
ENDROOT
BRANCH   1  20
HETATM   20  N4  UNL     1      22.217  -2.390  10.807  1.00  0.00    -0.373 N 
ATOM     21  H4  UNL     1      22.950  -1.909  10.287  1.00  0.00     0.161 HD
BRANCH  20  22
HETATM   22  C4  UNL     1      22.437  -3.754  11.141  1.00  0.00     0.122 C 
BRANCH  22  23
HETATM   23  C3  UNL     1      23.928  -4.003  11.424  1.00  0.00     0.038 C 
BRANCH  23  24
HETATM   24  C2  UNL     1      24.657  -2.770  10.919  1.00  0.00     0.145 C 
BRANCH  24  25
HETATM   25  N3  UNL     1      25.370  -3.036   9.690  1.00  0.00    -0.090 NA
BRANCH  25  26
HETATM   26  O2  UNL     1      24.512  -2.835   8.648  1.00  0.00    -0.188 OA
BRANCH  26  27
HETATM   27  C1  UNL     1      24.388  -1.633   7.998  1.00  0.00     0.397 C 
HETATM   28  N2  UNL     1      25.448  -1.126   7.212  1.00  0.00    -0.251 N 
ATOM     29  H2  UNL     1      26.307  -1.671   7.135  1.00  0.00     0.191 HD
HETATM   30  O1  UNL     1      23.300  -1.014   8.138  1.00  0.00    -0.235 OA
BRANCH  28  31
HETATM   31  N1  UNL     1      25.359   0.094   6.536  1.00  0.00    -0.341 N 
ATOM     32  H12 UNL     1      25.593   0.942   7.053  1.00  0.00     0.177 HD
ATOM     33  H11 UNL     1      25.073   0.157   5.560  1.00  0.00     0.177 HD
ENDBRANCH  28  31
ENDBRANCH  26  27
ENDBRANCH  25  26
ENDBRANCH  24  25
ENDBRANCH  23  24
ENDBRANCH  22  23
ENDBRANCH  20  22
ENDBRANCH   1  20
TORSDOF 8
ENDMDL
MODEL 2
REMARK VINA RESULT: -7.733416064      2.970      6.711
REMARK  8 active torsions:
REMARK  status: ('A' for Active; 'I' for Inactive)
REMARK    1  A    between atoms: N1_1  and  N2_4 
REMARK       I    between atoms: N2_4  and  C1_6 
REMARK    2  A    between atoms: C1_6  and  O2_8 
REMARK    3  A    between atoms: O2_8  and  N3_9 
REMARK    4  A    between atoms: N3_9  and  C2_10 
REMARK    5  A    between atoms: C2_10  and  C3_11 
REMARK    6  A    between atoms: C3_11  and  C4_12 
REMARK    7  A    between atoms: C4_12  and  N4_13 
REMARK    8  A    between atoms: N4_13  and  C5_15 
ROOT
HETATM    1  C5  UNL     1      19.614  -0.266  10.038  1.00  0.00     0.149 A 
HETATM    2  N5  UNL     1      18.977  -0.192  11.247  1.00  0.00    -0.335 N 
ATOM      3  H5  UNL     1      18.102   0.322  11.336  1.00  0.00     0.168 HD
HETATM    4  C6  UNL     1      19.514  -0.801  12.313  1.00  0.00     0.199 A 
HETATM    5  N6  UNL     1      20.670  -1.490  12.234  1.00  0.00    -0.286 N 
ATOM      6  H6  UNL     1      21.066  -1.947  13.055  1.00  0.00     0.188 HD
HETATM    7  N7  UNL     1      21.276  -1.554  11.059  1.00  0.00    -0.217 N 
HETATM    8  C7  UNL     1      22.432  -2.162  10.667  1.00  0.00     0.151 A 
HETATM    9  C8  UNL     1      22.655  -1.948   9.326  1.00  0.00     0.083 A 
HETATM   10  N8  UNL     1      21.628  -1.208   8.910  1.00  0.00    -0.337 N 
ATOM     11  H8  UNL     1      21.493  -0.876   7.955  1.00  0.00     0.167 HD
HETATM   12  C9  UNL     1      20.793  -0.964   9.939  1.00  0.00     0.173 A 
HETATM   13  C10 UNL     1      23.875  -2.543   8.730  1.00  0.00     0.295 C 
HETATM   14  N9  UNL     1      24.962  -2.371   9.642  1.00  0.00    -0.054 N 
ATOM     15  H91 UNL     1      25.197  -1.383   9.730  1.00  0.00     0.279 HD
ATOM     16  H92 UNL     1      25.827  -2.722   9.234  1.00  0.00     0.279 HD
HETATM   17  C11 UNL     1      24.753  -2.946  10.931  1.00  0.00     0.356 C 
HETATM   18  N10 UNL     1      23.394  -2.936  11.369  1.00  0.00    -0.350 N 
ATOM     19  H10 UNL     1      23.115  -3.482  12.184  1.00  0.00     0.162 HD
ENDROOT
BRANCH   1  20
HETATM   20  N4  UNL     1      19.094   0.314   9.041  1.00  0.00    -0.373 N 
ATOM     21  H4  UNL     1      19.114   1.333   9.027  1.00  0.00     0.161 HD
BRANCH  20  22
HETATM   22  C4  UNL     1      18.486  -0.346   7.939  1.00  0.00     0.122 C 
BRANCH  22  23
HETATM   23  C3  UNL     1      16.966  -0.456   8.152  1.00  0.00     0.038 C 
BRANCH  23  24
HETATM   24  C2  UNL     1      16.331   0.334   7.020  1.00  0.00     0.145 C 
BRANCH  24  25
HETATM   25  N3  UNL     1      16.528   1.756   7.186  1.00  0.00    -0.090 NA
BRANCH  25  26
HETATM   26  O2  UNL     1      16.202   2.083   8.470  1.00  0.00    -0.188 OA
BRANCH  26  27
HETATM   27  C1  UNL     1      16.753   3.148   9.137  1.00  0.00     0.397 C 
HETATM   28  N2  UNL     1      18.155   3.315   9.196  1.00  0.00    -0.251 N 
ATOM     29  H2  UNL     1      18.752   2.630   8.732  1.00  0.00     0.191 HD
HETATM   30  O1  UNL     1      15.956   3.954   9.688  1.00  0.00    -0.235 OA
BRANCH  28  31
HETATM   31  N1  UNL     1      18.752   4.386   9.867  1.00  0.00    -0.341 N 
ATOM     32  H12 UNL     1      18.345   5.312   9.742  1.00  0.00     0.177 HD
ATOM     33  H11 UNL     1      19.569   4.266  10.465  1.00  0.00     0.177 HD
ENDBRANCH  28  31
ENDBRANCH  26  27
ENDBRANCH  25  26
ENDBRANCH  24  25
ENDBRANCH  23  24
ENDBRANCH  22  23
ENDBRANCH  20  22
ENDBRANCH   1  20
TORSDOF 8
ENDMDL
MODEL 3
REMARK VINA RESULT: -7.576799540      1.271      1.723
REMARK  8 active torsions:
REMARK  status: ('A' for Active; 'I' for Inactive)
REMARK    1  A    between atoms: N1_1  and  N2_4 
REMARK       I    between atoms: N2_4  and  C1_6 
REMARK    2  A    between atoms: C1_6  and  O2_8 
REMARK    3  A    between atoms: O2_8  and  N3_9 
REMARK    4  A    between atoms: N3_9  and  C2_10 
REMARK    5  A    between atoms: C2_10  and  C3_11 
REMARK    6  A    between atoms: C3_11  and  C4_12 
REMARK    7  A    between atoms: C4_12  and  N4_13 
REMARK    8  A    between atoms: N4_13  and  C5_15 
ROOT
HETATM    1  C5  UNL     1      20.967  -1.793  11.083  1.00  0.00     0.149 A 
HETATM    2  N5  UNL     1      20.718  -1.538  12.404  1.00  0.00    -0.335 N 
ATOM      3  H5  UNL     1      21.301  -1.959  13.127  1.00  0.00     0.168 HD
HETATM    4  C6  UNL     1      19.704  -0.730  12.741  1.00  0.00     0.199 A 
HETATM    5  N6  UNL     1      18.912  -0.154  11.813  1.00  0.00    -0.286 N 
ATOM      6  H6  UNL     1      18.144   0.458  12.086  1.00  0.00     0.188 HD
HETATM    7  N7  UNL     1      19.162  -0.409  10.538  1.00  0.00    -0.217 N 
HETATM    8  C7  UNL     1      18.555   0.013   9.393  1.00  0.00     0.151 A 
HETATM    9  C8  UNL     1      19.180  -0.525   8.292  1.00  0.00     0.083 A 
HETATM   10  N8  UNL     1      20.169  -1.275   8.778  1.00  0.00    -0.337 N 
ATOM     11  H8  UNL     1      20.827  -1.815   8.215  1.00  0.00     0.167 HD
HETATM   12  C9  UNL     1      20.170  -1.215  10.124  1.00  0.00     0.173 A 
HETATM   13  C10 UNL     1      18.646  -0.167   6.956  1.00  0.00     0.295 C 
HETATM   14  N9  UNL     1      17.218  -0.188   7.013  1.00  0.00    -0.054 N 
ATOM     15  H91 UNL     1      16.884  -1.140   7.156  1.00  0.00     0.279 HD
ATOM     16  H92 UNL     1      16.824   0.001   6.092  1.00  0.00     0.279 HD
HETATM   17  C11 UNL     1      16.650   0.688   7.984  1.00  0.00     0.356 C 
HETATM   18  N10 UNL     1      17.446   0.869   9.155  1.00  0.00    -0.350 N 
ATOM     19  H10 UNL     1      17.220   1.609   9.819  1.00  0.00     0.162 HD
ENDROOT
BRANCH   1  20
HETATM   20  N4  UNL     1      21.928  -2.558  10.782  1.00  0.00    -0.373 N 
ATOM     21  H4  UNL     1      21.955  -3.476  11.224  1.00  0.00     0.161 HD
BRANCH  20  22
HETATM   22  C4  UNL     1      22.973  -2.235   9.874  1.00  0.00     0.122 C 
BRANCH  22  23
HETATM   23  C3  UNL     1      23.637  -0.905  10.271  1.00  0.00     0.038 C 
BRANCH  23  24
HETATM   24  C2  UNL     1      23.548  -0.016   9.042  1.00  0.00     0.145 C 
BRANCH  24  25
HETATM   25  N3  UNL     1      22.967  -0.714   7.918  1.00  0.00    -0.090 NA
BRANCH  25  26
HETATM   26  O2  UNL     1      23.896  -0.758   6.919  1.00  0.00    -0.188 OA
BRANCH  26  27
HETATM   27  C1  UNL     1      24.946  -1.641   6.908  1.00  0.00     0.397 C 
HETATM   28  N2  UNL     1      26.278  -1.180   7.008  1.00  0.00    -0.251 N 
ATOM     29  H2  UNL     1      26.446  -0.177   7.090  1.00  0.00     0.191 HD
HETATM   30  O1  UNL     1      24.664  -2.865   6.803  1.00  0.00    -0.235 OA
BRANCH  28  31
HETATM   31  N1  UNL     1      27.372  -2.049   6.998  1.00  0.00    -0.341 N 
ATOM     32  H12 UNL     1      28.302  -1.644   7.105  1.00  0.00     0.177 HD
ATOM     33  H11 UNL     1      27.267  -3.057   6.889  1.00  0.00     0.177 HD
ENDBRANCH  28  31
ENDBRANCH  26  27
ENDBRANCH  25  26
ENDBRANCH  24  25
ENDBRANCH  23  24
ENDBRANCH  22  23
ENDBRANCH  20  22
ENDBRANCH   1  20
TORSDOF 8
ENDMDL
MODEL 4
REMARK VINA RESULT: -7.302296942      1.790      3.036
REMARK  8 active torsions:
REMARK  status: ('A' for Active; 'I' for Inactive)
REMARK    1  A    between atoms: N1_1  and  N2_4 
REMARK       I    between atoms: N2_4  and  C1_6 
REMARK    2  A    between atoms: C1_6  and  O2_8 
REMARK    3  A    between atoms: O2_8  and  N3_9 
REMARK    4  A    between atoms: N3_9  and  C2_10 
REMARK    5  A    between atoms: C2_10  and  C3_11 
REMARK    6  A    between atoms: C3_11  and  C4_12 
REMARK    7  A    between atoms: C4_12  and  N4_13 
REMARK    8  A    between atoms: N4_13  and  C5_15 
ROOT
HETATM    1  C5  UNL     1      20.893  -1.570  10.149  1.00  0.00     0.149 A 
HETATM    2  N5  UNL     1      20.869  -1.425  11.509  1.00  0.00    -0.335 N 
ATOM      3  H5  UNL     1      21.584  -1.867  12.086  1.00  0.00     0.168 HD
HETATM    4  C6  UNL     1      19.899  -0.696  12.077  1.00  0.00     0.199 A 
HETATM    5  N6  UNL     1      18.936  -0.097  11.347  1.00  0.00    -0.286 N 
ATOM      6  H6  UNL     1      18.204   0.454  11.795  1.00  0.00     0.188 HD
HETATM    7  N7  UNL     1      18.970  -0.245  10.032  1.00  0.00    -0.217 N 
HETATM    8  C7  UNL     1      18.158   0.227   9.045  1.00  0.00     0.151 A 
HETATM    9  C8  UNL     1      18.602  -0.197   7.814  1.00  0.00     0.083 A 
HETATM   10  N8  UNL     1      19.688  -0.929   8.063  1.00  0.00    -0.337 N 
ATOM     11  H8  UNL     1      20.258  -1.392   7.355  1.00  0.00     0.167 HD
HETATM   12  C9  UNL     1      19.920  -0.966   9.389  1.00  0.00     0.173 A 
HETATM   13  C10 UNL     1      17.830   0.228   6.622  1.00  0.00     0.295 C 
HETATM   14  N9  UNL     1      16.436   0.130   6.919  1.00  0.00    -0.054 N 
ATOM     15  H91 UNL     1      16.167  -0.846   7.040  1.00  0.00     0.279 HD
ATOM     16  H92 UNL     1      15.880   0.364   6.097  1.00  0.00     0.279 HD
HETATM   17  C11 UNL     1      16.011   0.903   8.041  1.00  0.00     0.356 C 
HETATM   18  N10 UNL     1      16.992   1.039   9.069  1.00  0.00    -0.350 N 
ATOM     19  H10 UNL     1      16.856   1.717   9.819  1.00  0.00     0.162 HD
ENDROOT
BRANCH   1  20
HETATM   20  N4  UNL     1      21.816  -2.261   9.628  1.00  0.00    -0.373 N 
ATOM     21  H4  UNL     1      21.829  -3.260   9.833  1.00  0.00     0.161 HD
BRANCH  20  22
HETATM   22  C4  UNL     1      22.835  -1.752   8.778  1.00  0.00     0.122 C 
BRANCH  22  23
HETATM   23  C3  UNL     1      23.673  -0.696   9.519  1.00  0.00     0.038 C 
BRANCH  23  24
HETATM   24  C2  UNL     1      24.530  -1.466  10.509  1.00  0.00     0.145 C 
BRANCH  24  25
HETATM   25  N3  UNL     1      24.884  -2.774  10.005  1.00  0.00    -0.090 NA
BRANCH  25  26
HETATM   26  O2  UNL     1      24.838  -3.657  11.044  1.00  0.00    -0.188 OA
BRANCH  26  27
HETATM   27  C1  UNL     1      23.684  -4.274  11.456  1.00  0.00     0.397 C 
HETATM   28  N2  UNL     1      23.375  -4.384  12.831  1.00  0.00    -0.251 N 
ATOM     29  H2  UNL     1      24.026  -3.996  13.513  1.00  0.00     0.191 HD
HETATM   30  O1  UNL     1      22.926  -4.730  10.559  1.00  0.00    -0.235 OA
BRANCH  28  31
HETATM   31  N1  UNL     1      22.210  -5.006  13.288  1.00  0.00    -0.341 N 
ATOM     32  H12 UNL     1      21.994  -5.935  12.925  1.00  0.00     0.177 HD
ATOM     33  H11 UNL     1      21.584  -4.564  13.960  1.00  0.00     0.177 HD
ENDBRANCH  28  31
ENDBRANCH  26  27
ENDBRANCH  25  26
ENDBRANCH  24  25
ENDBRANCH  23  24
ENDBRANCH  22  23
ENDBRANCH  20  22
ENDBRANCH   1  20
TORSDOF 8
ENDMDL
MODEL 5
REMARK VINA RESULT: -7.062862027      2.660      6.560
REMARK  8 active torsions:
REMARK  status: ('A' for Active; 'I' for Inactive)
REMARK    1  A    between atoms: N1_1  and  N2_4 
REMARK       I    between atoms: N2_4  and  C1_6 
REMARK    2  A    between atoms: C1_6  and  O2_8 
REMARK    3  A    between atoms: O2_8  and  N3_9 
REMARK    4  A    between atoms: N3_9  and  C2_10 
REMARK    5  A    between atoms: C2_10  and  C3_11 
REMARK    6  A    between atoms: C3_11  and  C4_12 
REMARK    7  A    between atoms: C4_12  and  N4_13 
REMARK    8  A    between atoms: N4_13  and  C5_15 
ROOT
HETATM    1  C5  UNL     1      21.806  -1.380  10.713  1.00  0.00     0.149 A 
HETATM    2  N5  UNL     1      21.762  -2.458  11.554  1.00  0.00    -0.335 N 
ATOM      3  H5  UNL     1      21.073  -2.496  12.305  1.00  0.00     0.168 HD
HETATM    4  C6  UNL     1      22.632  -3.463  11.385  1.00  0.00     0.199 A 
HETATM    5  N6  UNL     1      23.558  -3.447  10.404  1.00  0.00    -0.286 N 
ATOM      6  H6  UNL     1      24.213  -4.220  10.289  1.00  0.00     0.188 HD
HETATM    7  N7  UNL     1      23.590  -2.399   9.597  1.00  0.00    -0.217 N 
HETATM    8  C7  UNL     1      24.389  -2.096   8.534  1.00  0.00     0.151 A 
HETATM    9  C8  UNL     1      24.038  -0.877   8.001  1.00  0.00     0.083 A 
HETATM   10  N8  UNL     1      23.021  -0.445   8.747  1.00  0.00    -0.337 N 
ATOM     11  H8  UNL     1      22.528   0.438   8.611  1.00  0.00     0.167 HD
HETATM   12  C9  UNL     1      22.742  -1.348   9.708  1.00  0.00     0.173 A 
HETATM   13  C10 UNL     1      24.808  -0.392   6.832  1.00  0.00     0.295 C 
HETATM   14  N9  UNL     1      26.193  -0.673   7.047  1.00  0.00    -0.054 N 
ATOM     15  H91 UNL     1      26.553  -0.112   7.819  1.00  0.00     0.279 HD
ATOM     16  H92 UNL     1      26.754  -0.300   6.282  1.00  0.00     0.279 HD
HETATM   17  C11 UNL     1      26.494  -2.052   7.255  1.00  0.00     0.356 C 
HETATM   18  N10 UNL     1      25.466  -2.788   7.917  1.00  0.00    -0.350 N 
ATOM     19  H10 UNL     1      25.504  -3.806   7.948  1.00  0.00     0.162 HD
ENDROOT
BRANCH   1  20
HETATM   20  N4  UNL     1      20.977  -0.440  10.886  1.00  0.00    -0.373 N 
ATOM     21  H4  UNL     1      21.349   0.472  11.151  1.00  0.00     0.161 HD
BRANCH  20  22
HETATM   22  C4  UNL     1      19.568  -0.557  10.740  1.00  0.00     0.122 C 
BRANCH  22  23
HETATM   23  C3  UNL     1      19.217  -1.117   9.352  1.00  0.00     0.038 C 
BRANCH  23  24
HETATM   24  C2  UNL     1      18.944   0.093   8.474  1.00  0.00     0.145 C 
BRANCH  24  25
HETATM   25  N3  UNL     1      17.765   0.810   8.906  1.00  0.00    -0.090 NA
BRANCH  25  26
HETATM   26  O2  UNL     1      16.702   0.354   8.182  1.00  0.00    -0.188 OA
BRANCH  26  27
HETATM   27  C1  UNL     1      16.537   0.612   6.845  1.00  0.00     0.397 C 
HETATM   28  N2  UNL     1      16.468   1.941   6.369  1.00  0.00    -0.251 N 
ATOM     29  H2  UNL     1      16.543   2.707   7.038  1.00  0.00     0.191 HD
HETATM   30  O1  UNL     1      16.451  -0.382   6.075  1.00  0.00    -0.235 OA
BRANCH  28  31
HETATM   31  N1  UNL     1      16.299   2.242   5.015  1.00  0.00    -0.341 N 
ATOM     32  H12 UNL     1      15.901   3.150   4.776  1.00  0.00     0.177 HD
ATOM     33  H11 UNL     1      16.559   1.590   4.275  1.00  0.00     0.177 HD
ENDBRANCH  28  31
ENDBRANCH  26  27
ENDBRANCH  25  26
ENDBRANCH  24  25
ENDBRANCH  23  24
ENDBRANCH  22  23
ENDBRANCH  20  22
ENDBRANCH   1  20
TORSDOF 8
ENDMDL
