MODEL 1
REMARK VINA RESULT: -7.719867527      0.000      0.000
REMARK  6 active torsions:
REMARK  status: ('A' for Active; 'I' for Inactive)
REMARK    1  A    between atoms: C3_3  and  C4_4 
REMARK    2  A    between atoms: C5_7  and  O2_8 
REMARK    3  A    between atoms: C5_7  and  C6_10 
REMARK    4  A    between atoms: N3_12  and  O3_14 
REMARK    5  A    between atoms: O3_14  and  C7_15 
REMARK    6  A    between atoms: C7_15  and  C8_17 
ROOT
HETATM    1  C1  UNL     1      22.766  -3.143  10.845  1.00  0.00     0.069 C 
HETATM    2  C2  UNL     1      22.551  -1.984   9.893  1.00  0.00     0.024 C 
HETATM    3  C3  UNL     1      21.584  -1.143  10.093  1.00  0.00     0.091 C 
HETATM    4  C5  UNL     1      21.342  -0.038   9.115  1.00  0.00     0.229 C 
HETATM    5  N6  UNL     1      22.386   0.095   8.182  1.00  0.00    -0.323 N 
ATOM      6  H6  UNL     1      22.408   0.927   7.592  1.00  0.00     0.166 HD
HETATM    7  C11 UNL     1      23.406  -0.868   8.021  1.00  0.00     0.191 C 
HETATM    8  N7  UNL     1      24.328  -0.684   6.919  1.00  0.00    -0.063 NA
HETATM    9  N8  UNL     1      23.511  -1.857   8.812  1.00  0.00    -0.334 N 
ATOM     10  H8  UNL     1      24.254  -2.546   8.690  1.00  0.00     0.168 HD
ENDROOT
BRANCH   4  11
HETATM   11  O2  UNL     1      21.313   1.190   9.845  1.00  0.00    -0.361 OA
ATOM     12  H2  UNL     1      20.749   1.793   9.374  1.00  0.00     0.213 HD
ENDBRANCH   4  11
BRANCH   4  13
HETATM   13  C6  UNL     1      20.005  -0.168   8.486  1.00  0.00     0.174 C 
HETATM   14  N2  UNL     1      19.894  -0.655   7.174  1.00  0.00    -0.080 NA
HETATM   15  N3  UNL     1      18.962   0.160   9.134  1.00  0.00    -0.242 N 
ATOM     16  H3  UNL     1      19.111   0.507  10.082  1.00  0.00     0.196 HD
BRANCH  15  17
HETATM   17  O3  UNL     1      17.680   0.106   8.716  1.00  0.00    -0.192 OA
BRANCH  17  18
HETATM   18  C7  UNL     1      16.965   1.199   8.247  1.00  0.00     0.333 C 
HETATM   19  O4  UNL     1      16.160   1.049   7.292  1.00  0.00    -0.256 OA
BRANCH  18  20
HETATM   20  C8  UNL     1      17.143   2.502   8.853  1.00  0.00     0.126 A 
HETATM   21  C9  UNL     1      16.184   3.317   9.410  1.00  0.00     0.124 A 
HETATM   22  N4  UNL     1      16.746   4.448   9.869  1.00  0.00    -0.360 N 
HETATM   23  C10 UNL     1      18.055   4.345   9.603  1.00  0.00     0.180 A 
ATOM     24  H4  UNL     1      16.272   5.227  10.327  1.00  0.00     0.166 HD
HETATM   25  N5  UNL     1      18.298   3.152   8.981  1.00  0.00    -0.346 N 
ATOM     26  H5  UNL     1      19.208   2.816   8.668  1.00  0.00     0.167 HD
ENDBRANCH  18  20
ENDBRANCH  17  18
ENDBRANCH  15  17
ENDBRANCH   4  13
BRANCH   3  27
HETATM   27  C4  UNL     1      20.671  -1.268  11.234  1.00  0.00     0.268 C 
HETATM   28  N1  UNL     1      20.735  -0.624  12.470  1.00  0.00    -0.057 NA
HETATM   29  O1  UNL     1      19.664  -2.070  11.114  1.00  0.00    -0.271 OA
ENDBRANCH   3  27
TORSDOF 6
ENDMDL
MODEL 2
REMARK VINA RESULT: -6.939327083      1.149      1.280
REMARK  6 active torsions:
REMARK  status: ('A' for Active; 'I' for Inactive)
REMARK    1  A    between atoms: C3_3  and  C4_4 
REMARK    2  A    between atoms: C5_7  and  O2_8 
REMARK    3  A    between atoms: C5_7  and  C6_10 
REMARK    4  A    between atoms: N3_12  and  O3_14 
REMARK    5  A    between atoms: O3_14  and  C7_15 
REMARK    6  A    between atoms: C7_15  and  C8_17 
ROOT
HETATM    1  C1  UNL     1      22.304  -3.850  11.502  1.00  0.00     0.069 C 
HETATM    2  C2  UNL     1      22.728  -2.688  10.624  1.00  0.00     0.024 C 
HETATM    3  C3  UNL     1      22.000  -1.617  10.560  1.00  0.00     0.091 C 
HETATM    4  C5  UNL     1      22.394  -0.502   9.646  1.00  0.00     0.229 C 
HETATM    5  N6  UNL     1      23.688  -0.666   9.120  1.00  0.00    -0.323 N 
ATOM      6  H6  UNL     1      24.120   0.122   8.637  1.00  0.00     0.166 HD
HETATM    7  C11 UNL     1      24.420  -1.869   9.229  1.00  0.00     0.191 C 
HETATM    8  N7  UNL     1      25.673  -1.954   8.509  1.00  0.00    -0.063 NA
HETATM    9  N8  UNL     1      23.994  -2.839   9.932  1.00  0.00    -0.334 N 
ATOM     10  H8  UNL     1      24.531  -3.703  10.007  1.00  0.00     0.168 HD
ENDROOT
BRANCH   4  11
HETATM   11  O2  UNL     1      22.437   0.700  10.419  1.00  0.00    -0.361 OA
ATOM     12  H2  UNL     1      23.342   0.987  10.457  1.00  0.00     0.213 HD
ENDBRANCH   4  11
BRANCH   4  13
HETATM   13  C6  UNL     1      21.361  -0.278   8.605  1.00  0.00     0.174 C 
HETATM   14  N2  UNL     1      21.723  -0.287   7.249  1.00  0.00    -0.080 NA
HETATM   15  N3  UNL     1      20.151  -0.078   8.941  1.00  0.00    -0.242 N 
ATOM     16  H3  UNL     1      19.955  -0.083   9.942  1.00  0.00     0.196 HD
BRANCH  15  17
HETATM   17  O3  UNL     1      19.095   0.141   8.129  1.00  0.00    -0.192 OA
BRANCH  17  18
HETATM   18  C7  UNL     1      17.859   0.594   8.564  1.00  0.00     0.333 C 
HETATM   19  O4  UNL     1      16.880  -0.197   8.585  1.00  0.00    -0.256 OA
BRANCH  18  20
HETATM   20  C8  UNL     1      17.694   1.967   8.994  1.00  0.00     0.126 A 
HETATM   21  C9  UNL     1      16.522   2.650   9.225  1.00  0.00     0.124 A 
HETATM   22  N4  UNL     1      16.787   3.909   9.613  1.00  0.00    -0.360 N 
HETATM   23  C10 UNL     1      18.122   4.018   9.627  1.00  0.00     0.180 A 
ATOM     24  H4  UNL     1      16.109   4.634   9.849  1.00  0.00     0.166 HD
HETATM   25  N5  UNL     1      18.678   2.828   9.247  1.00  0.00    -0.346 N 
ATOM     26  H5  UNL     1      19.676   2.632   9.172  1.00  0.00     0.167 HD
ENDBRANCH  18  20
ENDBRANCH  17  18
ENDBRANCH  15  17
ENDBRANCH   4  13
BRANCH   3  27
HETATM   27  C4  UNL     1      20.757  -1.476  11.325  1.00  0.00     0.268 C 
HETATM   28  N1  UNL     1      20.545  -0.780  12.516  1.00  0.00    -0.057 NA
HETATM   29  O1  UNL     1      19.699  -2.061  10.866  1.00  0.00    -0.271 OA
ENDBRANCH   3  27
TORSDOF 6
ENDMDL
MODEL 3
REMARK VINA RESULT: -6.691559052      2.108      3.635
REMARK  6 active torsions:
REMARK  status: ('A' for Active; 'I' for Inactive)
REMARK    1  A    between atoms: C3_3  and  C4_4 
REMARK    2  A    between atoms: C5_7  and  O2_8 
REMARK    3  A    between atoms: C5_7  and  C6_10 
REMARK    4  A    between atoms: N3_12  and  O3_14 
REMARK    5  A    between atoms: O3_14  and  C7_15 
REMARK    6  A    between atoms: C7_15  and  C8_17 
ROOT
HETATM    1  C1  UNL     1      25.369  -2.028   8.792  1.00  0.00     0.069 C 
HETATM    2  C2  UNL     1      24.000  -2.185   9.424  1.00  0.00     0.024 C 
HETATM    3  C3  UNL     1      22.998  -1.480   9.000  1.00  0.00     0.091 C 
HETATM    4  C5  UNL     1      21.667  -1.599   9.670  1.00  0.00     0.229 C 
HETATM    5  N6  UNL     1      21.608  -2.680  10.568  1.00  0.00    -0.323 N 
ATOM      6  H6  UNL     1      20.697  -2.957  10.935  1.00  0.00     0.166 HD
HETATM    7  C11 UNL     1      22.748  -3.400  10.986  1.00  0.00     0.191 C 
HETATM    8  N7  UNL     1      22.567  -4.385  12.031  1.00  0.00    -0.063 NA
HETATM    9  N8  UNL     1      23.889  -3.191  10.465  1.00  0.00    -0.334 N 
ATOM     10  H8  UNL     1      24.706  -3.719  10.771  1.00  0.00     0.168 HD
ENDROOT
BRANCH   4  11
HETATM   11  O2  UNL     1      20.694  -1.877   8.660  1.00  0.00    -0.361 OA
ATOM     12  H2  UNL     1      20.796  -1.228   7.974  1.00  0.00     0.213 HD
ENDBRANCH   4  11
BRANCH   4  13
HETATM   13  C6  UNL     1      21.262  -0.307  10.278  1.00  0.00     0.174 C 
HETATM   14  N2  UNL     1      21.911   0.156  11.433  1.00  0.00    -0.080 NA
HETATM   15  N3  UNL     1      20.328   0.378   9.754  1.00  0.00    -0.242 N 
ATOM     16  H3  UNL     1      19.897  -0.014   8.917  1.00  0.00     0.196 HD
BRANCH  15  17
HETATM   17  O3  UNL     1      19.839   1.564  10.175  1.00  0.00    -0.192 OA
BRANCH  17  18
HETATM   18  C7  UNL     1      18.909   2.317   9.473  1.00  0.00     0.333 C 
HETATM   19  O4  UNL     1      19.034   3.568   9.426  1.00  0.00    -0.256 OA
BRANCH  18  20
HETATM   20  C8  UNL     1      17.805   1.669   8.797  1.00  0.00     0.126 A 
HETATM   21  C9  UNL     1      16.620   2.229   8.377  1.00  0.00     0.124 A 
HETATM   22  N4  UNL     1      15.850   1.298   7.789  1.00  0.00    -0.360 N 
HETATM   23  C10 UNL     1      16.548   0.156   7.838  1.00  0.00     0.180 A 
ATOM     24  H4  UNL     1      14.922   1.434   7.386  1.00  0.00     0.166 HD
HETATM   25  N5  UNL     1      17.746   0.384   8.456  1.00  0.00    -0.346 N 
ATOM     26  H5  UNL     1      18.471  -0.313   8.626  1.00  0.00     0.167 HD
ENDBRANCH  18  20
ENDBRANCH  17  18
ENDBRANCH  15  17
ENDBRANCH   4  13
BRANCH   3  27
HETATM   27  C4  UNL     1      23.136  -0.518   7.902  1.00  0.00     0.268 C 
HETATM   28  N1  UNL     1      24.289   0.130   7.457  1.00  0.00    -0.057 NA
HETATM   29  O1  UNL     1      22.071  -0.205   7.238  1.00  0.00    -0.271 OA
ENDBRANCH   3  27
TORSDOF 6
ENDMDL
MODEL 4
REMARK VINA RESULT: -6.595090378      2.602      3.964
REMARK  6 active torsions:
REMARK  status: ('A' for Active; 'I' for Inactive)
REMARK    1  A    between atoms: C3_3  and  C4_4 
REMARK    2  A    between atoms: C5_7  and  O2_8 
REMARK    3  A    between atoms: C5_7  and  C6_10 
REMARK    4  A    between atoms: N3_12  and  O3_14 
REMARK    5  A    between atoms: O3_14  and  C7_15 
REMARK    6  A    between atoms: C7_15  and  C8_17 
ROOT
HETATM    1  C1  UNL     1      25.750  -1.990  11.454  1.00  0.00     0.069 C 
HETATM    2  C2  UNL     1      24.420  -2.677  11.212  1.00  0.00     0.024 C 
HETATM    3  C3  UNL     1      23.691  -2.349  10.191  1.00  0.00     0.091 C 
HETATM    4  C5  UNL     1      22.354  -2.988   9.994  1.00  0.00     0.229 C 
HETATM    5  N6  UNL     1      22.147  -4.083  10.853  1.00  0.00    -0.323 N 
ATOM      6  H6  UNL     1      21.351  -4.696  10.676  1.00  0.00     0.166 HD
HETATM    7  C11 UNL     1      22.988  -4.375  11.950  1.00  0.00     0.191 C 
HETATM    8  N7  UNL     1      22.572  -5.436  12.843  1.00  0.00    -0.063 NA
HETATM    9  N8  UNL     1      24.066  -3.731  12.144  1.00  0.00    -0.334 N 
ATOM     10  H8  UNL     1      24.669  -3.951  12.937  1.00  0.00     0.168 HD
ENDROOT
BRANCH   4  11
HETATM   11  O2  UNL     1      22.316  -3.520   8.669  1.00  0.00    -0.361 OA
ATOM     12  H2  UNL     1      21.451  -3.353   8.314  1.00  0.00     0.213 HD
ENDBRANCH   4  11
BRANCH   4  13
HETATM   13  C6  UNL     1      21.268  -1.979  10.058  1.00  0.00     0.174 C 
HETATM   14  N2  UNL     1      20.599  -1.747  11.269  1.00  0.00    -0.080 NA
HETATM   15  N3  UNL     1      20.944  -1.326   9.016  1.00  0.00    -0.242 N 
ATOM     16  H3  UNL     1      21.469  -1.542   8.168  1.00  0.00     0.196 HD
BRANCH  15  17
HETATM   17  O3  UNL     1      19.988  -0.380   8.899  1.00  0.00    -0.192 OA
BRANCH  17  18
HETATM   18  C7  UNL     1      19.069  -0.325   7.862  1.00  0.00     0.333 C 
HETATM   19  O4  UNL     1      19.285  -0.974   6.806  1.00  0.00    -0.256 OA
BRANCH  18  20
HETATM   20  C8  UNL     1      17.867   0.471   7.994  1.00  0.00     0.126 A 
HETATM   21  C9  UNL     1      16.646   0.274   7.389  1.00  0.00     0.124 A 
HETATM   22  N4  UNL     1      15.781   1.230   7.766  1.00  0.00    -0.360 N 
HETATM   23  C10 UNL     1      16.454   2.027   8.607  1.00  0.00     0.180 A 
ATOM     24  H4  UNL     1      14.809   1.329   7.472  1.00  0.00     0.166 HD
HETATM   25  N5  UNL     1      17.732   1.561   8.747  1.00  0.00    -0.346 N 
ATOM     26  H5  UNL     1      18.458   1.977   9.329  1.00  0.00     0.167 HD
ENDBRANCH  18  20
ENDBRANCH  17  18
ENDBRANCH  15  17
ENDBRANCH   4  13
BRANCH   3  27
HETATM   27  C4  UNL     1      24.112  -1.321   9.234  1.00  0.00     0.268 C 
HETATM   28  N1  UNL     1      23.975   0.064   9.332  1.00  0.00    -0.057 NA
HETATM   29  O1  UNL     1      24.690  -1.713   8.146  1.00  0.00    -0.271 OA
ENDBRANCH   3  27
TORSDOF 6
ENDMDL
MODEL 5
REMARK VINA RESULT: -6.564023553      2.512      3.715
REMARK  6 active torsions:
REMARK  status: ('A' for Active; 'I' for Inactive)
REMARK    1  A    between atoms: C3_3  and  C4_4 
REMARK    2  A    between atoms: C5_7  and  O2_8 
REMARK    3  A    between atoms: C5_7  and  C6_10 
REMARK    4  A    between atoms: N3_12  and  O3_14 
REMARK    5  A    between atoms: O3_14  and  C7_15 
REMARK    6  A    between atoms: C7_15  and  C8_17 
ROOT
HETATM    1  C1  UNL     1      25.936  -3.441   8.021  1.00  0.00     0.069 C 
HETATM    2  C2  UNL     1      25.138  -2.178   8.282  1.00  0.00     0.024 C 
HETATM    3  C3  UNL     1      24.493  -2.030   9.397  1.00  0.00     0.091 C 
HETATM    4  C5  UNL     1      23.661  -0.809   9.620  1.00  0.00     0.229 C 
HETATM    5  N6  UNL     1      23.876   0.179   8.642  1.00  0.00    -0.323 N 
ATOM      6  H6  UNL     1      23.499   1.113   8.802  1.00  0.00     0.166 HD
HETATM    7  C11 UNL     1      24.590  -0.061   7.447  1.00  0.00     0.191 C 
HETATM    8  N7  UNL     1      24.604   0.995   6.456  1.00  0.00    -0.063 NA
HETATM    9  N8  UNL     1      25.196  -1.160   7.249  1.00  0.00    -0.334 N 
ATOM     10  H8  UNL     1      25.712  -1.323   6.384  1.00  0.00     0.168 HD
ENDROOT
BRANCH   4  11
HETATM   11  O2  UNL     1      24.067  -0.224  10.859  1.00  0.00    -0.361 OA
ATOM     12  H2  UNL     1      23.961   0.717  10.784  1.00  0.00     0.213 HD
ENDBRANCH   4  11
BRANCH   4  13
HETATM   13  C6  UNL     1      22.230  -1.165   9.790  1.00  0.00     0.174 C 
HETATM   14  N2  UNL     1      21.428  -1.392   8.661  1.00  0.00    -0.080 NA
HETATM   15  N3  UNL     1      21.732  -1.263  10.955  1.00  0.00    -0.242 N 
ATOM     16  H3  UNL     1      22.368  -1.085  11.733  1.00  0.00     0.196 HD
BRANCH  15  17
HETATM   17  O3  UNL     1      20.461  -1.575  11.286  1.00  0.00    -0.192 OA
BRANCH  17  18
HETATM   18  C7  UNL     1      19.434  -0.649  11.393  1.00  0.00     0.333 C 
HETATM   19  O4  UNL     1      19.070  -0.256  12.531  1.00  0.00    -0.256 OA
BRANCH  18  20
HETATM   20  C8  UNL     1      18.786  -0.138  10.203  1.00  0.00     0.126 A 
HETATM   21  C9  UNL     1      18.648   1.174   9.809  1.00  0.00     0.124 A 
HETATM   22  N4  UNL     1      17.984   1.241   8.643  1.00  0.00    -0.360 N 
HETATM   23  C10 UNL     1      17.705  -0.025   8.304  1.00  0.00     0.180 A 
ATOM     24  H4  UNL     1      17.742   2.084   8.122  1.00  0.00     0.166 HD
HETATM   25  N5  UNL     1      18.197  -0.869   9.260  1.00  0.00    -0.346 N 
ATOM     26  H5  UNL     1      18.124  -1.886   9.252  1.00  0.00     0.167 HD
ENDBRANCH  18  20
ENDBRANCH  17  18
ENDBRANCH  15  17
ENDBRANCH   4  13
BRANCH   3  27
HETATM   27  C4  UNL     1      24.510  -3.055  10.445  1.00  0.00     0.268 C 
HETATM   28  N1  UNL     1      23.646  -4.139  10.612  1.00  0.00    -0.057 NA
HETATM   29  O1  UNL     1      25.430  -2.977  11.350  1.00  0.00    -0.271 OA
ENDBRANCH   3  27
TORSDOF 6
ENDMDL
