MODEL 1
REMARK VINA RESULT: -8.072589267      0.000      0.000
REMARK  9 active torsions:
REMARK  status: ('A' for Active; 'I' for Inactive)
REMARK    1  A    between atoms: C2_2  and  C3_3 
REMARK    2  A    between atoms: C2_2  and  N9_29 
REMARK    3  A    between atoms: C3_3  and  C4_5 
REMARK    4  A    between atoms: C4_5  and  N1_6 
REMARK    5  A    between atoms: N1_6  and  N2_8 
REMARK       I    between atoms: N2_8  and  C5_10 
REMARK    6  A    between atoms: C5_10  and  C6_12 
REMARK    7  A    between atoms: C8_17  and  N5_18 
REMARK    8  A    between atoms: N5_18  and  N6_20 
REMARK    9  A    between atoms: C9_25  and  N8_26 
ROOT
HETATM    1  N2  UNL     1      19.383  -0.940  10.283  1.00  0.00    -0.266 N 
ATOM      2  H2  UNL     1      18.735  -1.676  10.000  1.00  0.00     0.190 HD
HETATM    3  C5  UNL     1      19.299   0.310   9.676  1.00  0.00     0.277 C 
HETATM    4  O2  UNL     1      20.165   1.164  10.108  1.00  0.00    -0.266 OA
ENDROOT
BRANCH   3   5
HETATM    5  C6  UNL     1      18.381   0.726   8.653  1.00  0.00     0.119 A 
HETATM    6  C7  UNL     1      18.309  -0.069   7.488  1.00  0.00     0.151 A 
HETATM    7  N3  UNL     1      19.136  -1.219   7.395  1.00  0.00    -0.081 NA
HETATM    8  N4  UNL     1      17.464   0.298   6.527  1.00  0.00    -0.176 N 
HETATM    9  C8  UNL     1      16.670   1.377   6.585  1.00  0.00     0.699 A 
ATOM     10  H4  UNL     1      17.417  -0.281   5.689  1.00  0.00     0.185 HD
HETATM   11  N7  UNL     1      16.710   2.146   7.661  1.00  0.00    -0.175 N 
HETATM   12  C9  UNL     1      17.554   1.832   8.691  1.00  0.00     0.134 A 
ATOM     13  H7  UNL     1      16.113   2.971   7.723  1.00  0.00     0.186 HD
BRANCH   9  14
HETATM   14  N5  UNL     1      15.870   1.672   5.606  1.00  0.00    -0.138 N 
ATOM     15  H5  UNL     1      14.934   1.270   5.562  1.00  0.00     0.205 HD
BRANCH  14  16
HETATM   16  N6  UNL     1      16.311   2.552   4.612  1.00  0.00    -0.331 N 
ATOM     17  H62 UNL     1      17.220   3.005   4.709  1.00  0.00     0.177 HD
ATOM     18  H61 UNL     1      15.713   2.724   3.804  1.00  0.00     0.177 HD
ENDBRANCH  14  16
ENDBRANCH   9  14
BRANCH  12  19
HETATM   19  N8  UNL     1      17.570   2.601   9.727  1.00  0.00    -0.384 N 
ATOM     20  H82 UNL     1      18.451   3.043   9.988  1.00  0.00     0.157 HD
ATOM     21  H81 UNL     1      16.711   2.749  10.256  1.00  0.00     0.157 HD
ENDBRANCH  12  19
ENDBRANCH   3   5
BRANCH   1  22
HETATM   22  N1  UNL     1      20.352  -1.217  11.292  1.00  0.00    -0.305 N 
ATOM     23  H1  UNL     1      20.282  -0.735  12.188  1.00  0.00     0.186 HD
BRANCH  22  24
HETATM   24  C4  UNL     1      21.295  -2.041  11.113  1.00  0.00     0.159 C 
BRANCH  24  25
HETATM   25  C3  UNL     1      22.182  -1.882   9.978  1.00  0.00     0.190 C 
HETATM   26  O1  UNL     1      21.759  -2.133   8.803  1.00  0.00    -0.289 OA
BRANCH  25  27
HETATM   27  C2  UNL     1      23.590  -1.428  10.183  1.00  0.00     0.180 C 
HETATM   28  C1  UNL     1      24.396  -2.590  10.673  1.00  0.00     0.043 C 
BRANCH  27  29
HETATM   29  N9  UNL     1      24.116  -0.906   8.922  1.00  0.00    -0.275 N 
HETATM   30  C10 UNL     1      24.119   0.365   8.498  1.00  0.00     0.202 A 
HETATM   31  N10 UNL     1      24.703   0.391   7.280  1.00  0.00    -0.346 N 
HETATM   32  C11 UNL     1      25.052  -0.857   6.966  1.00  0.00     0.198 A 
ATOM     33  H10 UNL     1      24.850   1.219   6.702  1.00  0.00     0.167 HD
HETATM   34  N11 UNL     1      24.680  -1.636   7.994  1.00  0.00    -0.292 N 
ATOM     35  H11 UNL     1      24.815  -2.646   8.044  1.00  0.00     0.188 HD
ENDBRANCH  27  29
ENDBRANCH  25  27
ENDBRANCH  24  25
ENDBRANCH  22  24
ENDBRANCH   1  22
TORSDOF 9
ENDMDL
MODEL 2
REMARK VINA RESULT: -7.631842133      1.680      2.484
REMARK  9 active torsions:
REMARK  status: ('A' for Active; 'I' for Inactive)
REMARK    1  A    between atoms: C2_2  and  C3_3 
REMARK    2  A    between atoms: C2_2  and  N9_29 
REMARK    3  A    between atoms: C3_3  and  C4_5 
REMARK    4  A    between atoms: C4_5  and  N1_6 
REMARK    5  A    between atoms: N1_6  and  N2_8 
REMARK       I    between atoms: N2_8  and  C5_10 
REMARK    6  A    between atoms: C5_10  and  C6_12 
REMARK    7  A    between atoms: C8_17  and  N5_18 
REMARK    8  A    between atoms: N5_18  and  N6_20 
REMARK    9  A    between atoms: C9_25  and  N8_26 
ROOT
HETATM    1  N2  UNL     1      20.608   0.232   9.525  1.00  0.00    -0.266 N 
ATOM      2  H2  UNL     1      21.071   0.465   8.646  1.00  0.00     0.190 HD
HETATM    3  C5  UNL     1      19.223   0.347   9.615  1.00  0.00     0.277 C 
HETATM    4  O2  UNL     1      18.743   0.028  10.769  1.00  0.00    -0.266 OA
ENDROOT
BRANCH   3   5
HETATM    5  C6  UNL     1      18.312   0.771   8.588  1.00  0.00     0.119 A 
HETATM    6  C7  UNL     1      18.251  -0.014   7.415  1.00  0.00     0.151 A 
HETATM    7  N3  UNL     1      19.082  -1.161   7.319  1.00  0.00    -0.081 NA
HETATM    8  N4  UNL     1      17.413   0.360   6.451  1.00  0.00    -0.176 N 
HETATM    9  C8  UNL     1      16.617   1.436   6.512  1.00  0.00     0.699 A 
ATOM     10  H4  UNL     1      17.375  -0.212   5.607  1.00  0.00     0.185 HD
HETATM   11  N7  UNL     1      16.646   2.195   7.596  1.00  0.00    -0.175 N 
HETATM   12  C9  UNL     1      17.483   1.874   8.630  1.00  0.00     0.134 A 
ATOM     13  H7  UNL     1      16.046   3.018   7.660  1.00  0.00     0.186 HD
BRANCH   9  14
HETATM   14  N5  UNL     1      15.824   1.739   5.529  1.00  0.00    -0.138 N 
ATOM     15  H5  UNL     1      14.883   1.347   5.483  1.00  0.00     0.205 HD
BRANCH  14  16
HETATM   16  N6  UNL     1      16.279   2.610   4.535  1.00  0.00    -0.331 N 
ATOM     17  H62 UNL     1      17.244   2.542   4.209  1.00  0.00     0.177 HD
ATOM     18  H61 UNL     1      15.635   3.301   4.151  1.00  0.00     0.177 HD
ENDBRANCH  14  16
ENDBRANCH   9  14
BRANCH  12  19
HETATM   19  N8  UNL     1      17.488   2.634   9.672  1.00  0.00    -0.384 N 
ATOM     20  H82 UNL     1      17.239   3.616   9.557  1.00  0.00     0.157 HD
ATOM     21  H81 UNL     1      17.739   2.241  10.579  1.00  0.00     0.157 HD
ENDBRANCH  12  19
ENDBRANCH   3   5
BRANCH   1  22
HETATM   22  N1  UNL     1      21.394  -0.205  10.631  1.00  0.00    -0.305 N 
ATOM     23  H1  UNL     1      20.934  -0.381  11.524  1.00  0.00     0.186 HD
BRANCH  22  24
HETATM   24  C4  UNL     1      22.643  -0.381  10.542  1.00  0.00     0.159 C 
BRANCH  24  25
HETATM   25  C3  UNL     1      23.245  -0.621   9.245  1.00  0.00     0.190 C 
HETATM   26  O1  UNL     1      23.472   0.356   8.461  1.00  0.00    -0.289 OA
BRANCH  25  27
HETATM   27  C2  UNL     1      23.597  -2.012   8.827  1.00  0.00     0.180 C 
HETATM   28  C1  UNL     1      24.908  -1.971   8.107  1.00  0.00     0.043 C 
BRANCH  27  29
HETATM   29  N9  UNL     1      23.664  -2.868  10.012  1.00  0.00    -0.275 N 
HETATM   30  C10 UNL     1      24.633  -2.917  10.935  1.00  0.00     0.202 A 
HETATM   31  N10 UNL     1      24.284  -3.849  11.849  1.00  0.00    -0.346 N 
HETATM   32  C11 UNL     1      23.109  -4.362  11.483  1.00  0.00     0.198 A 
ATOM     33  H10 UNL     1      24.824  -4.112  12.674  1.00  0.00     0.167 HD
HETATM   34  N11 UNL     1      22.749  -3.741  10.348  1.00  0.00    -0.292 N 
ATOM     35  H11 UNL     1      21.892  -3.923   9.826  1.00  0.00     0.188 HD
ENDBRANCH  27  29
ENDBRANCH  25  27
ENDBRANCH  24  25
ENDBRANCH  22  24
ENDBRANCH   1  22
TORSDOF 9
ENDMDL
MODEL 3
REMARK VINA RESULT: -7.488944747      0.921      1.143
REMARK  9 active torsions:
REMARK  status: ('A' for Active; 'I' for Inactive)
REMARK    1  A    between atoms: C2_2  and  C3_3 
REMARK    2  A    between atoms: C2_2  and  N9_29 
REMARK    3  A    between atoms: C3_3  and  C4_5 
REMARK    4  A    between atoms: C4_5  and  N1_6 
REMARK    5  A    between atoms: N1_6  and  N2_8 
REMARK       I    between atoms: N2_8  and  C5_10 
REMARK    6  A    between atoms: C5_10  and  C6_12 
REMARK    7  A    between atoms: C8_17  and  N5_18 
REMARK    8  A    between atoms: N5_18  and  N6_20 
REMARK    9  A    between atoms: C9_25  and  N8_26 
ROOT
HETATM    1  N2  UNL     1      19.379  -1.141   9.997  1.00  0.00    -0.266 N 
ATOM      2  H2  UNL     1      18.900  -1.896   9.507  1.00  0.00     0.190 HD
HETATM    3  C5  UNL     1      19.137   0.177   9.618  1.00  0.00     0.277 C 
HETATM    4  O2  UNL     1      19.794   1.051  10.303  1.00  0.00    -0.266 OA
ENDROOT
BRANCH   3   5
HETATM    5  C6  UNL     1      18.260   0.641   8.579  1.00  0.00     0.119 A 
HETATM    6  C7  UNL     1      18.266  -0.076   7.362  1.00  0.00     0.151 A 
HETATM    7  N3  UNL     1      19.125  -1.200   7.237  1.00  0.00    -0.081 NA
HETATM    8  N4  UNL     1      17.462   0.337   6.385  1.00  0.00    -0.176 N 
HETATM    9  C8  UNL     1      16.641   1.392   6.473  1.00  0.00     0.699 A 
ATOM     10  H4  UNL     1      17.472  -0.186   5.509  1.00  0.00     0.185 HD
HETATM   11  N7  UNL     1      16.608   2.088   7.598  1.00  0.00    -0.175 N 
HETATM   12  C9  UNL     1      17.406   1.724   8.647  1.00  0.00     0.134 A 
ATOM     13  H7  UNL     1      15.988   2.894   7.682  1.00  0.00     0.186 HD
BRANCH   9  14
HETATM   14  N5  UNL     1      15.883   1.735   5.475  1.00  0.00    -0.138 N 
ATOM     15  H5  UNL     1      14.942   1.353   5.383  1.00  0.00     0.205 HD
BRANCH  14  16
HETATM   16  N6  UNL     1      16.378   2.637   4.528  1.00  0.00    -0.331 N 
ATOM     17  H62 UNL     1      15.951   2.679   3.602  1.00  0.00     0.177 HD
ATOM     18  H61 UNL     1      17.161   3.240   4.781  1.00  0.00     0.177 HD
ENDBRANCH  14  16
ENDBRANCH   9  14
BRANCH  12  19
HETATM   19  N8  UNL     1      17.352   2.423   9.730  1.00  0.00    -0.384 N 
ATOM     20  H82 UNL     1      17.422   1.937  10.624  1.00  0.00     0.157 HD
ATOM     21  H81 UNL     1      17.240   3.434   9.670  1.00  0.00     0.157 HD
ENDBRANCH  12  19
ENDBRANCH   3   5
BRANCH   1  22
HETATM   22  N1  UNL     1      20.282  -1.459  11.055  1.00  0.00    -0.305 N 
ATOM     23  H1  UNL     1      19.904  -1.671  11.978  1.00  0.00     0.186 HD
BRANCH  22  24
HETATM   24  C4  UNL     1      21.535  -1.489  10.885  1.00  0.00     0.159 C 
BRANCH  24  25
HETATM   25  C3  UNL     1      22.076  -1.772   9.571  1.00  0.00     0.190 C 
HETATM   26  O1  UNL     1      21.980  -2.945   9.085  1.00  0.00    -0.289 OA
BRANCH  25  27
HETATM   27  C2  UNL     1      22.747  -0.691   8.787  1.00  0.00     0.180 C 
HETATM   28  C1  UNL     1      23.004   0.466   9.699  1.00  0.00     0.043 C 
BRANCH  27  29
HETATM   29  N9  UNL     1      23.991  -1.211   8.218  1.00  0.00    -0.275 N 
HETATM   30  C10 UNL     1      24.644  -0.771   7.133  1.00  0.00     0.202 A 
HETATM   31  N10 UNL     1      25.742  -1.542   6.974  1.00  0.00    -0.346 N 
HETATM   32  C11 UNL     1      25.756  -2.445   7.956  1.00  0.00     0.198 A 
ATOM     33  H10 UNL     1      26.438  -1.449   6.233  1.00  0.00     0.167 HD
HETATM   34  N11 UNL     1      24.666  -2.219   8.707  1.00  0.00    -0.292 N 
ATOM     35  H11 UNL     1      24.404  -2.754   9.535  1.00  0.00     0.188 HD
ENDBRANCH  27  29
ENDBRANCH  25  27
ENDBRANCH  24  25
ENDBRANCH  22  24
ENDBRANCH   1  22
TORSDOF 9
ENDMDL
MODEL 4
REMARK VINA RESULT: -7.429649242      2.007      7.282
REMARK  9 active torsions:
REMARK  status: ('A' for Active; 'I' for Inactive)
REMARK    1  A    between atoms: C2_2  and  C3_3 
REMARK    2  A    between atoms: C2_2  and  N9_29 
REMARK    3  A    between atoms: C3_3  and  C4_5 
REMARK    4  A    between atoms: C4_5  and  N1_6 
REMARK    5  A    between atoms: N1_6  and  N2_8 
REMARK       I    between atoms: N2_8  and  C5_10 
REMARK    6  A    between atoms: C5_10  and  C6_12 
REMARK    7  A    between atoms: C8_17  and  N5_18 
REMARK    8  A    between atoms: N5_18  and  N6_20 
REMARK    9  A    between atoms: C9_25  and  N8_26 
ROOT
HETATM    1  N2  UNL     1      21.147  -1.697  10.050  1.00  0.00    -0.266 N 
ATOM      2  H2  UNL     1      20.888  -2.281   9.255  1.00  0.00     0.190 HD
HETATM    3  C5  UNL     1      22.466  -1.270  10.178  1.00  0.00     0.277 C 
HETATM    4  O2  UNL     1      22.683  -0.538  11.218  1.00  0.00    -0.266 OA
ENDROOT
BRANCH   3   5
HETATM    5  C6  UNL     1      23.567  -1.555   9.301  1.00  0.00     0.119 A 
HETATM    6  C7  UNL     1      23.558  -0.935   8.032  1.00  0.00     0.151 A 
HETATM    7  N3  UNL     1      22.477  -0.077   7.699  1.00  0.00    -0.081 NA
HETATM    8  N4  UNL     1      24.569  -1.185   7.203  1.00  0.00    -0.176 N 
HETATM    9  C8  UNL     1      25.603  -1.989   7.486  1.00  0.00     0.699 A 
ATOM     10  H4  UNL     1      24.555  -0.734   6.287  1.00  0.00     0.185 HD
HETATM   11  N7  UNL     1      25.646  -2.587   8.666  1.00  0.00    -0.175 N 
HETATM   12  C9  UNL     1      24.642  -2.378   9.572  1.00  0.00     0.134 A 
ATOM     13  H7  UNL     1      26.426  -3.202   8.899  1.00  0.00     0.186 HD
BRANCH   9  14
HETATM   14  N5  UNL     1      26.555  -2.185   6.624  1.00  0.00    -0.138 N 
ATOM     15  H5  UNL     1      26.351  -2.589   5.710  1.00  0.00     0.205 HD
BRANCH  14  16
HETATM   16  N6  UNL     1      27.864  -1.832   6.968  1.00  0.00    -0.331 N 
ATOM     17  H62 UNL     1      28.169  -1.916   7.938  1.00  0.00     0.177 HD
ATOM     18  H61 UNL     1      28.493  -1.497   6.239  1.00  0.00     0.177 HD
ENDBRANCH  14  16
ENDBRANCH   9  14
BRANCH  12  19
HETATM   19  N8  UNL     1      24.713  -2.976  10.713  1.00  0.00    -0.384 N 
ATOM     20  H82 UNL     1      23.853  -3.337  11.125  1.00  0.00     0.157 HD
ATOM     21  H81 UNL     1      25.618  -3.073  11.174  1.00  0.00     0.157 HD
ENDBRANCH  12  19
ENDBRANCH   3   5
BRANCH   1  22
HETATM   22  N1  UNL     1      20.150  -1.335  11.003  1.00  0.00    -0.305 N 
ATOM     23  H1  UNL     1      20.229  -1.686  11.957  1.00  0.00     0.186 HD
BRANCH  22  24
HETATM   24  C4  UNL     1      19.170  -0.593  10.703  1.00  0.00     0.159 C 
BRANCH  24  25
HETATM   25  C3  UNL     1      19.371   0.546   9.830  1.00  0.00     0.190 C 
HETATM   26  O1  UNL     1      20.366   1.320  10.016  1.00  0.00    -0.289 OA
BRANCH  25  27
HETATM   27  C2  UNL     1      18.414   0.815   8.715  1.00  0.00     0.180 C 
HETATM   28  C1  UNL     1      17.459  -0.332   8.624  1.00  0.00     0.043 C 
BRANCH  27  29
HETATM   29  N9  UNL     1      17.715   2.075   8.974  1.00  0.00    -0.275 N 
HETATM   30  C10 UNL     1      16.415   2.344   8.793  1.00  0.00     0.202 A 
HETATM   31  N10 UNL     1      16.205   3.627   9.160  1.00  0.00    -0.346 N 
HETATM   32  C11 UNL     1      17.372   4.134   9.562  1.00  0.00     0.198 A 
ATOM     33  H10 UNL     1      15.313   4.120   9.134  1.00  0.00     0.167 HD
HETATM   34  N11 UNL     1      18.285   3.157   9.437  1.00  0.00    -0.292 N 
ATOM     35  H11 UNL     1      19.274   3.247   9.668  1.00  0.00     0.188 HD
ENDBRANCH  27  29
ENDBRANCH  25  27
ENDBRANCH  24  25
ENDBRANCH  22  24
ENDBRANCH   1  22
TORSDOF 9
ENDMDL
MODEL 5
REMARK VINA RESULT: -7.421319354      1.752      7.001
REMARK  9 active torsions:
REMARK  status: ('A' for Active; 'I' for Inactive)
REMARK    1  A    between atoms: C2_2  and  C3_3 
REMARK    2  A    between atoms: C2_2  and  N9_29 
REMARK    3  A    between atoms: C3_3  and  C4_5 
REMARK    4  A    between atoms: C4_5  and  N1_6 
REMARK    5  A    between atoms: N1_6  and  N2_8 
REMARK       I    between atoms: N2_8  and  C5_10 
REMARK    6  A    between atoms: C5_10  and  C6_12 
REMARK    7  A    between atoms: C8_17  and  N5_18 
REMARK    8  A    between atoms: N5_18  and  N6_20 
REMARK    9  A    between atoms: C9_25  and  N8_26 
ROOT
HETATM    1  N2  UNL     1      21.778  -0.735  11.066  1.00  0.00    -0.266 N 
ATOM      2  H2  UNL     1      22.097   0.186  10.766  1.00  0.00     0.190 HD
HETATM    3  C5  UNL     1      22.393  -1.870  10.545  1.00  0.00     0.277 C 
HETATM    4  O2  UNL     1      21.912  -2.981  10.992  1.00  0.00    -0.266 OA
ENDROOT
BRANCH   3   5
HETATM    5  C6  UNL     1      23.468  -1.925   9.593  1.00  0.00     0.119 A 
HETATM    6  C7  UNL     1      23.279  -1.248   8.368  1.00  0.00     0.151 A 
HETATM    7  N3  UNL     1      22.055  -0.561   8.149  1.00  0.00    -0.081 NA
HETATM    8  N4  UNL     1      24.262  -1.284   7.471  1.00  0.00    -0.176 N 
HETATM    9  C8  UNL     1      25.427  -1.922   7.647  1.00  0.00     0.699 A 
ATOM     10  H4  UNL     1      24.118  -0.793   6.589  1.00  0.00     0.185 HD
HETATM   11  N7  UNL     1      25.640  -2.568   8.783  1.00  0.00    -0.175 N 
HETATM   12  C9  UNL     1      24.675  -2.574   9.753  1.00  0.00     0.134 A 
ATOM     13  H7  UNL     1      26.521  -3.059   8.935  1.00  0.00     0.186 HD
BRANCH   9  14
HETATM   14  N5  UNL     1      26.341  -1.914   6.724  1.00  0.00    -0.138 N 
ATOM     15  H5  UNL     1      26.082  -1.894   5.738  1.00  0.00     0.205 HD
BRANCH  14  16
HETATM   16  N6  UNL     1      27.687  -1.934   7.104  1.00  0.00    -0.331 N 
ATOM     17  H62 UNL     1      28.261  -1.102   6.965  1.00  0.00     0.177 HD
ATOM     18  H61 UNL     1      28.072  -2.783   7.515  1.00  0.00     0.177 HD
ENDBRANCH  14  16
ENDBRANCH   9  14
BRANCH  12  19
HETATM   19  N8  UNL     1      24.913  -3.213  10.849  1.00  0.00    -0.384 N 
ATOM     20  H82 UNL     1      25.876  -3.267  11.179  1.00  0.00     0.157 HD
ATOM     21  H81 UNL     1      24.141  -3.644  11.356  1.00  0.00     0.157 HD
ENDBRANCH  12  19
ENDBRANCH   3   5
BRANCH   1  22
HETATM   22  N1  UNL     1      20.714  -0.830  12.011  1.00  0.00    -0.305 N 
ATOM     23  H1  UNL     1      20.923  -1.141  12.960  1.00  0.00     0.186 HD
BRANCH  22  24
HETATM   24  C4  UNL     1      19.520  -0.541  11.711  1.00  0.00     0.159 C 
BRANCH  24  25
HETATM   25  C3  UNL     1      19.159  -0.320  10.325  1.00  0.00     0.190 C 
HETATM   26  O1  UNL     1      19.185  -1.291   9.501  1.00  0.00    -0.289 OA
BRANCH  25  27
HETATM   27  C2  UNL     1      18.759   1.043   9.862  1.00  0.00     0.180 C 
HETATM   28  C1  UNL     1      19.993   1.794   9.475  1.00  0.00     0.043 C 
BRANCH  27  29
HETATM   29  N9  UNL     1      17.835   0.915   8.734  1.00  0.00    -0.275 N 
HETATM   30  C10 UNL     1      16.715   1.615   8.508  1.00  0.00     0.202 A 
HETATM   31  N10 UNL     1      16.176   1.167   7.353  1.00  0.00    -0.346 N 
HETATM   32  C11 UNL     1      16.964   0.201   6.880  1.00  0.00     0.198 A 
ATOM     33  H10 UNL     1      15.318   1.508   6.919  1.00  0.00     0.167 HD
HETATM   34  N11 UNL     1      17.978   0.065   7.750  1.00  0.00    -0.292 N 
ATOM     35  H11 UNL     1      18.745  -0.601   7.658  1.00  0.00     0.188 HD
ENDBRANCH  27  29
ENDBRANCH  25  27
ENDBRANCH  24  25
ENDBRANCH  22  24
ENDBRANCH   1  22
TORSDOF 9
ENDMDL
