MODEL 1
REMARK VINA RESULT: -9.001951328      0.000      0.000
REMARK  7 active torsions:
REMARK  status: ('A' for Active; 'I' for Inactive)
REMARK    1  A    between atoms: N1_1  and  C1_4 
REMARK    2  A    between atoms: C2_7  and  N3_8 
REMARK    3  A    between atoms: N3_8  and  C3_10 
REMARK    4  A    between atoms: C5_19  and  N8_20 
REMARK    5  A    between atoms: N8_20  and  C6_22 
REMARK    6  A    between atoms: C6_22  and  N9_23 
REMARK    7  A    between atoms: C8_27  and  N11_28 
ROOT
HETATM    1  C1  UNL     1      10.853  -0.877   5.957  1.00  0.00     0.679 A 
HETATM    2  N2  UNL     1       9.903  -1.626   5.410  1.00  0.00    -0.173 N 
ATOM      3  H2  UNL     1       9.669  -2.538   5.801  1.00  0.00     0.186 HD
HETATM    4  C2  UNL     1       9.258  -1.153   4.330  1.00  0.00     0.179 A 
HETATM    5  C4  UNL     1       9.578   0.090   3.796  1.00  0.00     0.205 A 
HETATM    6  F1  UNL     1       8.927   0.564   2.709  1.00  0.00    -0.198 F 
HETATM    7  C5  UNL     1      10.565   0.854   4.376  1.00  0.00     0.161 A 
HETATM    8  N13 UNL     1      11.182   0.339   5.454  1.00  0.00    -0.174 N 
ATOM      9  H13 UNL     1      11.919   0.879   5.908  1.00  0.00     0.186 HD
ENDROOT
BRANCH   7  10
HETATM   10  N8  UNL     1      10.940   2.011   3.969  1.00  0.00    -0.355 N 
ATOM     11  H8  UNL     1      10.834   2.779   4.632  1.00  0.00     0.162 HD
BRANCH  10  12
HETATM   12  C6  UNL     1      11.487   2.349   2.698  1.00  0.00     0.273 C 
BRANCH  12  13
HETATM   13  N9  UNL     1      10.546   3.175   1.935  1.00  0.00    -0.267 N 
HETATM   14  C7  UNL     1      10.375   3.160   0.601  1.00  0.00     0.205 A 
HETATM   15  N10 UNL     1       9.418   4.068   0.326  1.00  0.00    -0.317 N 
HETATM   16  C8  UNL     1       8.997   4.643   1.469  1.00  0.00     0.265 A 
ATOM     17  H10 UNL     1       9.067   4.286  -0.605  1.00  0.00     0.169 HD
HETATM   18  N12 UNL     1       9.719   4.063   2.439  1.00  0.00    -0.261 N 
ATOM     19  H12 UNL     1       9.638   4.281   3.432  1.00  0.00     0.190 HD
BRANCH  16  20
HETATM   20  N11 UNL     1       7.997   5.646   1.571  1.00  0.00    -0.078 N 
HETATM   21  O1  UNL     1       7.926   6.551   0.718  1.00  0.00    -0.529 OA
HETATM   22  O2  UNL     1       7.095   5.641   2.604  1.00  0.00    -0.529 OA
ENDBRANCH  16  20
ENDBRANCH  12  13
ENDBRANCH  10  12
ENDBRANCH   7  10
BRANCH   4  23
HETATM   23  N3  UNL     1       8.250  -1.937   3.742  1.00  0.00    -0.171 N 
ATOM     24  H3  UNL     1       8.502  -2.660   3.067  1.00  0.00     0.186 HD
BRANCH  23  25
HETATM   25  C3  UNL     1       6.992  -1.752   4.050  1.00  0.00     0.709 A 
HETATM   26  N4  UNL     1       5.919  -1.978   3.275  1.00  0.00    -0.117 N 
HETATM   27  N5  UNL     1       4.853  -1.655   3.985  1.00  0.00     0.006 NA
ATOM     28  H4  UNL     1       5.926  -2.332   2.319  1.00  0.00     0.202 HD
HETATM   29  N6  UNL     1       5.210  -1.231   5.183  1.00  0.00     0.006 NA
HETATM   30  N7  UNL     1       6.528  -1.292   5.221  1.00  0.00    -0.117 N 
ATOM     31  H7  UNL     1       7.105  -1.029   6.019  1.00  0.00     0.202 HD
ENDBRANCH  23  25
ENDBRANCH   4  23
BRANCH   1  32
HETATM   32  N1  UNL     1      11.470  -1.353   7.009  1.00  0.00    -0.234 N 
ATOM     33  H12 UNL     1      12.265  -1.984   6.904  1.00  0.00     0.174 HD
ATOM     34  H11 UNL     1      11.126  -1.072   7.927  1.00  0.00     0.174 HD
ENDBRANCH   1  32
TORSDOF 7
ENDMDL
MODEL 2
REMARK VINA RESULT: -8.836818388      3.631      7.060
REMARK  7 active torsions:
REMARK  status: ('A' for Active; 'I' for Inactive)
REMARK    1  A    between atoms: N1_1  and  C1_4 
REMARK    2  A    between atoms: C2_7  and  N3_8 
REMARK    3  A    between atoms: N3_8  and  C3_10 
REMARK    4  A    between atoms: C5_19  and  N8_20 
REMARK    5  A    between atoms: N8_20  and  C6_22 
REMARK    6  A    between atoms: C6_22  and  N9_23 
REMARK    7  A    between atoms: C8_27  and  N11_28 
ROOT
HETATM    1  C1  UNL     1      12.099   1.304   3.097  1.00  0.00     0.679 A 
HETATM    2  N2  UNL     1      11.904   2.513   2.582  1.00  0.00    -0.173 N 
ATOM      3  H2  UNL     1      12.694   3.118   2.359  1.00  0.00     0.186 HD
HETATM    4  C2  UNL     1      10.642   2.919   2.363  1.00  0.00     0.179 A 
HETATM    5  C4  UNL     1       9.565   2.096   2.669  1.00  0.00     0.205 A 
HETATM    6  F1  UNL     1       8.295   2.507   2.448  1.00  0.00    -0.198 F 
HETATM    7  C5  UNL     1       9.784   0.846   3.202  1.00  0.00     0.161 A 
HETATM    8  N13 UNL     1      11.063   0.483   3.403  1.00  0.00    -0.174 N 
ATOM      9  H13 UNL     1      11.262  -0.436   3.797  1.00  0.00     0.186 HD
ENDROOT
BRANCH   7  10
HETATM   10  N8  UNL     1       8.868   0.006   3.520  1.00  0.00    -0.355 N 
ATOM     11  H8  UNL     1       8.451  -0.518   2.751  1.00  0.00     0.162 HD
BRANCH  10  12
HETATM   12  C6  UNL     1       8.366  -0.279   4.822  1.00  0.00     0.273 C 
BRANCH  12  13
HETATM   13  N9  UNL     1       9.385  -0.956   5.630  1.00  0.00    -0.267 N 
HETATM   14  C7  UNL     1       9.669  -2.270   5.615  1.00  0.00     0.205 A 
HETATM   15  N10 UNL     1      10.663  -2.459   6.504  1.00  0.00    -0.317 N 
HETATM   16  C8  UNL     1      10.996  -1.282   7.068  1.00  0.00     0.265 A 
ATOM     17  H10 UNL     1      11.097  -3.356   6.717  1.00  0.00     0.169 HD
HETATM   18  N12 UNL     1      10.182  -0.379   6.500  1.00  0.00    -0.261 N 
ATOM     19  H12 UNL     1      10.183   0.618   6.714  1.00  0.00     0.190 HD
BRANCH  16  20
HETATM   20  N11 UNL     1      12.004  -1.091   8.051  1.00  0.00    -0.078 N 
HETATM   21  O1  UNL     1      11.944  -1.697   9.137  1.00  0.00    -0.529 OA
HETATM   22  O2  UNL     1      13.056  -0.241   7.826  1.00  0.00    -0.529 OA
ENDBRANCH  16  20
ENDBRANCH  12  13
ENDBRANCH  10  12
ENDBRANCH   7  10
BRANCH   4  23
HETATM   23  N3  UNL     1      10.423   4.197   1.818  1.00  0.00    -0.171 N 
ATOM     24  H3  UNL     1      10.588   5.025   2.392  1.00  0.00     0.186 HD
BRANCH  23  25
HETATM   25  C3  UNL     1      10.010   4.337   0.584  1.00  0.00     0.709 A 
HETATM   26  N4  UNL     1       9.050   5.160   0.133  1.00  0.00    -0.117 N 
HETATM   27  N5  UNL     1       8.962   4.975  -1.172  1.00  0.00     0.006 NA
ATOM     28  H4  UNL     1       8.494   5.807   0.692  1.00  0.00     0.202 HD
HETATM   29  N6  UNL     1       9.832   4.063  -1.565  1.00  0.00     0.006 NA
HETATM   30  N7  UNL     1      10.476   3.672  -0.482  1.00  0.00    -0.117 N 
ATOM     31  H7  UNL     1      11.215   2.970  -0.459  1.00  0.00     0.202 HD
ENDBRANCH  23  25
ENDBRANCH   4  23
BRANCH   1  32
HETATM   32  N1  UNL     1      13.335   0.925   3.303  1.00  0.00    -0.234 N 
ATOM     33  H12 UNL     1      13.904   1.374   4.020  1.00  0.00     0.174 HD
ATOM     34  H11 UNL     1      13.701   0.171   2.722  1.00  0.00     0.174 HD
ENDBRANCH   1  32
TORSDOF 7
ENDMDL
MODEL 3
REMARK VINA RESULT: -8.748972217      1.230      1.560
REMARK  7 active torsions:
REMARK  status: ('A' for Active; 'I' for Inactive)
REMARK    1  A    between atoms: N1_1  and  C1_4 
REMARK    2  A    between atoms: C2_7  and  N3_8 
REMARK    3  A    between atoms: N3_8  and  C3_10 
REMARK    4  A    between atoms: C5_19  and  N8_20 
REMARK    5  A    between atoms: N8_20  and  C6_22 
REMARK    6  A    between atoms: C6_22  and  N9_23 
REMARK    7  A    between atoms: C8_27  and  N11_28 
ROOT
HETATM    1  C1  UNL     1      10.823  -0.415   6.398  1.00  0.00     0.679 A 
HETATM    2  N2  UNL     1       9.804  -1.266   6.436  1.00  0.00    -0.173 N 
ATOM      3  H2  UNL     1       9.592  -1.788   7.286  1.00  0.00     0.186 HD
HETATM    4  C2  UNL     1       9.058  -1.422   5.329  1.00  0.00     0.179 A 
HETATM    5  C4  UNL     1       9.346  -0.712   4.169  1.00  0.00     0.205 A 
HETATM    6  F1  UNL     1       8.594  -0.871   3.056  1.00  0.00    -0.198 F 
HETATM    7  C5  UNL     1      10.407   0.166   4.146  1.00  0.00     0.161 A 
HETATM    8  N13 UNL     1      11.123   0.289   5.278  1.00  0.00    -0.174 N 
ATOM      9  H13 UNL     1      11.915   0.931   5.295  1.00  0.00     0.186 HD
ENDROOT
BRANCH   7  10
HETATM   10  N8  UNL     1      10.761   0.871   3.135  1.00  0.00    -0.355 N 
ATOM     11  H8  UNL     1      10.871   0.371   2.253  1.00  0.00     0.162 HD
BRANCH  10  12
HETATM   12  C6  UNL     1      11.019   2.271   3.100  1.00  0.00     0.273 C 
BRANCH  12  13
HETATM   13  N9  UNL     1       9.771   3.021   2.923  1.00  0.00    -0.267 N 
HETATM   14  C7  UNL     1       8.578   2.719   3.465  1.00  0.00     0.205 A 
HETATM   15  N10 UNL     1       7.715   3.664   3.046  1.00  0.00    -0.317 N 
HETATM   16  C8  UNL     1       8.356   4.544   2.253  1.00  0.00     0.265 A 
ATOM     17  H10 UNL     1       6.726   3.707   3.291  1.00  0.00     0.169 HD
HETATM   18  N12 UNL     1       9.625   4.109   2.203  1.00  0.00    -0.261 N 
ATOM     19  H12 UNL     1      10.373   4.562   1.678  1.00  0.00     0.190 HD
BRANCH  16  20
HETATM   20  N11 UNL     1       7.768   5.675   1.626  1.00  0.00    -0.078 N 
HETATM   21  O1  UNL     1       6.617   6.035   1.933  1.00  0.00    -0.529 OA
HETATM   22  O2  UNL     1       8.452   6.390   0.676  1.00  0.00    -0.529 OA
ENDBRANCH  16  20
ENDBRANCH  12  13
ENDBRANCH  10  12
ENDBRANCH   7  10
BRANCH   4  23
HETATM   23  N3  UNL     1       7.976  -2.320   5.358  1.00  0.00    -0.171 N 
ATOM     24  H3  UNL     1       8.146  -3.318   5.237  1.00  0.00     0.186 HD
BRANCH  23  25
HETATM   25  C3  UNL     1       6.753  -1.889   5.538  1.00  0.00     0.709 A 
HETATM   26  N4  UNL     1       5.917  -1.393   4.611  1.00  0.00    -0.117 N 
HETATM   27  N5  UNL     1       4.792  -1.083   5.230  1.00  0.00     0.006 NA
ATOM     28  H4  UNL     1       6.114  -1.278   3.617  1.00  0.00     0.202 HD
HETATM   29  N6  UNL     1       4.883  -1.364   6.516  1.00  0.00     0.006 NA
HETATM   30  N7  UNL     1       6.092  -1.860   6.703  1.00  0.00    -0.117 N 
ATOM     31  H7  UNL     1       6.466  -2.173   7.599  1.00  0.00     0.202 HD
ENDBRANCH  23  25
ENDBRANCH   4  23
BRANCH   1  32
HETATM   32  N1  UNL     1      11.537  -0.276   7.485  1.00  0.00    -0.234 N 
ATOM     33  H12 UNL     1      11.323   0.461   8.157  1.00  0.00     0.174 HD
ATOM     34  H11 UNL     1      12.309  -0.927   7.631  1.00  0.00     0.174 HD
ENDBRANCH   1  32
TORSDOF 7
ENDMDL
MODEL 4
REMARK VINA RESULT: -8.738836833      2.314      3.360
REMARK  7 active torsions:
REMARK  status: ('A' for Active; 'I' for Inactive)
REMARK    1  A    between atoms: N1_1  and  C1_4 
REMARK    2  A    between atoms: C2_7  and  N3_8 
REMARK    3  A    between atoms: N3_8  and  C3_10 
REMARK    4  A    between atoms: C5_19  and  N8_20 
REMARK    5  A    between atoms: N8_20  and  C6_22 
REMARK    6  A    between atoms: C6_22  and  N9_23 
REMARK    7  A    between atoms: C8_27  and  N11_28 
ROOT
HETATM    1  C1  UNL     1      11.941   1.505   3.263  1.00  0.00     0.679 A 
HETATM    2  N2  UNL     1      11.471   0.264   3.322  1.00  0.00    -0.173 N 
ATOM      3  H2  UNL     1      12.098  -0.535   3.231  1.00  0.00     0.186 HD
HETATM    4  C2  UNL     1      10.151   0.088   3.505  1.00  0.00     0.179 A 
HETATM    5  C4  UNL     1       9.297   1.176   3.629  1.00  0.00     0.205 A 
HETATM    6  F1  UNL     1       7.968   0.996   3.813  1.00  0.00    -0.198 F 
HETATM    7  C5  UNL     1       9.799   2.457   3.565  1.00  0.00     0.161 A 
HETATM    8  N13 UNL     1      11.126   2.583   3.381  1.00  0.00    -0.174 N 
ATOM      9  H13 UNL     1      11.531   3.518   3.329  1.00  0.00     0.186 HD
ENDROOT
BRANCH   7  10
HETATM   10  N8  UNL     1       9.105   3.530   3.667  1.00  0.00    -0.355 N 
ATOM     11  H8  UNL     1       9.417   4.205   4.364  1.00  0.00     0.162 HD
BRANCH  10  12
HETATM   12  C6  UNL     1       7.947   3.889   2.919  1.00  0.00     0.273 C 
BRANCH  12  13
HETATM   13  N9  UNL     1       8.328   4.499   1.641  1.00  0.00    -0.267 N 
HETATM   14  C7  UNL     1       7.982   5.725   1.210  1.00  0.00     0.205 A 
HETATM   15  N10 UNL     1       8.543   5.877  -0.005  1.00  0.00    -0.317 N 
HETATM   16  C8  UNL     1       9.229   4.765  -0.331  1.00  0.00     0.265 A 
ATOM     17  H10 UNL     1       8.461   6.709  -0.589  1.00  0.00     0.169 HD
HETATM   18  N12 UNL     1       9.070   3.938   0.713  1.00  0.00    -0.261 N 
ATOM     19  H12 UNL     1       9.470   3.002   0.778  1.00  0.00     0.190 HD
BRANCH  16  20
HETATM   20  N11 UNL     1       9.951   4.562  -1.537  1.00  0.00    -0.078 N 
HETATM   21  O1  UNL     1       9.624   5.168  -2.574  1.00  0.00    -0.529 OA
HETATM   22  O2  UNL     1      11.015   3.698  -1.585  1.00  0.00    -0.529 OA
ENDBRANCH  16  20
ENDBRANCH  12  13
ENDBRANCH  10  12
ENDBRANCH   7  10
BRANCH   4  23
HETATM   23  N3  UNL     1       9.643  -1.222   3.570  1.00  0.00    -0.171 N 
ATOM     24  H3  UNL     1       9.448  -1.731   2.708  1.00  0.00     0.186 HD
BRANCH  23  25
HETATM   25  C3  UNL     1       9.416  -1.796   4.725  1.00  0.00     0.709 A 
HETATM   26  N4  UNL     1      10.309  -2.399   5.525  1.00  0.00    -0.117 N 
HETATM   27  N5  UNL     1       9.648  -2.836   6.582  1.00  0.00     0.006 NA
ATOM     28  H4  UNL     1      11.308  -2.501   5.350  1.00  0.00     0.202 HD
HETATM   29  N6  UNL     1       8.368  -2.532   6.482  1.00  0.00     0.006 NA
HETATM   30  N7  UNL     1       8.228  -1.891   5.336  1.00  0.00    -0.117 N 
ATOM     31  H7  UNL     1       7.348  -1.525   4.972  1.00  0.00     0.202 HD
ENDBRANCH  23  25
ENDBRANCH   4  23
BRANCH   1  32
HETATM   32  N1  UNL     1      13.228   1.658   3.084  1.00  0.00    -0.234 N 
ATOM     33  H12 UNL     1      13.854   0.853   3.098  1.00  0.00     0.174 HD
ATOM     34  H11 UNL     1      13.575   2.605   2.934  1.00  0.00     0.174 HD
ENDBRANCH   1  32
TORSDOF 7
ENDMDL
MODEL 5
REMARK VINA RESULT: -8.586304325      3.143      6.662
REMARK  7 active torsions:
REMARK  status: ('A' for Active; 'I' for Inactive)
REMARK    1  A    between atoms: N1_1  and  C1_4 
REMARK    2  A    between atoms: C2_7  and  N3_8 
REMARK    3  A    between atoms: N3_8  and  C3_10 
REMARK    4  A    between atoms: C5_19  and  N8_20 
REMARK    5  A    between atoms: N8_20  and  C6_22 
REMARK    6  A    between atoms: C6_22  and  N9_23 
REMARK    7  A    between atoms: C8_27  and  N11_28 
ROOT
HETATM    1  C1  UNL     1      12.638   1.668   2.922  1.00  0.00     0.679 A 
HETATM    2  N2  UNL     1      11.911   2.639   2.382  1.00  0.00    -0.173 N 
ATOM      3  H2  UNL     1      12.334   3.315   1.747  1.00  0.00     0.186 HD
HETATM    4  C2  UNL     1      10.605   2.710   2.694  1.00  0.00     0.179 A 
HETATM    5  C4  UNL     1      10.028   1.790   3.561  1.00  0.00     0.205 A 
HETATM    6  F1  UNL     1       8.714   1.864   3.873  1.00  0.00    -0.198 F 
HETATM    7  C5  UNL     1      10.796   0.789   4.112  1.00  0.00     0.161 A 
HETATM    8  N13 UNL     1      12.096   0.758   3.771  1.00  0.00    -0.174 N 
ATOM      9  H13 UNL     1      12.693   0.029   4.161  1.00  0.00     0.186 HD
ENDROOT
BRANCH   7  10
HETATM   10  N8  UNL     1      10.368  -0.111   4.920  1.00  0.00    -0.355 N 
ATOM     11  H8  UNL     1      10.245   0.177   5.891  1.00  0.00     0.162 HD
BRANCH  10  12
HETATM   12  C6  UNL     1      10.045  -1.465   4.619  1.00  0.00     0.273 C 
BRANCH  12  13
HETATM   13  N9  UNL     1       8.595  -1.674   4.677  1.00  0.00    -0.267 N 
HETATM   14  C7  UNL     1       7.714  -1.412   3.695  1.00  0.00     0.205 A 
HETATM   15  N10 UNL     1       6.499  -1.750   4.169  1.00  0.00    -0.317 N 
HETATM   16  C8  UNL     1       6.616  -2.215   5.427  1.00  0.00     0.265 A 
ATOM     17  H10 UNL     1       5.624  -1.667   3.653  1.00  0.00     0.169 HD
HETATM   18  N12 UNL     1       7.928  -2.150   5.703  1.00  0.00    -0.261 N 
ATOM     19  H12 UNL     1       8.349  -2.433   6.588  1.00  0.00     0.190 HD
BRANCH  16  20
HETATM   20  N11 UNL     1       5.547  -2.665   6.247  1.00  0.00    -0.078 N 
HETATM   21  O1  UNL     1       4.653  -1.875   6.602  1.00  0.00    -0.529 OA
HETATM   22  O2  UNL     1       5.477  -3.970   6.661  1.00  0.00    -0.529 OA
ENDBRANCH  16  20
ENDBRANCH  12  13
ENDBRANCH  10  12
ENDBRANCH   7  10
BRANCH   4  23
HETATM   23  N3  UNL     1       9.825   3.735   2.128  1.00  0.00    -0.171 N 
ATOM     24  H3  UNL     1       9.500   4.504   2.715  1.00  0.00     0.186 HD
BRANCH  23  25
HETATM   25  C3  UNL     1       9.513   3.714   0.857  1.00  0.00     0.709 A 
HETATM   26  N4  UNL     1       9.340   2.635   0.077  1.00  0.00    -0.117 N 
HETATM   27  N5  UNL     1       9.034   3.075  -1.131  1.00  0.00     0.006 NA
ATOM     28  H4  UNL     1       9.427   1.660   0.363  1.00  0.00     0.202 HD
HETATM   29  N6  UNL     1       9.007   4.395  -1.145  1.00  0.00     0.006 NA
HETATM   30  N7  UNL     1       9.303   4.786   0.081  1.00  0.00    -0.117 N 
ATOM     31  H7  UNL     1       9.362   5.756   0.389  1.00  0.00     0.202 HD
ENDBRANCH  23  25
ENDBRANCH   4  23
BRANCH   1  32
HETATM   32  N1  UNL     1      13.907   1.614   2.607  1.00  0.00    -0.234 N 
ATOM     33  H12 UNL     1      14.359   2.396   2.134  1.00  0.00     0.174 HD
ATOM     34  H11 UNL     1      14.419   0.766   2.851  1.00  0.00     0.174 HD
ENDBRANCH   1  32
TORSDOF 7
ENDMDL
