MODEL 1
REMARK VINA RESULT: -7.181455717      0.000      0.000
REMARK  8 active torsions:
REMARK  status: ('A' for Active; 'I' for Inactive)
REMARK    1  A    between atoms: N1_1  and  C1_4 
REMARK    2  A    between atoms: C4_9  and  N3_10 
REMARK    3  A    between atoms: N5_17  and  C7_18 
REMARK    4  A    between atoms: N8_23  and  C8_24 
REMARK    5  A    between atoms: C8_24  and  C9_25 
REMARK    6  A    between atoms: C9_25  and  O1_26 
REMARK    7  A    between atoms: C10_30  and  C11_31 
REMARK    8  A    between atoms: C11_31  and  O2_32 
ROOT
HETATM    1  C1  UNL     1       9.644   4.557   1.881  1.00  0.00     0.695 A 
HETATM    2  N2  UNL     1       9.779   3.692   2.903  1.00  0.00    -0.192 N 
ATOM      3  H2  UNL     1       9.997   4.045   3.834  1.00  0.00     0.184 HD
HETATM    4  C2  UNL     1       9.630   2.358   2.714  1.00  0.00     0.062 A 
HETATM    5  C3  UNL     1       9.337   1.950   1.431  1.00  0.00     0.014 A 
HETATM    6  C4  UNL     1       9.203   2.866   0.392  1.00  0.00     0.143 A 
HETATM    7  N4  UNL     1       9.362   4.189   0.635  1.00  0.00    -0.070 N 
HETATM    8 CL1  UNL     1       9.202   5.376  -0.635  1.00  0.00     0.036 Cl
HETATM    9  C5  UNL     1       9.153   0.533   1.098  1.00  0.00     0.065 C 
HETATM   10  C6  UNL     1       9.566  -0.420   2.169  1.00  0.00     0.147 C 
HETATM   11  N5  UNL     1       9.452   0.095   3.505  1.00  0.00    -0.202 N 
HETATM   12  C10 UNL     1       9.789   1.459   3.864  1.00  0.00     0.176 C 
ENDROOT
BRANCH  11  13
HETATM   13  C7  UNL     1       8.985  -0.776   4.527  1.00  0.00     0.712 A 
HETATM   14  N6  UNL     1       9.725  -1.467   5.411  1.00  0.00    -0.115 N 
HETATM   15  N7  UNL     1       8.928  -2.164   6.204  1.00  0.00    -0.211 N 
ATOM     16  H6  UNL     1      10.743  -1.456   5.463  1.00  0.00     0.207 HD
HETATM   17  N8  UNL     1       7.688  -1.930   5.840  1.00  0.00    -0.203 N 
ATOM     18  H7  UNL     1       9.224  -2.776   6.965  1.00  0.00     0.210 HD
HETATM   19  N9  UNL     1       7.704  -1.093   4.829  1.00  0.00    -0.113 N 
ATOM     20  H9  UNL     1       6.879  -0.737   4.346  1.00  0.00     0.207 HD
BRANCH  17  21
HETATM   21  C8  UNL     1       6.448  -2.455   6.397  1.00  0.00     0.197 C 
BRANCH  21  22
HETATM   22  C9  UNL     1       5.296  -1.513   6.132  1.00  0.00     0.187 C 
BRANCH  22  23
HETATM   23  O1  UNL     1       4.919  -1.617   4.795  1.00  0.00    -0.399 OA
ATOM     24  H1  UNL     1       4.102  -2.098   4.739  1.00  0.00     0.209 HD
ENDBRANCH  22  23
ENDBRANCH  21  22
ENDBRANCH  17  21
ENDBRANCH  11  13
BRANCH  12  25
HETATM   25  C11 UNL     1      11.165   1.523   4.455  1.00  0.00     0.196 C 
BRANCH  25  26
HETATM   26  O2  UNL     1      12.052   2.139   3.570  1.00  0.00    -0.398 OA
ATOM     27  H2  UNL     1      12.127   3.066   3.763  1.00  0.00     0.209 HD
ENDBRANCH  25  26
ENDBRANCH  12  25
BRANCH   6  28
HETATM   28  N3  UNL     1       8.933   2.511  -0.798  1.00  0.00    -0.383 N 
ATOM     29  H32 UNL     1       8.478   1.608  -0.932  1.00  0.00     0.157 HD
ATOM     30  H31 UNL     1       9.153   3.093  -1.606  1.00  0.00     0.157 HD
ENDBRANCH   6  28
BRANCH   1  31
HETATM   31  N1  UNL     1       9.795   5.820   2.112  1.00  0.00    -0.233 N 
ATOM     32  H12 UNL     1      10.485   6.093   2.813  1.00  0.00     0.174 HD
ATOM     33  H11 UNL     1       9.224   6.486   1.591  1.00  0.00     0.174 HD
ENDBRANCH   1  31
TORSDOF 8
ENDMDL
MODEL 2
REMARK VINA RESULT: -6.047178464      3.274      6.819
REMARK  8 active torsions:
REMARK  status: ('A' for Active; 'I' for Inactive)
REMARK    1  A    between atoms: N1_1  and  C1_4 
REMARK    2  A    between atoms: C4_9  and  N3_10 
REMARK    3  A    between atoms: N5_17  and  C7_18 
REMARK    4  A    between atoms: N8_23  and  C8_24 
REMARK    5  A    between atoms: C8_24  and  C9_25 
REMARK    6  A    between atoms: C9_25  and  O1_26 
REMARK    7  A    between atoms: C10_30  and  C11_31 
REMARK    8  A    between atoms: C11_31  and  O2_32 
ROOT
HETATM    1  C1  UNL     1       6.345  -1.697   4.160  1.00  0.00     0.695 A 
HETATM    2  N2  UNL     1       6.745  -0.786   3.255  1.00  0.00    -0.192 N 
ATOM      3  H2  UNL     1       6.168  -0.607   2.434  1.00  0.00     0.184 HD
HETATM    4  C2  UNL     1       7.904  -0.101   3.418  1.00  0.00     0.062 A 
HETATM    5  C3  UNL     1       8.634  -0.394   4.549  1.00  0.00     0.014 A 
HETATM    6  C4  UNL     1       8.197  -1.342   5.469  1.00  0.00     0.143 A 
HETATM    7  N4  UNL     1       7.031  -1.998   5.259  1.00  0.00    -0.070 N 
HETATM    8 CL1  UNL     1       6.441  -3.195   6.384  1.00  0.00     0.036 Cl
HETATM    9  C5  UNL     1       9.906   0.279   4.839  1.00  0.00     0.065 C 
HETATM   10  C6  UNL     1      10.462   1.078   3.708  1.00  0.00     0.147 C 
HETATM   11  N5  UNL     1       9.475   1.614   2.812  1.00  0.00    -0.202 N 
HETATM   12  C10 UNL     1       8.293   0.882   2.399  1.00  0.00     0.176 C 
ENDROOT
BRANCH  11  13
HETATM   13  C7  UNL     1       9.666   2.928   2.304  1.00  0.00     0.712 A 
HETATM   14  N6  UNL     1      10.828   3.591   2.173  1.00  0.00    -0.115 N 
HETATM   15  N7  UNL     1      10.598   4.788   1.661  1.00  0.00    -0.211 N 
ATOM     16  H6  UNL     1      11.746   3.228   2.429  1.00  0.00     0.207 HD
HETATM   17  N8  UNL     1       9.304   4.902   1.462  1.00  0.00    -0.203 N 
ATOM     18  H7  UNL     1      11.301   5.499   1.457  1.00  0.00     0.210 HD
HETATM   19  N9  UNL     1       8.726   3.787   1.844  1.00  0.00    -0.113 N 
ATOM     20  H9  UNL     1       7.725   3.598   1.802  1.00  0.00     0.207 HD
BRANCH  17  21
HETATM   21  C8  UNL     1       8.549   6.024   0.918  1.00  0.00     0.197 C 
BRANCH  21  22
HETATM   22  C9  UNL     1       7.106   5.971   1.366  1.00  0.00     0.187 C 
BRANCH  22  23
HETATM   23  O1  UNL     1       7.045   6.202   2.738  1.00  0.00    -0.399 OA
ATOM     24  H1  UNL     1       6.499   5.538   3.141  1.00  0.00     0.209 HD
ENDBRANCH  22  23
ENDBRANCH  21  22
ENDBRANCH  17  21
ENDBRANCH  11  13
BRANCH  12  25
HETATM   25  C11 UNL     1       8.503   0.259   1.052  1.00  0.00     0.196 C 
BRANCH  25  26
HETATM   26  O2  UNL     1       8.968   1.208   0.139  1.00  0.00    -0.398 OA
ATOM     27  H2  UNL     1       8.715   0.972  -0.746  1.00  0.00     0.209 HD
ENDBRANCH  25  26
ENDBRANCH  12  25
BRANCH   6  28
HETATM   28  N3  UNL     1       8.855  -1.626   6.519  1.00  0.00    -0.383 N 
ATOM     29  H32 UNL     1       8.576  -2.457   7.042  1.00  0.00     0.157 HD
ATOM     30  H31 UNL     1       9.637  -1.059   6.845  1.00  0.00     0.157 HD
ENDBRANCH   6  28
BRANCH   1  31
HETATM   31  N1  UNL     1       5.231  -2.324   3.960  1.00  0.00    -0.233 N 
ATOM     32  H12 UNL     1       4.540  -1.878   3.357  1.00  0.00     0.174 HD
ATOM     33  H11 UNL     1       5.091  -3.230   4.408  1.00  0.00     0.174 HD
ENDBRANCH   1  31
TORSDOF 8
ENDMDL
MODEL 3
REMARK VINA RESULT: -6.018155664      2.134      3.860
REMARK  8 active torsions:
REMARK  status: ('A' for Active; 'I' for Inactive)
REMARK    1  A    between atoms: N1_1  and  C1_4 
REMARK    2  A    between atoms: C4_9  and  N3_10 
REMARK    3  A    between atoms: N5_17  and  C7_18 
REMARK    4  A    between atoms: N8_23  and  C8_24 
REMARK    5  A    between atoms: C8_24  and  C9_25 
REMARK    6  A    between atoms: C9_25  and  O1_26 
REMARK    7  A    between atoms: C10_30  and  C11_31 
REMARK    8  A    between atoms: C11_31  and  O2_32 
ROOT
HETATM    1  C1  UNL     1       9.201   2.525  -0.416  1.00  0.00     0.695 A 
HETATM    2  N2  UNL     1       9.110   1.481   0.428  1.00  0.00    -0.192 N 
ATOM      3  H2  UNL     1       8.954   0.546   0.053  1.00  0.00     0.184 HD
HETATM    4  C2  UNL     1       9.222   1.653   1.768  1.00  0.00     0.062 A 
HETATM    5  C3  UNL     1       9.431   2.943   2.204  1.00  0.00     0.014 A 
HETATM    6  C4  UNL     1       9.521   4.005   1.310  1.00  0.00     0.143 A 
HETATM    7  N4  UNL     1       9.402   3.779  -0.020  1.00  0.00    -0.070 N 
HETATM    8 CL1  UNL     1       9.508   5.078  -1.181  1.00  0.00     0.036 Cl
HETATM    9  C5  UNL     1       9.569   3.260   3.631  1.00  0.00     0.065 C 
HETATM   10  C6  UNL     1       9.201   2.147   4.555  1.00  0.00     0.147 C 
HETATM   11  N5  UNL     1       9.403   0.831   4.019  1.00  0.00    -0.202 N 
HETATM   12  C10 UNL     1       9.114   0.478   2.642  1.00  0.00     0.176 C 
ENDROOT
BRANCH  11  13
HETATM   13  C7  UNL     1       9.914  -0.179   4.881  1.00  0.00     0.712 A 
HETATM   14  N6  UNL     1       9.888  -1.508   4.684  1.00  0.00    -0.115 N 
HETATM   15  N7  UNL     1      10.462  -2.117   5.708  1.00  0.00    -0.211 N 
ATOM     16  H6  UNL     1       9.489  -1.975   3.871  1.00  0.00     0.207 HD
HETATM   17  N8  UNL     1      10.855  -1.196   6.559  1.00  0.00    -0.203 N 
ATOM     18  H7  UNL     1      10.580  -3.124   5.818  1.00  0.00     0.210 HD
HETATM   19  N9  UNL     1      10.532  -0.019   6.075  1.00  0.00    -0.113 N 
ATOM     20  H9  UNL     1      10.718   0.876   6.527  1.00  0.00     0.207 HD
BRANCH  17  21
HETATM   21  C8  UNL     1      11.536  -1.351   7.838  1.00  0.00     0.197 C 
BRANCH  21  22
HETATM   22  C9  UNL     1      12.590  -0.283   8.020  1.00  0.00     0.187 C 
BRANCH  22  23
HETATM   23  O1  UNL     1      13.601  -0.474   7.081  1.00  0.00    -0.399 OA
ATOM     24  H1  UNL     1      13.337  -1.155   6.474  1.00  0.00     0.209 HD
ENDBRANCH  22  23
ENDBRANCH  21  22
ENDBRANCH  17  21
ENDBRANCH  11  13
BRANCH  12  25
HETATM   25  C11 UNL     1       7.777  -0.191   2.540  1.00  0.00     0.196 C 
BRANCH  25  26
HETATM   26  O2  UNL     1       6.912   0.287   3.527  1.00  0.00    -0.398 OA
ATOM     27  H2  UNL     1       6.014   0.276   3.218  1.00  0.00     0.209 HD
ENDBRANCH  25  26
ENDBRANCH  12  25
BRANCH   6  28
HETATM   28  N3  UNL     1       9.714   5.202   1.691  1.00  0.00    -0.383 N 
ATOM     29  H32 UNL     1       9.832   5.368   2.691  1.00  0.00     0.157 HD
ATOM     30  H31 UNL     1       9.752   5.985   1.039  1.00  0.00     0.157 HD
ENDBRANCH   6  28
BRANCH   1  31
HETATM   31  N1  UNL     1       9.087   2.310  -1.686  1.00  0.00    -0.233 N 
ATOM     32  H12 UNL     1       9.092   3.120  -2.305  1.00  0.00     0.174 HD
ATOM     33  H11 UNL     1       8.997   1.348  -2.014  1.00  0.00     0.174 HD
ENDBRANCH   1  31
TORSDOF 8
ENDMDL
MODEL 4
REMARK VINA RESULT: -5.633028124      2.227      3.717
REMARK  8 active torsions:
REMARK  status: ('A' for Active; 'I' for Inactive)
REMARK    1  A    between atoms: N1_1  and  C1_4 
REMARK    2  A    between atoms: C4_9  and  N3_10 
REMARK    3  A    between atoms: N5_17  and  C7_18 
REMARK    4  A    between atoms: N8_23  and  C8_24 
REMARK    5  A    between atoms: C8_24  and  C9_25 
REMARK    6  A    between atoms: C9_25  and  O1_26 
REMARK    7  A    between atoms: C10_30  and  C11_31 
REMARK    8  A    between atoms: C11_31  and  O2_32 
ROOT
HETATM    1  C1  UNL     1       9.812   3.526   0.419  1.00  0.00     0.695 A 
HETATM    2  N2  UNL     1      10.057   2.345   1.016  1.00  0.00    -0.192 N 
ATOM      3  H2  UNL     1      10.681   1.675   0.567  1.00  0.00     0.184 HD
HETATM    4  C2  UNL     1       9.486   2.032   2.205  1.00  0.00     0.062 A 
HETATM    5  C3  UNL     1       8.654   2.982   2.754  1.00  0.00     0.014 A 
HETATM    6  C4  UNL     1       8.419   4.196   2.116  1.00  0.00     0.143 A 
HETATM    7  N4  UNL     1       9.014   4.459   0.928  1.00  0.00    -0.070 N 
HETATM    8 CL1  UNL     1       8.750   5.967   0.089  1.00  0.00     0.036 Cl
HETATM    9  C5  UNL     1       7.977   2.763   4.038  1.00  0.00     0.065 C 
HETATM   10  C6  UNL     1       8.044   1.362   4.548  1.00  0.00     0.147 C 
HETATM   11  N5  UNL     1       9.210   0.631   4.139  1.00  0.00    -0.202 N 
HETATM   12  C10 UNL     1       9.788   0.729   2.812  1.00  0.00     0.176 C 
ENDROOT
BRANCH  11  13
HETATM   13  C7  UNL     1       9.832  -0.232   5.083  1.00  0.00     0.712 A 
HETATM   14  N6  UNL     1       9.964  -1.568   5.003  1.00  0.00    -0.115 N 
HETATM   15  N7  UNL     1      10.601  -2.012   6.073  1.00  0.00    -0.211 N 
ATOM     16  H6  UNL     1       9.625  -2.148   4.236  1.00  0.00     0.207 HD
HETATM   17  N8  UNL     1      10.878  -0.981   6.838  1.00  0.00    -0.203 N 
ATOM     18  H7  UNL     1      10.835  -2.985   6.271  1.00  0.00     0.210 HD
HETATM   19  N9  UNL     1      10.422   0.103   6.255  1.00  0.00    -0.113 N 
ATOM     20  H9  UNL     1      10.499   1.050   6.626  1.00  0.00     0.207 HD
BRANCH  17  21
HETATM   21  C8  UNL     1      11.567  -0.942   8.122  1.00  0.00     0.197 C 
BRANCH  21  22
HETATM   22  C9  UNL     1      12.943  -0.334   7.977  1.00  0.00     0.187 C 
BRANCH  22  23
HETATM   23  O1  UNL     1      13.392  -0.523   6.672  1.00  0.00    -0.399 OA
ATOM     24  H1  UNL     1      14.280  -0.196   6.598  1.00  0.00     0.209 HD
ENDBRANCH  22  23
ENDBRANCH  21  22
ENDBRANCH  17  21
ENDBRANCH  11  13
BRANCH  12  25
HETATM   25  C11 UNL     1       9.340  -0.418   1.957  1.00  0.00     0.196 C 
BRANCH  25  26
HETATM   26  O2  UNL     1       8.199  -1.016   2.496  1.00  0.00    -0.398 OA
ATOM     27  H2  UNL     1       7.517  -1.087   1.839  1.00  0.00     0.209 HD
ENDBRANCH  25  26
ENDBRANCH  12  25
BRANCH   6  28
HETATM   28  N3  UNL     1       7.655   5.087   2.605  1.00  0.00    -0.383 N 
ATOM     29  H32 UNL     1       8.046   5.711   3.311  1.00  0.00     0.157 HD
ATOM     30  H31 UNL     1       6.682   5.192   2.317  1.00  0.00     0.157 HD
ENDBRANCH   6  28
BRANCH   1  31
HETATM   31  N1  UNL     1      10.381   3.778  -0.715  1.00  0.00    -0.233 N 
ATOM     32  H12 UNL     1      10.229   4.699  -1.125  1.00  0.00     0.174 HD
ATOM     33  H11 UNL     1      10.951   3.052  -1.150  1.00  0.00     0.174 HD
ENDBRANCH   1  31
TORSDOF 8
ENDMDL
MODEL 5
REMARK VINA RESULT: -5.491581028      2.049      3.185
REMARK  8 active torsions:
REMARK  status: ('A' for Active; 'I' for Inactive)
REMARK    1  A    between atoms: N1_1  and  C1_4 
REMARK    2  A    between atoms: C4_9  and  N3_10 
REMARK    3  A    between atoms: N5_17  and  C7_18 
REMARK    4  A    between atoms: N8_23  and  C8_24 
REMARK    5  A    between atoms: C8_24  and  C9_25 
REMARK    6  A    between atoms: C9_25  and  O1_26 
REMARK    7  A    between atoms: C10_30  and  C11_31 
REMARK    8  A    between atoms: C11_31  and  O2_32 
ROOT
HETATM    1  C1  UNL     1       9.279   2.922  -1.257  1.00  0.00     0.695 A 
HETATM    2  N2  UNL     1       9.265   1.950  -0.327  1.00  0.00    -0.192 N 
ATOM      3  H2  UNL     1       9.241   0.974  -0.621  1.00  0.00     0.184 HD
HETATM    4  C2  UNL     1       9.281   2.247   0.995  1.00  0.00     0.062 A 
HETATM    5  C3  UNL     1       9.313   3.585   1.321  1.00  0.00     0.014 A 
HETATM    6  C4  UNL     1       9.327   4.571   0.339  1.00  0.00     0.143 A 
HETATM    7  N4  UNL     1       9.309   4.220  -0.968  1.00  0.00    -0.070 N 
HETATM    8 CL1  UNL     1       9.327   5.419  -2.237  1.00  0.00     0.036 Cl
HETATM    9  C5  UNL     1       9.333   4.036   2.718  1.00  0.00     0.065 C 
HETATM   10  C6  UNL     1       9.048   2.970   3.723  1.00  0.00     0.147 C 
HETATM   11  N5  UNL     1       9.433   1.648   3.318  1.00  0.00    -0.202 N 
HETATM   12  C10 UNL     1       9.264   1.147   1.967  1.00  0.00     0.176 C 
ENDROOT
BRANCH  11  13
HETATM   13  C7  UNL     1      10.010   0.784   4.290  1.00  0.00     0.712 A 
HETATM   14  N6  UNL     1      11.277   0.792   4.738  1.00  0.00    -0.115 N 
HETATM   15  N7  UNL     1      11.432  -0.162   5.641  1.00  0.00    -0.211 N 
ATOM     16  H6  UNL     1      12.007   1.434   4.430  1.00  0.00     0.207 HD
HETATM   17  N8  UNL     1      10.282  -0.781   5.777  1.00  0.00    -0.203 N 
ATOM     18  H7  UNL     1      12.293  -0.379   6.143  1.00  0.00     0.210 HD
HETATM   19  N9  UNL     1       9.411  -0.222   4.969  1.00  0.00    -0.113 N 
ATOM     20  H9  UNL     1       8.435  -0.502   4.868  1.00  0.00     0.207 HD
BRANCH  17  21
HETATM   21  C8  UNL     1       9.932  -1.899   6.644  1.00  0.00     0.197 C 
BRANCH  21  22
HETATM   22  C9  UNL     1       8.634  -2.537   6.206  1.00  0.00     0.187 C 
BRANCH  22  23
HETATM   23  O1  UNL     1       7.569  -1.749   6.637  1.00  0.00    -0.399 OA
ATOM     24  H1  UNL     1       6.947  -1.652   5.927  1.00  0.00     0.209 HD
ENDBRANCH  22  23
ENDBRANCH  21  22
ENDBRANCH  17  21
ENDBRANCH  11  13
BRANCH  12  25
HETATM   25  C11 UNL     1       8.022   0.313   1.867  1.00  0.00     0.196 C 
BRANCH  25  26
HETATM   26  O2  UNL     1       8.206  -0.919   2.498  1.00  0.00    -0.398 OA
ATOM     27  H2  UNL     1       9.128  -1.076   2.663  1.00  0.00     0.209 HD
ENDBRANCH  25  26
ENDBRANCH  12  25
BRANCH   6  28
HETATM   28  N3  UNL     1       9.357   5.811   0.619  1.00  0.00    -0.383 N 
ATOM     29  H32 UNL     1       9.990   6.403   0.081  1.00  0.00     0.157 HD
ATOM     30  H31 UNL     1       8.777   6.221   1.350  1.00  0.00     0.157 HD
ENDBRANCH   6  28
BRANCH   1  31
HETATM   31  N1  UNL     1       9.262   2.587  -2.507  1.00  0.00    -0.233 N 
ATOM     32  H12 UNL     1       8.763   1.734  -2.760  1.00  0.00     0.174 HD
ATOM     33  H11 UNL     1       9.744   3.183  -3.180  1.00  0.00     0.174 HD
ENDBRANCH   1  31
TORSDOF 8
ENDMDL
