MODEL 1
REMARK VINA RESULT: -6.367921479      0.000      0.000
REMARK  3 active torsions:
REMARK  status: ('A' for Active; 'I' for Inactive)
REMARK    1  A    between atoms: O1_2  and  C2_3 
REMARK    2  A    between atoms: C3_6  and  C4_7 
REMARK    3  A    between atoms: C7_12  and  O6_13 
ROOT
HETATM    1  C2  UNL     1      -5.854  54.477  13.829  1.00  0.00     0.324 C 
HETATM    2  O2  UNL     1      -5.448  54.382  12.500  1.00  0.00    -0.204 OA
HETATM    3  O3  UNL     1      -4.154  54.621  12.448  1.00  0.00    -0.222 OA
HETATM    4  C3  UNL     1      -3.533  53.586  13.142  1.00  0.00     0.261 C 
HETATM    5  C5  UNL     1      -4.333  52.330  12.916  1.00  0.00     0.049 C 
HETATM    6  C6  UNL     1      -5.288  52.035  14.030  1.00  0.00     0.040 C 
HETATM    7  C7  UNL     1      -6.121  53.166  14.475  1.00  0.00     0.176 C 
ENDROOT
BRANCH   4   8
HETATM    8  C4  UNL     1      -2.137  53.460  12.692  1.00  0.00     0.206 C 
HETATM    9  O4  UNL     1      -1.855  53.595  11.496  1.00  0.00    -0.646 OA
HETATM   10  O5  UNL     1      -1.162  53.188  13.641  1.00  0.00    -0.646 OA
ENDBRANCH   4   8
BRANCH   1  11
HETATM   11  O1  UNL     1      -7.035  55.220  13.836  1.00  0.00    -0.361 OA
HETATM   12  C1  UNL     1      -7.432  55.554  12.532  1.00  0.00     0.205 C 
ENDBRANCH   1  11
BRANCH   7  13
HETATM   13  O6  UNL     1      -7.485  52.859  14.278  1.00  0.00    -0.391 OA
ATOM     14  H6  UNL     1      -7.667  52.046  14.735  1.00  0.00     0.210 HD
ENDBRANCH   7  13
TORSDOF 3
ENDMDL
MODEL 2
REMARK VINA RESULT: -6.127944163      2.023      4.403
REMARK  3 active torsions:
REMARK  status: ('A' for Active; 'I' for Inactive)
REMARK    1  A    between atoms: O1_2  and  C2_3 
REMARK    2  A    between atoms: C3_6  and  C4_7 
REMARK    3  A    between atoms: C7_12  and  O6_13 
ROOT
HETATM    1  C2  UNL     1      -4.307  52.164  13.061  1.00  0.00     0.324 C 
HETATM    2  O2  UNL     1      -4.683  52.372  14.386  1.00  0.00    -0.204 OA
HETATM    3  O3  UNL     1      -4.922  53.657  14.548  1.00  0.00    -0.222 OA
HETATM    4  C3  UNL     1      -6.028  53.956  13.757  1.00  0.00     0.261 C 
HETATM    5  C5  UNL     1      -6.938  52.755  13.760  1.00  0.00     0.049 C 
HETATM    6  C6  UNL     1      -6.755  51.879  12.560  1.00  0.00     0.040 C 
HETATM    7  C7  UNL     1      -5.362  51.534  12.226  1.00  0.00     0.176 C 
ENDROOT
BRANCH   4   8
HETATM    8  C4  UNL     1      -6.685  55.169  14.269  1.00  0.00     0.206 C 
HETATM    9  O4  UNL     1      -6.065  55.952  14.997  1.00  0.00    -0.646 OA
HETATM   10  O5  UNL     1      -8.006  55.402  13.912  1.00  0.00    -0.646 OA
ENDBRANCH   4   8
BRANCH   1  11
HETATM   11  O1  UNL     1      -3.199  51.317  13.086  1.00  0.00    -0.361 OA
HETATM   12  C1  UNL     1      -2.019  52.016  12.792  1.00  0.00     0.205 C 
ENDBRANCH   1  11
BRANCH   7  13
HETATM   13  O6  UNL     1      -5.188  50.135  12.296  1.00  0.00    -0.391 OA
ATOM     14  H6  UNL     1      -5.336  49.781  11.426  1.00  0.00     0.210 HD
ENDBRANCH   7  13
TORSDOF 3
ENDMDL
MODEL 3
REMARK VINA RESULT: -6.122761353      2.912      3.669
REMARK  3 active torsions:
REMARK  status: ('A' for Active; 'I' for Inactive)
REMARK    1  A    between atoms: O1_2  and  C2_3 
REMARK    2  A    between atoms: C3_6  and  C4_7 
REMARK    3  A    between atoms: C7_12  and  O6_13 
ROOT
HETATM    1  C2  UNL     1      -7.791  54.599  13.243  1.00  0.00     0.324 C 
HETATM    2  O2  UNL     1      -8.402  53.429  13.688  1.00  0.00    -0.204 OA
HETATM    3  O3  UNL     1      -8.233  52.502  12.766  1.00  0.00    -0.222 OA
HETATM    4  C3  UNL     1      -6.865  52.253  12.703  1.00  0.00     0.261 C 
HETATM    5  C5  UNL     1      -6.301  52.405  14.092  1.00  0.00     0.049 C 
HETATM    6  C6  UNL     1      -5.690  53.750  14.332  1.00  0.00     0.040 C 
HETATM    7  C7  UNL     1      -6.506  54.906  13.921  1.00  0.00     0.176 C 
ENDROOT
BRANCH   4   8
HETATM    8  C4  UNL     1      -6.635  50.913  12.138  1.00  0.00     0.206 C 
HETATM    9  O4  UNL     1      -7.545  50.324  11.546  1.00  0.00    -0.646 OA
HETATM   10  O5  UNL     1      -5.379  50.341  12.292  1.00  0.00    -0.646 OA
ENDBRANCH   4   8
BRANCH   1  11
HETATM   11  O1  UNL     1      -8.684  55.640  13.499  1.00  0.00    -0.361 OA
HETATM   12  C1  UNL     1      -9.231  56.143  12.309  1.00  0.00     0.205 C 
ENDBRANCH   1  11
BRANCH   7  13
HETATM   13  O6  UNL     1      -6.794  55.708  15.047  1.00  0.00    -0.391 OA
ATOM     14  H6  UNL     1      -6.333  56.533  14.940  1.00  0.00     0.210 HD
ENDBRANCH   7  13
TORSDOF 3
ENDMDL
MODEL 4
REMARK VINA RESULT: -6.045922270      1.575      4.363
REMARK  3 active torsions:
REMARK  status: ('A' for Active; 'I' for Inactive)
REMARK    1  A    between atoms: O1_2  and  C2_3 
REMARK    2  A    between atoms: C3_6  and  C4_7 
REMARK    3  A    between atoms: C7_12  and  O6_13 
ROOT
HETATM    1  C2  UNL     1      -3.820  53.002  13.063  1.00  0.00     0.324 C 
HETATM    2  O2  UNL     1      -4.303  53.566  14.241  1.00  0.00    -0.204 OA
HETATM    3  O3  UNL     1      -4.994  54.643  13.927  1.00  0.00    -0.222 OA
HETATM    4  C3  UNL     1      -6.097  54.206  13.198  1.00  0.00     0.261 C 
HETATM    5  C5  UNL     1      -6.515  52.867  13.748  1.00  0.00     0.049 C 
HETATM    6  C6  UNL     1      -5.977  51.715  12.957  1.00  0.00     0.040 C 
HETATM    7  C7  UNL     1      -4.539  51.774  12.640  1.00  0.00     0.176 C 
ENDROOT
BRANCH   4   8
HETATM    8  C4  UNL     1      -7.168  55.212  13.275  1.00  0.00     0.206 C 
HETATM    9  O4  UNL     1      -7.665  55.508  14.367  1.00  0.00    -0.646 OA
HETATM   10  O5  UNL     1      -7.596  55.810  12.098  1.00  0.00    -0.646 OA
ENDBRANCH   4   8
BRANCH   1  11
HETATM   11  O1  UNL     1      -2.484  52.673  13.295  1.00  0.00    -0.361 OA
HETATM   12  C1  UNL     1      -1.649  53.210  12.304  1.00  0.00     0.205 C 
ENDBRANCH   1  11
BRANCH   7  13
HETATM   13  O6  UNL     1      -3.879  50.668  13.217  1.00  0.00    -0.391 OA
ATOM     14  H6  UNL     1      -4.526  49.986  13.360  1.00  0.00     0.210 HD
ENDBRANCH   7  13
TORSDOF 3
ENDMDL
MODEL 5
REMARK VINA RESULT: -6.036569331      1.394      4.309
REMARK  3 active torsions:
REMARK  status: ('A' for Active; 'I' for Inactive)
REMARK    1  A    between atoms: O1_2  and  C2_3 
REMARK    2  A    between atoms: C3_6  and  C4_7 
REMARK    3  A    between atoms: C7_12  and  O6_13 
ROOT
HETATM    1  C2  UNL     1      -2.831  53.184  12.495  1.00  0.00     0.324 C 
HETATM    2  O2  UNL     1      -2.976  53.985  13.626  1.00  0.00    -0.204 OA
HETATM    3  O3  UNL     1      -3.904  54.885  13.375  1.00  0.00    -0.222 OA
HETATM    4  C3  UNL     1      -5.098  54.186  13.212  1.00  0.00     0.261 C 
HETATM    5  C5  UNL     1      -5.071  53.000  14.140  1.00  0.00     0.049 C 
HETATM    6  C6  UNL     1      -4.645  51.735  13.462  1.00  0.00     0.040 C 
HETATM    7  C7  UNL     1      -3.432  51.832  12.631  1.00  0.00     0.176 C 
ENDROOT
BRANCH   4   8
HETATM    8  C4  UNL     1      -6.234  55.086  13.470  1.00  0.00     0.206 C 
HETATM    9  O4  UNL     1      -7.007  55.388  12.554  1.00  0.00    -0.646 OA
HETATM   10  O5  UNL     1      -6.405  55.577  14.756  1.00  0.00    -0.646 OA
ENDBRANCH   4   8
BRANCH   1  11
HETATM   11  O1  UNL     1      -1.461  53.037  12.279  1.00  0.00    -0.361 OA
HETATM   12  C1  UNL     1      -1.142  53.183  10.921  1.00  0.00     0.205 C 
ENDBRANCH   1  11
BRANCH   7  13
HETATM   13  O6  UNL     1      -2.438  50.968  13.138  1.00  0.00    -0.391 OA
ATOM     14  H6  UNL     1      -2.876  50.253  13.586  1.00  0.00     0.210 HD
ENDBRANCH   7  13
TORSDOF 3
ENDMDL
