MODEL 1
REMARK VINA RESULT: -6.277427579      0.000      0.000
REMARK  5 active torsions:
REMARK  status: ('A' for Active; 'I' for Inactive)
REMARK    1  A    between atoms: O1_2  and  C2_3 
REMARK    2  A    between atoms: C2_3  and  C3_5 
REMARK    3  A    between atoms: C5_7  and  C6_8 
REMARK    4  A    between atoms: C6_8  and  O3_9 
REMARK    5  A    between atoms: N1_11  and  O4_13 
ROOT
HETATM    1  C3  UNL     1      -4.086  53.212  13.081  1.00  0.00     0.221 C 
HETATM    2  C4  UNL     1      -4.983  54.404  12.811  1.00  0.00     0.057 C 
HETATM    3  C5  UNL     1      -6.248  53.942  13.552  1.00  0.00     0.089 C 
HETATM    4  C7  UNL     1      -5.661  53.071  14.623  1.00  0.00     0.181 C 
HETATM    5  O5  UNL     1      -4.310  52.972  14.416  1.00  0.00    -0.375 OA
ENDROOT
BRANCH   3   6
HETATM    6  C6  UNL     1      -7.010  55.085  14.071  1.00  0.00     0.141 C 
HETATM    7  N1  UNL     1      -8.131  55.393  13.510  1.00  0.00    -0.251 N 
ATOM      8  H1  UNL     1      -8.665  56.184  13.868  1.00  0.00     0.196 HD
BRANCH   6   9
HETATM    9  O3  UNL     1      -6.572  55.841  15.141  1.00  0.00    -0.348 OA
ATOM     10  H3  UNL     1      -7.063  55.908  15.952  1.00  0.00     0.219 HD
ENDBRANCH   6   9
BRANCH   7  11
HETATM   11  O4  UNL     1      -8.622  54.680  12.442  1.00  0.00    -0.288 OA
ATOM     12  H4  UNL     1      -9.533  54.415  12.396  1.00  0.00     0.244 HD
ENDBRANCH   7  11
ENDBRANCH   3   6
BRANCH   1  13
HETATM   13  C2  UNL     1      -2.670  53.497  12.778  1.00  0.00     0.287 C 
HETATM   14  O2  UNL     1      -1.814  53.579  13.692  1.00  0.00    -0.262 OA
BRANCH  13  15
HETATM   15  O1  UNL     1      -2.225  53.682  11.479  1.00  0.00    -0.324 OA
HETATM   16  C1  UNL     1      -1.070  52.992  10.983  1.00  0.00     0.213 C 
ENDBRANCH  13  15
ENDBRANCH   1  13
TORSDOF 5
ENDMDL
MODEL 2
REMARK VINA RESULT: -6.034478748      1.198      1.276
REMARK  5 active torsions:
REMARK  status: ('A' for Active; 'I' for Inactive)
REMARK    1  A    between atoms: O1_2  and  C2_3 
REMARK    2  A    between atoms: C2_3  and  C3_5 
REMARK    3  A    between atoms: C5_7  and  C6_8 
REMARK    4  A    between atoms: C6_8  and  O3_9 
REMARK    5  A    between atoms: N1_11  and  O4_13 
ROOT
HETATM    1  C3  UNL     1      -3.096  53.029  12.595  1.00  0.00     0.221 C 
HETATM    2  C4  UNL     1      -3.825  54.351  12.732  1.00  0.00     0.057 C 
HETATM    3  C5  UNL     1      -5.268  53.834  12.844  1.00  0.00     0.089 C 
HETATM    4  C7  UNL     1      -5.052  52.486  13.466  1.00  0.00     0.181 C 
HETATM    5  O5  UNL     1      -3.704  52.257  13.556  1.00  0.00    -0.375 OA
ENDROOT
BRANCH   3   6
HETATM    6  C6  UNL     1      -6.098  54.734  13.656  1.00  0.00     0.141 C 
HETATM    7  N1  UNL     1      -6.868  55.578  13.058  1.00  0.00    -0.251 N 
ATOM      8  H1  UNL     1      -7.447  56.204  13.617  1.00  0.00     0.196 HD
BRANCH   6   9
HETATM    9  O3  UNL     1      -6.083  54.707  15.036  1.00  0.00    -0.348 OA
ATOM     10  H3  UNL     1      -5.796  55.449  15.556  1.00  0.00     0.219 HD
ENDBRANCH   6   9
BRANCH   7  11
HETATM   11  O4  UNL     1      -6.929  55.655  11.686  1.00  0.00    -0.288 OA
ATOM     12  H4  UNL     1      -6.233  56.055  11.179  1.00  0.00     0.244 HD
ENDBRANCH   7  11
ENDBRANCH   3   6
BRANCH   1  13
HETATM   13  C2  UNL     1      -1.642  53.167  12.804  1.00  0.00     0.287 C 
HETATM   14  O2  UNL     1      -1.145  53.133  13.956  1.00  0.00    -0.262 OA
BRANCH  13  15
HETATM   15  O1  UNL     1      -0.765  53.338  11.744  1.00  0.00    -0.324 OA
HETATM   16  C1  UNL     1      -1.112  52.919  10.418  1.00  0.00     0.213 C 
ENDBRANCH  13  15
ENDBRANCH   1  13
TORSDOF 5
ENDMDL
MODEL 3
REMARK VINA RESULT: -5.948032786      1.679      1.983
REMARK  5 active torsions:
REMARK  status: ('A' for Active; 'I' for Inactive)
REMARK    1  A    between atoms: O1_2  and  C2_3 
REMARK    2  A    between atoms: C2_3  and  C3_5 
REMARK    3  A    between atoms: C5_7  and  C6_8 
REMARK    4  A    between atoms: C6_8  and  O3_9 
REMARK    5  A    between atoms: N1_11  and  O4_13 
ROOT
HETATM    1  C3  UNL     1      -3.080  52.674  12.278  1.00  0.00     0.221 C 
HETATM    2  C4  UNL     1      -3.491  53.838  13.159  1.00  0.00     0.057 C 
HETATM    3  C5  UNL     1      -4.990  53.532  13.299  1.00  0.00     0.089 C 
HETATM    4  C7  UNL     1      -5.002  52.038  13.162  1.00  0.00     0.181 C 
HETATM    5  O5  UNL     1      -3.732  51.617  12.865  1.00  0.00    -0.375 OA
ENDROOT
BRANCH   3   6
HETATM    6  C6  UNL     1      -5.516  54.012  14.584  1.00  0.00     0.141 C 
HETATM    7  N1  UNL     1      -6.133  55.144  14.620  1.00  0.00    -0.251 N 
ATOM      8  H1  UNL     1      -6.501  55.481  15.510  1.00  0.00     0.196 HD
BRANCH   6   9
HETATM    9  O3  UNL     1      -5.374  53.293  15.755  1.00  0.00    -0.348 OA
ATOM     10  H3  UNL     1      -5.868  52.500  15.927  1.00  0.00     0.219 HD
ENDBRANCH   6   9
BRANCH   7  11
HETATM   11  O4  UNL     1      -6.308  55.908  13.490  1.00  0.00    -0.288 OA
ATOM     12  H4  UNL     1      -6.755  55.569  12.724  1.00  0.00     0.244 HD
ENDBRANCH   7  11
ENDBRANCH   3   6
BRANCH   1  13
HETATM   13  C2  UNL     1      -1.616  52.494  12.234  1.00  0.00     0.287 C 
HETATM   14  O2  UNL     1      -1.066  51.512  12.787  1.00  0.00    -0.262 OA
BRANCH  13  15
HETATM   15  O1  UNL     1      -0.789  53.396  11.583  1.00  0.00    -0.324 OA
HETATM   16  C1  UNL     1      -0.476  53.247  10.192  1.00  0.00     0.213 C 
ENDBRANCH  13  15
ENDBRANCH   1  13
TORSDOF 5
ENDMDL
MODEL 4
REMARK VINA RESULT: -5.888723944      2.601      5.783
REMARK  5 active torsions:
REMARK  status: ('A' for Active; 'I' for Inactive)
REMARK    1  A    between atoms: O1_2  and  C2_3 
REMARK    2  A    between atoms: C2_3  and  C3_5 
REMARK    3  A    between atoms: C5_7  and  C6_8 
REMARK    4  A    between atoms: C6_8  and  O3_9 
REMARK    5  A    between atoms: N1_11  and  O4_13 
ROOT
HETATM    1  C3  UNL     1      -8.328  54.981  12.228  1.00  0.00     0.221 C 
HETATM    2  C4  UNL     1      -7.172  55.227  13.177  1.00  0.00     0.057 C 
HETATM    3  C5  UNL     1      -6.434  53.888  13.030  1.00  0.00     0.089 C 
HETATM    4  C7  UNL     1      -6.804  53.499  11.629  1.00  0.00     0.181 C 
HETATM    5  O5  UNL     1      -7.703  54.412  11.144  1.00  0.00    -0.375 OA
ENDROOT
BRANCH   3   6
HETATM    6  C6  UNL     1      -4.988  54.048  13.235  1.00  0.00     0.141 C 
HETATM    7  N1  UNL     1      -4.476  53.688  14.363  1.00  0.00    -0.251 N 
ATOM      8  H1  UNL     1      -3.473  53.796  14.511  1.00  0.00     0.196 HD
BRANCH   6   9
HETATM    9  O3  UNL     1      -4.157  54.570  12.264  1.00  0.00    -0.348 OA
ATOM     10  H3  UNL     1      -3.544  55.274  12.443  1.00  0.00     0.219 HD
ENDBRANCH   6   9
BRANCH   7  11
HETATM   11  O4  UNL     1      -5.249  53.161  15.372  1.00  0.00    -0.288 OA
ATOM     12  H4  UNL     1      -6.046  52.677  15.188  1.00  0.00     0.244 HD
ENDBRANCH   7  11
ENDBRANCH   3   6
BRANCH   1  13
HETATM   13  C2  UNL     1      -9.049  56.223  11.889  1.00  0.00     0.287 C 
HETATM   14  O2  UNL     1      -8.757  56.885  10.864  1.00  0.00    -0.262 OA
BRANCH  13  15
HETATM   15  O1  UNL     1     -10.076  56.711  12.683  1.00  0.00    -0.324 OA
HETATM   16  C1  UNL     1     -11.168  57.445  12.116  1.00  0.00     0.213 C 
ENDBRANCH  13  15
ENDBRANCH   1  13
TORSDOF 5
ENDMDL
MODEL 5
REMARK VINA RESULT: -5.783957194      1.501      1.933
REMARK  5 active torsions:
REMARK  status: ('A' for Active; 'I' for Inactive)
REMARK    1  A    between atoms: O1_2  and  C2_3 
REMARK    2  A    between atoms: C2_3  and  C3_5 
REMARK    3  A    between atoms: C5_7  and  C6_8 
REMARK    4  A    between atoms: C6_8  and  O3_9 
REMARK    5  A    between atoms: N1_11  and  O4_13 
ROOT
HETATM    1  C3  UNL     1      -3.035  53.114  12.537  1.00  0.00     0.221 C 
HETATM    2  C4  UNL     1      -3.693  54.453  12.806  1.00  0.00     0.057 C 
HETATM    3  C5  UNL     1      -5.161  54.006  12.867  1.00  0.00     0.089 C 
HETATM    4  C7  UNL     1      -5.021  52.593  13.351  1.00  0.00     0.181 C 
HETATM    5  O5  UNL     1      -3.688  52.283  13.416  1.00  0.00    -0.375 OA
ENDROOT
BRANCH   3   6
HETATM    6  C6  UNL     1      -5.945  54.864  13.766  1.00  0.00     0.141 C 
HETATM    7  N1  UNL     1      -5.955  54.597  15.028  1.00  0.00    -0.251 N 
ATOM      8  H1  UNL     1      -6.497  55.190  15.656  1.00  0.00     0.196 HD
BRANCH   6   9
HETATM    9  O3  UNL     1      -6.670  55.947  13.308  1.00  0.00    -0.348 OA
ATOM     10  H3  UNL     1      -6.839  56.710  13.849  1.00  0.00     0.219 HD
ENDBRANCH   6   9
BRANCH   7  11
HETATM   11  O4  UNL     1      -5.255  53.533  15.547  1.00  0.00    -0.288 OA
ATOM     12  H4  UNL     1      -4.928  52.834  14.993  1.00  0.00     0.244 HD
ENDBRANCH   7  11
ENDBRANCH   3   6
BRANCH   1  13
HETATM   13  C2  UNL     1      -1.576  53.151  12.757  1.00  0.00     0.287 C 
HETATM   14  O2  UNL     1      -1.089  53.017  13.905  1.00  0.00    -0.262 OA
BRANCH  13  15
HETATM   15  O1  UNL     1      -0.685  53.334  11.711  1.00  0.00    -0.324 OA
HETATM   16  C1  UNL     1      -1.028  52.966  10.369  1.00  0.00     0.213 C 
ENDBRANCH  13  15
ENDBRANCH   1  13
TORSDOF 5
ENDMDL
