MODEL 1
REMARK VINA RESULT: -6.888354472      0.000      0.000
REMARK  3 active torsions:
REMARK  status: ('A' for Active; 'I' for Inactive)
REMARK    1  A    between atoms: O1_2  and  N1_3 
REMARK    2  A    between atoms: N1_3  and  C2_5 
REMARK    3  A    between atoms: C8_16  and  O4_17 
ROOT
HETATM    1  C2  UNL     1      -5.634  54.045  13.392  1.00  0.00     0.137 C 
HETATM    2  C3  UNL     1      -6.356  52.804  13.878  1.00  0.00     0.034 C 
HETATM    3  C4  UNL     1      -7.235  52.231  12.814  1.00  0.00     0.063 C 
HETATM    4  C5  UNL     1      -8.471  53.109  12.709  1.00  0.00     0.269 C 
HETATM    5  O2  UNL     1      -8.422  53.821  11.460  1.00  0.00    -0.306 OA
HETATM    6  C6  UNL     1      -7.977  55.102  11.729  1.00  0.00     0.146 C 
HETATM    7  N2  UNL     1      -7.744  55.997  10.848  1.00  0.00    -0.381 N 
ATOM      8  H21 UNL     1      -7.416  56.942  11.046  1.00  0.00     0.158 HD
ATOM      9  H22 UNL     1      -7.844  55.919   9.836  1.00  0.00     0.158 HD
HETATM   10  C7  UNL     1      -7.835  55.212  13.172  1.00  0.00     0.229 C 
HETATM   11  O3  UNL     1      -8.475  54.091  13.708  1.00  0.00    -0.345 OA
HETATM   12  C8  UNL     1      -6.424  55.306  13.659  1.00  0.00     0.179 C 
ENDROOT
BRANCH   1  13
HETATM   13  N1  UNL     1      -4.353  54.060  13.993  1.00  0.00    -0.296 N 
ATOM     14  H1  UNL     1      -4.209  53.731  14.947  1.00  0.00     0.188 HD
BRANCH  13  15
HETATM   15  O1  UNL     1      -3.356  54.517  13.268  1.00  0.00    -0.290 OA
HETATM   16  C1  UNL     1      -2.467  53.522  12.840  1.00  0.00     0.237 C 
ENDBRANCH  13  15
ENDBRANCH   1  13
BRANCH  12  17
HETATM   17  O4  UNL     1      -6.502  55.537  15.046  1.00  0.00    -0.390 OA
ATOM     18  H4  UNL     1      -6.491  54.710  15.513  1.00  0.00     0.210 HD
ENDBRANCH  12  17
TORSDOF 3
ENDMDL
MODEL 2
REMARK VINA RESULT: -6.329413338      1.429      1.681
REMARK  3 active torsions:
REMARK  status: ('A' for Active; 'I' for Inactive)
REMARK    1  A    between atoms: O1_2  and  N1_3 
REMARK    2  A    between atoms: N1_3  and  C2_5 
REMARK    3  A    between atoms: C8_16  and  O4_17 
ROOT
HETATM    1  C2  UNL     1      -5.165  53.031  12.093  1.00  0.00     0.137 C 
HETATM    2  C3  UNL     1      -5.845  51.777  12.602  1.00  0.00     0.034 C 
HETATM    3  C4  UNL     1      -7.300  51.767  12.263  1.00  0.00     0.063 C 
HETATM    4  C5  UNL     1      -8.005  52.730  13.205  1.00  0.00     0.269 C 
HETATM    5  O2  UNL     1      -8.438  53.874  12.449  1.00  0.00    -0.306 OA
HETATM    6  C6  UNL     1      -7.527  54.890  12.673  1.00  0.00     0.146 C 
HETATM    7  N2  UNL     1      -7.553  56.036  12.109  1.00  0.00    -0.381 N 
ATOM      8  H21 UNL     1      -6.881  56.785  12.274  1.00  0.00     0.158 HD
ATOM      9  H22 UNL     1      -8.227  56.381  11.425  1.00  0.00     0.158 HD
HETATM   10  C7  UNL     1      -6.567  54.398  13.648  1.00  0.00     0.229 C 
HETATM   11  O3  UNL     1      -7.118  53.225  14.171  1.00  0.00    -0.345 OA
HETATM   12  C8  UNL     1      -5.194  54.149  13.109  1.00  0.00     0.179 C 
ENDROOT
BRANCH   1  13
HETATM   13  N1  UNL     1      -3.851  52.679  11.700  1.00  0.00    -0.296 N 
ATOM     14  H1  UNL     1      -3.620  51.729  11.410  1.00  0.00     0.188 HD
BRANCH  13  15
HETATM   15  O1  UNL     1      -2.942  53.628  11.723  1.00  0.00    -0.290 OA
HETATM   16  C1  UNL     1      -1.651  53.166  12.010  1.00  0.00     0.237 C 
ENDBRANCH  13  15
ENDBRANCH   1  13
BRANCH  12  17
HETATM   17  O4  UNL     1      -4.393  53.811  14.216  1.00  0.00    -0.390 OA
ATOM     18  H4  UNL     1      -3.524  54.181  14.112  1.00  0.00     0.210 HD
ENDBRANCH  12  17
TORSDOF 3
ENDMDL
MODEL 3
REMARK VINA RESULT: -6.290774983      1.991      2.565
REMARK  3 active torsions:
REMARK  status: ('A' for Active; 'I' for Inactive)
REMARK    1  A    between atoms: O1_2  and  N1_3 
REMARK    2  A    between atoms: N1_3  and  C2_5 
REMARK    3  A    between atoms: C8_16  and  O4_17 
ROOT
HETATM    1  C2  UNL     1      -4.931  53.739  12.353  1.00  0.00     0.137 C 
HETATM    2  C3  UNL     1      -6.096  53.059  11.661  1.00  0.00     0.034 C 
HETATM    3  C4  UNL     1      -7.307  53.934  11.642  1.00  0.00     0.063 C 
HETATM    4  C5  UNL     1      -7.914  53.918  13.036  1.00  0.00     0.269 C 
HETATM    5  O2  UNL     1      -7.714  55.210  13.636  1.00  0.00    -0.306 OA
HETATM    6  C6  UNL     1      -6.637  55.107  14.496  1.00  0.00     0.146 C 
HETATM    7  N2  UNL     1      -6.127  56.078  15.152  1.00  0.00    -0.381 N 
ATOM      8  H21 UNL     1      -5.332  56.002  15.786  1.00  0.00     0.158 HD
ATOM      9  H22 UNL     1      -6.420  57.055  15.151  1.00  0.00     0.158 HD
HETATM   10  C7  UNL     1      -6.220  53.714  14.496  1.00  0.00     0.229 C 
HETATM   11  O3  UNL     1      -7.245  53.006  13.864  1.00  0.00    -0.345 OA
HETATM   12  C8  UNL     1      -4.903  53.452  13.836  1.00  0.00     0.179 C 
ENDROOT
BRANCH   1  13
HETATM   13  N1  UNL     1      -3.745  53.340  11.692  1.00  0.00    -0.296 N 
ATOM     14  H1  UNL     1      -3.767  52.690  10.907  1.00  0.00     0.188 HD
BRANCH  13  15
HETATM   15  O1  UNL     1      -2.614  53.843  12.133  1.00  0.00    -0.290 OA
HETATM   16  C1  UNL     1      -1.483  53.107  11.754  1.00  0.00     0.237 C 
ENDBRANCH  13  15
ENDBRANCH   1  13
BRANCH  12  17
HETATM   17  O4  UNL     1      -4.619  52.090  14.055  1.00  0.00    -0.390 OA
ATOM     18  H4  UNL     1      -4.789  51.593  13.264  1.00  0.00     0.210 HD
ENDBRANCH  12  17
TORSDOF 3
ENDMDL
MODEL 4
REMARK VINA RESULT: -6.185407958      2.432      4.782
REMARK  3 active torsions:
REMARK  status: ('A' for Active; 'I' for Inactive)
REMARK    1  A    between atoms: O1_2  and  N1_3 
REMARK    2  A    between atoms: N1_3  and  C2_5 
REMARK    3  A    between atoms: C8_16  and  O4_17 
ROOT
HETATM    1  C2  UNL     1      -4.534  52.808  13.771  1.00  0.00     0.137 C 
HETATM    2  C3  UNL     1      -5.581  52.218  12.848  1.00  0.00     0.034 C 
HETATM    3  C4  UNL     1      -5.217  50.833  12.422  1.00  0.00     0.063 C 
HETATM    4  C5  UNL     1      -4.119  50.941  11.376  1.00  0.00     0.269 C 
HETATM    5  O2  UNL     1      -2.893  50.454  11.949  1.00  0.00    -0.306 OA
HETATM    6  C6  UNL     1      -2.145  51.554  12.326  1.00  0.00     0.146 C 
HETATM    7  N2  UNL     1      -1.022  51.503  12.935  1.00  0.00    -0.381 N 
ATOM      8  H21 UNL     1      -0.470  52.315  13.213  1.00  0.00     0.158 HD
ATOM      9  H22 UNL     1      -0.509  50.673  13.232  1.00  0.00     0.158 HD
HETATM   10  C7  UNL     1      -2.876  52.737  11.901  1.00  0.00     0.229 C 
HETATM   11  O3  UNL     1      -3.877  52.280  11.039  1.00  0.00    -0.345 OA
HETATM   12  C8  UNL     1      -3.458  53.549  13.013  1.00  0.00     0.179 C 
ENDROOT
BRANCH   1  13
HETATM   13  N1  UNL     1      -5.203  53.621  14.717  1.00  0.00    -0.296 N 
ATOM     14  H1  UNL     1      -4.775  53.857  15.611  1.00  0.00     0.188 HD
BRANCH  13  15
HETATM   15  O1  UNL     1      -6.399  54.060  14.392  1.00  0.00    -0.290 OA
HETATM   16  C1  UNL     1      -6.514  55.457  14.416  1.00  0.00     0.237 C 
ENDBRANCH  13  15
ENDBRANCH   1  13
BRANCH  12  17
HETATM   17  O4  UNL     1      -4.002  54.702  12.415  1.00  0.00    -0.390 OA
ATOM     18  H4  UNL     1      -4.488  54.462  11.635  1.00  0.00     0.210 HD
ENDBRANCH  12  17
TORSDOF 3
ENDMDL
MODEL 5
REMARK VINA RESULT: -5.997195597      2.088      4.699
REMARK  3 active torsions:
REMARK  status: ('A' for Active; 'I' for Inactive)
REMARK    1  A    between atoms: O1_2  and  N1_3 
REMARK    2  A    between atoms: N1_3  and  C2_5 
REMARK    3  A    between atoms: C8_16  and  O4_17 
ROOT
HETATM    1  C2  UNL     1      -4.992  53.222  13.855  1.00  0.00     0.137 C 
HETATM    2  C3  UNL     1      -5.585  52.061  13.081  1.00  0.00     0.034 C 
HETATM    3  C4  UNL     1      -4.662  50.886  13.065  1.00  0.00     0.063 C 
HETATM    4  C5  UNL     1      -3.543  51.185  12.081  1.00  0.00     0.269 C 
HETATM    5  O2  UNL     1      -2.326  51.385  12.820  1.00  0.00    -0.306 OA
HETATM    6  C6  UNL     1      -2.117  52.748  12.917  1.00  0.00     0.146 C 
HETATM    7  N2  UNL     1      -1.165  53.300  13.567  1.00  0.00    -0.381 N 
ATOM      8  H21 UNL     1      -1.011  54.306  13.638  1.00  0.00     0.158 HD
ATOM      9  H22 UNL     1      -0.427  52.843  14.103  1.00  0.00     0.158 HD
HETATM   10  C7  UNL     1      -3.169  53.399  12.153  1.00  0.00     0.229 C 
HETATM   11  O3  UNL     1      -3.780  52.389  11.403  1.00  0.00    -0.345 OA
HETATM   12  C8  UNL     1      -4.177  54.139  12.974  1.00  0.00     0.179 C 
ENDROOT
BRANCH   1  13
HETATM   13  N1  UNL     1      -6.055  53.888  14.512  1.00  0.00    -0.296 N 
ATOM     14  H1  UNL     1      -5.908  54.383  15.391  1.00  0.00     0.188 HD
BRANCH  13  15
HETATM   15  O1  UNL     1      -7.237  53.843  13.939  1.00  0.00    -0.290 OA
HETATM   16  C1  UNL     1      -7.749  55.103  13.600  1.00  0.00     0.237 C 
ENDBRANCH  13  15
ENDBRANCH   1  13
BRANCH  12  17
HETATM   17  O4  UNL     1      -5.020  54.798  12.060  1.00  0.00    -0.390 OA
ATOM     18  H4  UNL     1      -4.554  54.960  11.248  1.00  0.00     0.210 HD
ENDBRANCH  12  17
TORSDOF 3
ENDMDL
