MODEL 1
REMARK VINA RESULT: -6.273210133      0.000      0.000
REMARK  5 active torsions:
REMARK  status: ('A' for Active; 'I' for Inactive)
REMARK    1  A    between atoms: C5_5  and  O1_6 
REMARK    2  A    between atoms: C6_8  and  C7_9 
REMARK    3  A    between atoms: C7_9  and  O3_11 
REMARK    4  A    between atoms: O3_11  and  N1_12 
REMARK    5  A    between atoms: N1_12  and  C8_14 
ROOT
HETATM    1  C1  UNL     1      -7.111  51.646  12.321  1.00  0.00     0.039 C 
HETATM    2  C2  UNL     1      -8.136  52.624  12.906  1.00  0.00     0.118 C 
HETATM    3  C3  UNL     1      -8.925  53.273  11.840  1.00  0.00     0.034 C 
HETATM    4  C4  UNL     1      -8.558  54.647  11.427  1.00  0.00     0.037 C 
HETATM    5  C5  UNL     1      -7.978  55.384  12.638  1.00  0.00     0.157 C 
HETATM    6  C6  UNL     1      -6.864  54.459  13.093  1.00  0.00     0.252 C 
HETATM    7  O5  UNL     1      -7.493  53.435  13.798  1.00  0.00    -0.368 OA
ENDROOT
BRANCH   6   8
HETATM    8  C7  UNL     1      -5.818  55.131  13.860  1.00  0.00     0.312 C 
HETATM    9  O2  UNL     1      -6.123  55.866  14.818  1.00  0.00    -0.260 OA
BRANCH   8  10
HETATM   10  O3  UNL     1      -4.494  54.964  13.537  1.00  0.00    -0.195 OA
BRANCH  10  11
HETATM   11  N1  UNL     1      -3.796  53.789  13.631  1.00  0.00    -0.233 N 
ATOM     12  H1  UNL     1      -4.181  53.023  14.183  1.00  0.00     0.197 HD
BRANCH  11  13
HETATM   13  C8  UNL     1      -2.560  53.616  12.984  1.00  0.00     0.374 C 
HETATM   14  O4  UNL     1      -1.478  53.356  13.548  1.00  0.00    -0.282 OA
ENDBRANCH  11  13
ENDBRANCH  10  11
ENDBRANCH   8  10
ENDBRANCH   6   8
BRANCH   5  15
HETATM   15  O1  UNL     1      -8.963  55.402  13.621  1.00  0.00    -0.392 OA
ATOM     16  H1  UNL     1      -8.763  56.122  14.207  1.00  0.00     0.210 HD
ENDBRANCH   5  15
TORSDOF 5
ENDMDL
MODEL 2
REMARK VINA RESULT: -6.244926800      1.117      1.130
REMARK  5 active torsions:
REMARK  status: ('A' for Active; 'I' for Inactive)
REMARK    1  A    between atoms: C5_5  and  O1_6 
REMARK    2  A    between atoms: C6_8  and  C7_9 
REMARK    3  A    between atoms: C7_9  and  O3_11 
REMARK    4  A    between atoms: O3_11  and  N1_12 
REMARK    5  A    between atoms: N1_12  and  C8_14 
ROOT
HETATM    1  C1  UNL     1      -7.747  51.692  12.080  1.00  0.00     0.039 C 
HETATM    2  C2  UNL     1      -8.677  52.864  12.415  1.00  0.00     0.118 C 
HETATM    3  C3  UNL     1      -8.901  53.724  11.237  1.00  0.00     0.034 C 
HETATM    4  C4  UNL     1      -8.132  54.986  11.127  1.00  0.00     0.037 C 
HETATM    5  C5  UNL     1      -7.855  55.514  12.538  1.00  0.00     0.157 C 
HETATM    6  C6  UNL     1      -7.186  54.333  13.214  1.00  0.00     0.252 C 
HETATM    7  O5  UNL     1      -8.219  53.462  13.555  1.00  0.00    -0.368 OA
ENDROOT
BRANCH   6   8
HETATM    8  C7  UNL     1      -6.344  54.704  14.349  1.00  0.00     0.312 C 
HETATM    9  O2  UNL     1      -6.515  55.799  14.919  1.00  0.00    -0.260 OA
BRANCH   8  10
HETATM   10  O3  UNL     1      -5.360  53.859  14.799  1.00  0.00    -0.195 OA
BRANCH  10  11
HETATM   11  N1  UNL     1      -4.474  53.179  14.006  1.00  0.00    -0.233 N 
ATOM     12  H1  UNL     1      -4.493  52.160  13.997  1.00  0.00     0.197 HD
BRANCH  11  13
HETATM   13  C8  UNL     1      -3.538  53.856  13.204  1.00  0.00     0.374 C 
HETATM   14  O4  UNL     1      -3.752  54.297  12.058  1.00  0.00    -0.282 OA
ENDBRANCH  11  13
ENDBRANCH  10  11
ENDBRANCH   8  10
ENDBRANCH   6   8
BRANCH   5  15
HETATM   15  O1  UNL     1      -9.088  55.729  13.147  1.00  0.00    -0.392 OA
ATOM     16  H1  UNL     1      -9.442  56.535  12.790  1.00  0.00     0.210 HD
ENDBRANCH   5  15
TORSDOF 5
ENDMDL
MODEL 3
REMARK VINA RESULT: -6.087751029      2.030      4.354
REMARK  5 active torsions:
REMARK  status: ('A' for Active; 'I' for Inactive)
REMARK    1  A    between atoms: C5_5  and  O1_6 
REMARK    2  A    between atoms: C6_8  and  C7_9 
REMARK    3  A    between atoms: C7_9  and  O3_11 
REMARK    4  A    between atoms: O3_11  and  N1_12 
REMARK    5  A    between atoms: N1_12  and  C8_14 
ROOT
HETATM    1  C1  UNL     1      -3.208  53.318  12.290  1.00  0.00     0.039 C 
HETATM    2  C2  UNL     1      -3.909  52.752  13.529  1.00  0.00     0.118 C 
HETATM    3  C3  UNL     1      -4.713  51.560  13.192  1.00  0.00     0.034 C 
HETATM    4  C4  UNL     1      -6.176  51.720  13.023  1.00  0.00     0.037 C 
HETATM    5  C5  UNL     1      -6.654  52.848  13.942  1.00  0.00     0.157 C 
HETATM    6  C6  UNL     1      -5.764  54.009  13.540  1.00  0.00     0.252 C 
HETATM    7  O5  UNL     1      -4.543  53.779  14.170  1.00  0.00    -0.368 OA
ENDROOT
BRANCH   6   8
HETATM    8  C7  UNL     1      -6.333  55.320  13.844  1.00  0.00     0.312 C 
HETATM    9  O2  UNL     1      -6.454  55.686  15.029  1.00  0.00    -0.260 OA
BRANCH   8  10
HETATM   10  O3  UNL     1      -6.741  56.159  12.837  1.00  0.00    -0.195 OA
BRANCH  10  11
HETATM   11  N1  UNL     1      -7.583  55.817  11.812  1.00  0.00    -0.233 N 
ATOM     12  H1  UNL     1      -7.187  55.517  10.922  1.00  0.00     0.197 HD
BRANCH  11  13
HETATM   13  C8  UNL     1      -8.979  55.872  11.960  1.00  0.00     0.374 C 
HETATM   14  O4  UNL     1      -9.585  56.298  12.963  1.00  0.00    -0.282 OA
ENDBRANCH  11  13
ENDBRANCH  10  11
ENDBRANCH   8  10
ENDBRANCH   6   8
BRANCH   5  15
HETATM   15  O1  UNL     1      -6.337  52.481  15.246  1.00  0.00    -0.392 OA
ATOM     16  H1  UNL     1      -6.309  53.277  15.764  1.00  0.00     0.210 HD
ENDBRANCH   5  15
TORSDOF 5
ENDMDL
MODEL 4
REMARK VINA RESULT: -6.077770925      1.461      1.866
REMARK  5 active torsions:
REMARK  status: ('A' for Active; 'I' for Inactive)
REMARK    1  A    between atoms: C5_5  and  O1_6 
REMARK    2  A    between atoms: C6_8  and  C7_9 
REMARK    3  A    between atoms: C7_9  and  O3_11 
REMARK    4  A    between atoms: O3_11  and  N1_12 
REMARK    5  A    between atoms: N1_12  and  C8_14 
ROOT
HETATM    1  C1  UNL     1      -6.589  51.588  12.289  1.00  0.00     0.039 C 
HETATM    2  C2  UNL     1      -6.781  52.471  13.527  1.00  0.00     0.118 C 
HETATM    3  C3  UNL     1      -7.980  53.322  13.398  1.00  0.00     0.034 C 
HETATM    4  C4  UNL     1      -7.802  54.738  13.002  1.00  0.00     0.037 C 
HETATM    5  C5  UNL     1      -6.452  55.228  13.536  1.00  0.00     0.157 C 
HETATM    6  C6  UNL     1      -5.479  54.209  12.976  1.00  0.00     0.252 C 
HETATM    7  O5  UNL     1      -5.594  53.090  13.799  1.00  0.00    -0.368 OA
ENDROOT
BRANCH   6   8
HETATM    8  C7  UNL     1      -4.108  54.703  12.862  1.00  0.00     0.312 C 
HETATM    9  O2  UNL     1      -3.774  55.751  13.448  1.00  0.00    -0.260 OA
BRANCH   8  10
HETATM   10  O3  UNL     1      -3.178  54.027  12.113  1.00  0.00    -0.195 OA
BRANCH  10  11
HETATM   11  N1  UNL     1      -2.882  52.694  12.229  1.00  0.00    -0.233 N 
ATOM     12  H1  UNL     1      -3.492  52.008  11.785  1.00  0.00     0.197 HD
BRANCH  11  13
HETATM   13  C8  UNL     1      -1.757  52.252  12.945  1.00  0.00     0.374 C 
HETATM   14  O4  UNL     1      -1.069  52.951  13.717  1.00  0.00    -0.282 OA
ENDBRANCH  11  13
ENDBRANCH  10  11
ENDBRANCH   8  10
ENDBRANCH   6   8
BRANCH   5  15
HETATM   15  O1  UNL     1      -6.482  55.094  14.921  1.00  0.00    -0.392 OA
ATOM     16  H1  UNL     1      -7.386  54.941  15.170  1.00  0.00     0.210 HD
ENDBRANCH   5  15
TORSDOF 5
ENDMDL
MODEL 5
REMARK VINA RESULT: -6.063595186      1.331      1.639
REMARK  5 active torsions:
REMARK  status: ('A' for Active; 'I' for Inactive)
REMARK    1  A    between atoms: C5_5  and  O1_6 
REMARK    2  A    between atoms: C6_8  and  C7_9 
REMARK    3  A    between atoms: C7_9  and  O3_11 
REMARK    4  A    between atoms: O3_11  and  N1_12 
REMARK    5  A    between atoms: N1_12  and  C8_14 
ROOT
HETATM    1  C1  UNL     1      -8.195  52.275  11.927  1.00  0.00     0.039 C 
HETATM    2  C2  UNL     1      -8.364  53.352  13.003  1.00  0.00     0.118 C 
HETATM    3  C3  UNL     1      -8.474  54.697  12.403  1.00  0.00     0.034 C 
HETATM    4  C4  UNL     1      -7.275  55.567  12.395  1.00  0.00     0.037 C 
HETATM    5  C5  UNL     1      -6.427  55.242  13.628  1.00  0.00     0.157 C 
HETATM    6  C6  UNL     1      -6.216  53.745  13.506  1.00  0.00     0.252 C 
HETATM    7  O5  UNL     1      -7.401  53.163  13.954  1.00  0.00    -0.368 OA
ENDROOT
BRANCH   6   8
HETATM    8  C7  UNL     1      -5.031  53.258  14.210  1.00  0.00     0.312 C 
HETATM    9  O2  UNL     1      -4.939  53.398  15.444  1.00  0.00    -0.260 OA
BRANCH   8  10
HETATM   10  O3  UNL     1      -4.011  52.645  13.526  1.00  0.00    -0.195 OA
BRANCH  10  11
HETATM   11  N1  UNL     1      -3.201  53.249  12.600  1.00  0.00    -0.233 N 
ATOM     12  H1  UNL     1      -3.621  53.692  11.784  1.00  0.00     0.197 HD
BRANCH  11  13
HETATM   13  C8  UNL     1      -1.804  53.271  12.751  1.00  0.00     0.374 C 
HETATM   14  O4  UNL     1      -1.191  53.179  13.834  1.00  0.00    -0.282 OA
ENDBRANCH  11  13
ENDBRANCH  10  11
ENDBRANCH   8  10
ENDBRANCH   6   8
BRANCH   5  15
HETATM   15  O1  UNL     1      -7.216  55.486  14.748  1.00  0.00    -0.392 OA
ATOM     16  H1  UNL     1      -7.209  54.696  15.276  1.00  0.00     0.210 HD
ENDBRANCH   5  15
TORSDOF 5
ENDMDL
