MODEL 1
REMARK VINA RESULT: -5.785623497      0.000      0.000
REMARK  4 active torsions:
REMARK  status: ('A' for Active; 'I' for Inactive)
REMARK    1  A    between atoms: C3_3  and  C5_5 
REMARK    2  A    between atoms: C6_6  and  C7_7 
REMARK    3  A    between atoms: C7_7  and  O2_9 
REMARK    4  A    between atoms: N1_11  and  O3_12 
ROOT
HETATM    1  C5  UNL     1      -5.947  53.804  12.937  1.00  0.00     0.145 A 
HETATM    2  C6  UNL     1      -4.779  54.610  13.031  1.00  0.00     0.210 A 
HETATM    3  N1  UNL     1      -5.464  54.106  14.270  1.00  0.00    -0.173 NA
ENDROOT
BRANCH   1   4
HETATM    4  C3  UNL     1      -6.044  52.401  12.486  1.00  0.00    -0.066 C 
HETATM    5  C2  UNL     1      -7.118  51.901  11.921  1.00  0.00    -0.027 C 
HETATM    6  C1  UNL     1      -8.398  52.569  11.638  1.00  0.00     0.036 C 
HETATM    7  C4  UNL     1      -4.850  51.534  12.673  1.00  0.00     0.045 C 
ENDBRANCH   1   4
BRANCH   2   8
HETATM    8  C7  UNL     1      -3.391  54.162  12.818  1.00  0.00     0.280 C 
HETATM    9  O1  UNL     1      -2.537  54.108  13.743  1.00  0.00    -0.263 OA
BRANCH   8  10
HETATM   10  O2  UNL     1      -2.914  53.759  11.561  1.00  0.00    -0.325 OA
HETATM   11  C8  UNL     1      -1.599  53.220  11.405  1.00  0.00     0.213 C 
ENDBRANCH   8  10
ENDBRANCH   2   8
BRANCH   3  12
HETATM   12  O3  UNL     1      -4.722  53.259  14.979  1.00  0.00    -0.311 OA
ATOM     13  H3  UNL     1      -5.070  52.463  15.363  1.00  0.00     0.237 HD
ENDBRANCH   3  12
TORSDOF 4
ENDMDL
MODEL 2
REMARK VINA RESULT: -5.689585091      1.949      2.954
REMARK  4 active torsions:
REMARK  status: ('A' for Active; 'I' for Inactive)
REMARK    1  A    between atoms: C3_3  and  C5_5 
REMARK    2  A    between atoms: C6_6  and  C7_7 
REMARK    3  A    between atoms: C7_7  and  O2_9 
REMARK    4  A    between atoms: N1_11  and  O3_12 
ROOT
HETATM    1  C5  UNL     1      -5.492  52.500  13.647  1.00  0.00     0.145 A 
HETATM    2  C6  UNL     1      -5.859  53.717  14.285  1.00  0.00     0.210 A 
HETATM    3  N1  UNL     1      -4.447  53.207  14.361  1.00  0.00    -0.173 NA
ENDROOT
BRANCH   1   4
HETATM    4  C3  UNL     1      -5.354  52.243  12.199  1.00  0.00    -0.066 C 
HETATM    5  C2  UNL     1      -6.378  52.011  11.410  1.00  0.00    -0.027 C 
HETATM    6  C1  UNL     1      -7.805  51.940  11.761  1.00  0.00     0.036 C 
HETATM    7  C4  UNL     1      -3.984  52.272  11.623  1.00  0.00     0.045 C 
ENDBRANCH   1   4
BRANCH   2   8
HETATM    8  C7  UNL     1      -6.053  55.022  13.628  1.00  0.00     0.280 C 
HETATM    9  O1  UNL     1      -5.575  56.097  14.080  1.00  0.00    -0.263 OA
BRANCH   8  10
HETATM   10  O2  UNL     1      -6.790  55.165  12.442  1.00  0.00    -0.325 OA
HETATM   11  C8  UNL     1      -8.018  55.897  12.416  1.00  0.00     0.213 C 
ENDBRANCH   8  10
ENDBRANCH   2   8
BRANCH   3  12
HETATM   12  O3  UNL     1      -3.565  53.998  13.754  1.00  0.00    -0.311 OA
ATOM     13  H3  UNL     1      -2.777  54.315  14.180  1.00  0.00     0.237 HD
ENDBRANCH   3  12
TORSDOF 4
ENDMDL
MODEL 3
REMARK VINA RESULT: -5.658642689      2.331      3.748
REMARK  4 active torsions:
REMARK  status: ('A' for Active; 'I' for Inactive)
REMARK    1  A    between atoms: C3_3  and  C5_5 
REMARK    2  A    between atoms: C6_6  and  C7_7 
REMARK    3  A    between atoms: C7_7  and  O2_9 
REMARK    4  A    between atoms: N1_11  and  O3_12 
ROOT
HETATM    1  C5  UNL     1      -5.572  53.329  13.828  1.00  0.00     0.145 A 
HETATM    2  C6  UNL     1      -6.137  54.620  14.019  1.00  0.00     0.210 A 
HETATM    3  N1  UNL     1      -4.739  54.466  13.488  1.00  0.00    -0.173 NA
ENDROOT
BRANCH   1   4
HETATM    4  C3  UNL     1      -5.921  52.332  12.795  1.00  0.00    -0.066 C 
HETATM    5  C2  UNL     1      -5.073  51.437  12.346  1.00  0.00    -0.027 C 
HETATM    6  C1  UNL     1      -3.666  51.237  12.726  1.00  0.00     0.036 C 
HETATM    7  C4  UNL     1      -7.310  52.350  12.264  1.00  0.00     0.045 C 
ENDBRANCH   1   4
BRANCH   2   8
HETATM    8  C7  UNL     1      -7.108  55.287  13.133  1.00  0.00     0.280 C 
HETATM    9  O1  UNL     1      -8.185  55.792  13.549  1.00  0.00    -0.263 OA
BRANCH   8  10
HETATM   10  O2  UNL     1      -6.903  55.408  11.750  1.00  0.00    -0.325 OA
HETATM   11  C8  UNL     1      -7.954  55.839  10.881  1.00  0.00     0.213 C 
ENDBRANCH   8  10
ENDBRANCH   2   8
BRANCH   3  12
HETATM   12  O3  UNL     1      -4.595  54.908  12.241  1.00  0.00    -0.311 OA
ATOM     13  H3  UNL     1      -3.818  54.741  11.720  1.00  0.00     0.237 HD
ENDBRANCH   3  12
TORSDOF 4
ENDMDL
MODEL 4
REMARK VINA RESULT: -5.622109568      1.882      3.006
REMARK  4 active torsions:
REMARK  status: ('A' for Active; 'I' for Inactive)
REMARK    1  A    between atoms: C3_3  and  C5_5 
REMARK    2  A    between atoms: C6_6  and  C7_7 
REMARK    3  A    between atoms: C7_7  and  O2_9 
REMARK    4  A    between atoms: N1_11  and  O3_12 
ROOT
HETATM    1  C5  UNL     1      -5.465  52.417  13.876  1.00  0.00     0.145 A 
HETATM    2  C6  UNL     1      -5.955  53.748  13.985  1.00  0.00     0.210 A 
HETATM    3  N1  UNL     1      -4.573  53.398  14.462  1.00  0.00    -0.173 NA
ENDROOT
BRANCH   1   4
HETATM    4  C3  UNL     1      -5.068  51.697  12.649  1.00  0.00    -0.066 C 
HETATM    5  C2  UNL     1      -5.914  51.381  11.697  1.00  0.00    -0.027 C 
HETATM    6  C1  UNL     1      -7.362  51.636  11.637  1.00  0.00     0.036 C 
HETATM    7  C4  UNL     1      -3.633  51.338  12.496  1.00  0.00     0.045 C 
ENDBRANCH   1   4
BRANCH   2   8
HETATM    8  C7  UNL     1      -6.045  54.736  12.895  1.00  0.00     0.280 C 
HETATM    9  O1  UNL     1      -5.395  54.634  11.820  1.00  0.00    -0.263 OA
BRANCH   8  10
HETATM   10  O2  UNL     1      -6.866  55.872  12.975  1.00  0.00    -0.325 OA
HETATM   11  C8  UNL     1      -8.009  56.020  12.129  1.00  0.00     0.213 C 
ENDBRANCH   8  10
ENDBRANCH   2   8
BRANCH   3  12
HETATM   12  O3  UNL     1      -3.607  54.000  13.772  1.00  0.00    -0.311 OA
ATOM     13  H3  UNL     1      -3.453  53.836  12.848  1.00  0.00     0.237 HD
ENDBRANCH   3  12
TORSDOF 4
ENDMDL
MODEL 5
REMARK VINA RESULT: -5.574671605      2.813      4.011
REMARK  4 active torsions:
REMARK  status: ('A' for Active; 'I' for Inactive)
REMARK    1  A    between atoms: C3_3  and  C5_5 
REMARK    2  A    between atoms: C6_6  and  C7_7 
REMARK    3  A    between atoms: C7_7  and  O2_9 
REMARK    4  A    between atoms: N1_11  and  O3_12 
ROOT
HETATM    1  C5  UNL     1      -7.543  52.994  12.930  1.00  0.00     0.145 A 
HETATM    2  C6  UNL     1      -8.071  53.877  11.947  1.00  0.00     0.210 A 
HETATM    3  N1  UNL     1      -8.100  54.246  13.404  1.00  0.00    -0.173 NA
ENDROOT
BRANCH   1   4
HETATM    4  C3  UNL     1      -6.124  52.671  13.188  1.00  0.00    -0.066 C 
HETATM    5  C2  UNL     1      -5.452  51.786  12.490  1.00  0.00    -0.027 C 
HETATM    6  C1  UNL     1      -5.922  50.951  11.374  1.00  0.00     0.036 C 
HETATM    7  C4  UNL     1      -5.439  53.409  14.282  1.00  0.00     0.045 C 
ENDBRANCH   1   4
BRANCH   2   8
HETATM    8  C7  UNL     1      -7.292  54.760  11.061  1.00  0.00     0.280 C 
HETATM    9  O1  UNL     1      -6.284  54.369  10.413  1.00  0.00    -0.263 OA
BRANCH   8  10
HETATM   10  O2  UNL     1      -7.618  56.112  10.871  1.00  0.00    -0.325 OA
HETATM   11  C8  UNL     1      -8.978  56.539  10.761  1.00  0.00     0.213 C 
ENDBRANCH   8  10
ENDBRANCH   2   8
BRANCH   3  12
HETATM   12  O3  UNL     1      -7.350  55.306  13.697  1.00  0.00    -0.311 OA
ATOM     13  H3  UNL     1      -7.708  56.109  14.056  1.00  0.00     0.237 HD
ENDBRANCH   3  12
TORSDOF 4
ENDMDL
