MODEL 1
REMARK VINA RESULT: -5.092474899      0.000      0.000
REMARK  4 active torsions:
REMARK  status: ('A' for Active; 'I' for Inactive)
REMARK    1  A    between atoms: S1_3  and  C2_4 
REMARK    2  A    between atoms: C2_4  and  O1_6 
REMARK    3  A    between atoms: O1_6  and  C3_7 
REMARK    4  A    between atoms: C3_7  and  C4_8 
ROOT
HETATM    1  N1  UNL     1      -8.489  55.940  13.512  1.00  0.00    -0.184 NA
HETATM    2  C1  UNL     1      -7.723  55.367  12.831  1.00  0.00     0.141 C 
HETATM    3  S1  UNL     1      -6.595  54.494  11.795  1.00  0.00     0.026 SA
ENDROOT
BRANCH   3   4
HETATM    4  C2  UNL     1      -5.168  54.056  12.752  1.00  0.00     0.190 C 
HETATM    5  S2  UNL     1      -5.349  53.341  14.210  1.00  0.00    -0.044 SA
BRANCH   4   6
HETATM    6  O1  UNL     1      -3.866  54.298  12.307  1.00  0.00    -0.324 OA
BRANCH   6   7
HETATM    7  C3  UNL     1      -3.087  53.158  12.005  1.00  0.00     0.290 C 
BRANCH   7   8
HETATM    8  C4  UNL     1      -1.654  53.362  12.296  1.00  0.00     0.198 C 
HETATM    9  O2  UNL     1      -1.312  53.397  13.507  1.00  0.00    -0.646 OA
HETATM   10  O3  UNL     1      -0.672  53.517  11.346  1.00  0.00    -0.646 OA
ENDBRANCH   7   8
ENDBRANCH   6   7
ENDBRANCH   4   6
ENDBRANCH   3   4
TORSDOF 4
ENDMDL
MODEL 2
REMARK VINA RESULT: -5.033169172      0.127      1.014
REMARK  4 active torsions:
REMARK  status: ('A' for Active; 'I' for Inactive)
REMARK    1  A    between atoms: S1_3  and  C2_4 
REMARK    2  A    between atoms: C2_4  and  O1_6 
REMARK    3  A    between atoms: O1_6  and  C3_7 
REMARK    4  A    between atoms: C3_7  and  C4_8 
ROOT
HETATM    1  N1  UNL     1      -8.403  55.914  13.515  1.00  0.00    -0.184 NA
HETATM    2  C1  UNL     1      -7.665  55.337  12.806  1.00  0.00     0.141 C 
HETATM    3  S1  UNL     1      -6.581  54.457  11.731  1.00  0.00     0.026 SA
ENDROOT
BRANCH   3   4
HETATM    4  C2  UNL     1      -5.115  54.026  12.630  1.00  0.00     0.190 C 
HETATM    5  S2  UNL     1      -5.235  53.306  14.091  1.00  0.00    -0.044 SA
BRANCH   4   6
HETATM    6  O1  UNL     1      -3.833  54.278  12.136  1.00  0.00    -0.324 OA
BRANCH   6   7
HETATM    7  C3  UNL     1      -3.028  53.145  11.880  1.00  0.00     0.290 C 
BRANCH   7   8
HETATM    8  C4  UNL     1      -1.626  53.344  12.298  1.00  0.00     0.198 C 
HETATM    9  O2  UNL     1      -0.779  53.550  11.391  1.00  0.00    -0.646 OA
HETATM   10  O3  UNL     1      -1.182  53.323  13.599  1.00  0.00    -0.646 OA
ENDBRANCH   7   8
ENDBRANCH   6   7
ENDBRANCH   4   6
ENDBRANCH   3   4
TORSDOF 4
ENDMDL
MODEL 3
REMARK VINA RESULT: -4.862233868      1.556      1.802
REMARK  4 active torsions:
REMARK  status: ('A' for Active; 'I' for Inactive)
REMARK    1  A    between atoms: S1_3  and  C2_4 
REMARK    2  A    between atoms: C2_4  and  O1_6 
REMARK    3  A    between atoms: O1_6  and  C3_7 
REMARK    4  A    between atoms: C3_7  and  C4_8 
ROOT
HETATM    1  N1  UNL     1      -6.222  56.102  14.810  1.00  0.00    -0.184 NA
HETATM    2  C1  UNL     1      -6.519  55.592  13.796  1.00  0.00     0.141 C 
HETATM    3  S1  UNL     1      -6.995  54.830  12.279  1.00  0.00     0.026 SA
ENDROOT
BRANCH   3   4
HETATM    4  C2  UNL     1      -5.898  53.473  11.957  1.00  0.00     0.190 C 
HETATM    5  S2  UNL     1      -6.482  51.950  11.883  1.00  0.00    -0.044 SA
BRANCH   4   6
HETATM    6  O1  UNL     1      -4.527  53.651  11.758  1.00  0.00    -0.324 OA
BRANCH   6   7
HETATM    7  C3  UNL     1      -3.685  53.264  12.826  1.00  0.00     0.290 C 
BRANCH   7   8
HETATM    8  C4  UNL     1      -2.254  53.432  12.503  1.00  0.00     0.198 C 
HETATM    9  O2  UNL     1      -1.959  53.685  11.307  1.00  0.00    -0.646 OA
HETATM   10  O3  UNL     1      -1.226  53.333  13.412  1.00  0.00    -0.646 OA
ENDBRANCH   7   8
ENDBRANCH   6   7
ENDBRANCH   4   6
ENDBRANCH   3   4
TORSDOF 4
ENDMDL
MODEL 4
REMARK VINA RESULT: -4.797229897      1.485      1.522
REMARK  4 active torsions:
REMARK  status: ('A' for Active; 'I' for Inactive)
REMARK    1  A    between atoms: S1_3  and  C2_4 
REMARK    2  A    between atoms: C2_4  and  O1_6 
REMARK    3  A    between atoms: O1_6  and  C3_7 
REMARK    4  A    between atoms: C3_7  and  C4_8 
ROOT
HETATM    1  N1  UNL     1      -6.182  56.084  14.766  1.00  0.00    -0.184 NA
HETATM    2  C1  UNL     1      -6.506  55.490  13.806  1.00  0.00     0.141 C 
HETATM    3  S1  UNL     1      -7.022  54.599  12.376  1.00  0.00     0.026 SA
ENDROOT
BRANCH   3   4
HETATM    4  C2  UNL     1      -5.785  53.389  11.984  1.00  0.00     0.190 C 
HETATM    5  S2  UNL     1      -6.205  51.821  11.800  1.00  0.00    -0.044 SA
BRANCH   4   6
HETATM    6  O1  UNL     1      -4.438  53.722  11.822  1.00  0.00    -0.324 OA
BRANCH   6   7
HETATM    7  C3  UNL     1      -3.538  53.150  12.750  1.00  0.00     0.290 C 
BRANCH   7   8
HETATM    8  C4  UNL     1      -2.127  53.398  12.390  1.00  0.00     0.198 C 
HETATM    9  O2  UNL     1      -1.283  53.378  13.323  1.00  0.00    -0.646 OA
HETATM   10  O3  UNL     1      -1.672  53.647  11.117  1.00  0.00    -0.646 OA
ENDBRANCH   7   8
ENDBRANCH   6   7
ENDBRANCH   4   6
ENDBRANCH   3   4
TORSDOF 4
ENDMDL
MODEL 5
REMARK VINA RESULT: -4.695095935      4.918      6.087
REMARK  4 active torsions:
REMARK  status: ('A' for Active; 'I' for Inactive)
REMARK    1  A    between atoms: S1_3  and  C2_4 
REMARK    2  A    between atoms: C2_4  and  O1_6 
REMARK    3  A    between atoms: O1_6  and  C3_7 
REMARK    4  A    between atoms: C3_7  and  C4_8 
ROOT
HETATM    1  N1  UNL     1       2.054  54.379   9.028  1.00  0.00    -0.184 NA
HETATM    2  C1  UNL     1       1.005  53.853   8.983  1.00  0.00     0.141 C 
HETATM    3  S1  UNL     1      -0.577  53.082   8.892  1.00  0.00     0.026 SA
ENDROOT
BRANCH   3   4
HETATM    4  C2  UNL     1      -1.159  52.784  10.541  1.00  0.00     0.190 C 
HETATM    5  S2  UNL     1      -0.992  51.305  11.212  1.00  0.00    -0.044 SA
BRANCH   4   6
HETATM    6  O1  UNL     1      -1.768  53.779  11.310  1.00  0.00    -0.324 OA
BRANCH   6   7
HETATM    7  C3  UNL     1      -2.138  53.414  12.624  1.00  0.00     0.290 C 
BRANCH   7   8
HETATM    8  C4  UNL     1      -3.491  53.886  12.979  1.00  0.00     0.198 C 
HETATM    9  O2  UNL     1      -4.138  54.500  12.092  1.00  0.00    -0.646 OA
HETATM   10  O3  UNL     1      -4.093  53.702  14.202  1.00  0.00    -0.646 OA
ENDBRANCH   7   8
ENDBRANCH   6   7
ENDBRANCH   4   6
ENDBRANCH   3   4
TORSDOF 4
ENDMDL
