MODEL 1
REMARK VINA RESULT: -6.151827068      0.000      0.000
REMARK  4 active torsions:
REMARK  status: ('A' for Active; 'I' for Inactive)
REMARK    1  A    between atoms: C5_6  and  C6_7 
REMARK    2  A    between atoms: C6_7  and  C7_8 
REMARK    3  A    between atoms: C7_8  and  O2_9 
REMARK    4  A    between atoms: N1_11  and  O3_13 
ROOT
HETATM    1  C6  UNL     1      -5.501  53.706  14.160  1.00  0.00     0.120 C 
ENDROOT
BRANCH   1   2
HETATM    2  C5  UNL     1      -4.843  52.493  13.606  1.00  0.00     0.156 C 
HETATM    3  C4  UNL     1      -5.488  51.829  12.466  1.00  0.00     0.204 C 
HETATM    4  O1  UNL     1      -4.424  51.542  11.593  1.00  0.00    -0.353 OA
HETATM    5  C2  UNL     1      -3.270  51.634  12.370  1.00  0.00     0.157 C 
HETATM    6  C1  UNL     1      -2.070  51.972  11.483  1.00  0.00     0.078 C 
HETATM    7  C3  UNL     1      -2.935  50.366  13.088  1.00  0.00     0.078 C 
HETATM    8  O4  UNL     1      -3.523  52.699  13.222  1.00  0.00    -0.348 OA
ENDBRANCH   1   2
BRANCH   1   9
HETATM    9  C7  UNL     1      -5.244  54.965  13.492  1.00  0.00     0.137 C 
HETATM   10  N1  UNL     1      -5.651  56.067  14.014  1.00  0.00    -0.251 N 
ATOM     11  H1  UNL     1      -5.447  56.928  13.506  1.00  0.00     0.196 HD
BRANCH   9  12
HETATM   12  O2  UNL     1      -4.572  55.079  12.292  1.00  0.00    -0.348 OA
ATOM     13  H2  UNL     1      -4.954  54.869  11.448  1.00  0.00     0.219 HD
ENDBRANCH   9  12
BRANCH  10  14
HETATM   14  O3  UNL     1      -6.324  56.182  15.177  1.00  0.00    -0.288 OA
ATOM     15  H3  UNL     1      -7.221  56.485  15.268  1.00  0.00     0.244 HD
ENDBRANCH  10  14
ENDBRANCH   1   9
TORSDOF 4
ENDMDL
MODEL 2
REMARK VINA RESULT: -6.043585842      3.768      5.980
REMARK  4 active torsions:
REMARK  status: ('A' for Active; 'I' for Inactive)
REMARK    1  A    between atoms: C5_6  and  C6_7 
REMARK    2  A    between atoms: C6_7  and  C7_8 
REMARK    3  A    between atoms: C7_8  and  O2_9 
REMARK    4  A    between atoms: N1_11  and  O3_13 
ROOT
HETATM    1  C6  UNL     1      -7.052  54.808  13.092  1.00  0.00     0.120 C 
ENDROOT
BRANCH   1   2
HETATM    2  C5  UNL     1      -7.839  55.515  12.046  1.00  0.00     0.156 C 
HETATM    3  C4  UNL     1      -8.682  54.700  11.162  1.00  0.00     0.204 C 
HETATM    4  O1  UNL     1      -9.890  55.416  11.089  1.00  0.00    -0.353 OA
HETATM    5  C2  UNL     1      -9.585  56.705  11.524  1.00  0.00     0.157 C 
HETATM    6  C1  UNL     1     -10.839  57.375  12.089  1.00  0.00     0.078 C 
HETATM    7  C3  UNL     1      -9.072  57.592  10.435  1.00  0.00     0.078 C 
HETATM    8  O4  UNL     1      -8.672  56.507  12.550  1.00  0.00    -0.348 OA
ENDBRANCH   1   2
BRANCH   1   9
HETATM    9  C7  UNL     1      -6.134  55.602  13.882  1.00  0.00     0.137 C 
HETATM   10  N1  UNL     1      -4.902  55.705  13.530  1.00  0.00    -0.251 N 
ATOM     11  H1  UNL     1      -4.294  56.274  14.118  1.00  0.00     0.196 HD
BRANCH   9  12
HETATM   12  O2  UNL     1      -6.491  56.282  15.029  1.00  0.00    -0.348 OA
ATOM     13  H2  UNL     1      -6.825  57.171  15.036  1.00  0.00     0.219 HD
ENDBRANCH   9  12
BRANCH  10  14
HETATM   14  O3  UNL     1      -4.345  55.124  12.447  1.00  0.00    -0.288 OA
ATOM     15  H3  UNL     1      -4.797  54.559  11.830  1.00  0.00     0.244 HD
ENDBRANCH  10  14
ENDBRANCH   1   9
TORSDOF 4
ENDMDL
MODEL 3
REMARK VINA RESULT: -5.950630065      2.142      3.353
REMARK  4 active torsions:
REMARK  status: ('A' for Active; 'I' for Inactive)
REMARK    1  A    between atoms: C5_6  and  C6_7 
REMARK    2  A    between atoms: C6_7  and  C7_8 
REMARK    3  A    between atoms: C7_8  and  O2_9 
REMARK    4  A    between atoms: N1_11  and  O3_13 
ROOT
HETATM    1  C6  UNL     1      -7.153  55.762  12.846  1.00  0.00     0.120 C 
ENDROOT
BRANCH   1   2
HETATM    2  C5  UNL     1      -7.366  54.474  12.135  1.00  0.00     0.156 C 
HETATM    3  C4  UNL     1      -6.981  54.406  10.719  1.00  0.00     0.204 C 
HETATM    4  O1  UNL     1      -6.320  53.170  10.605  1.00  0.00    -0.353 OA
HETATM    5  C2  UNL     1      -6.696  52.442  11.733  1.00  0.00     0.157 C 
HETATM    6  C1  UNL     1      -5.622  51.405  12.066  1.00  0.00     0.078 C 
HETATM    7  C3  UNL     1      -7.980  51.695  11.555  1.00  0.00     0.078 C 
HETATM    8  O4  UNL     1      -6.745  53.390  12.744  1.00  0.00    -0.348 OA
ENDBRANCH   1   2
BRANCH   1   9
HETATM    9  C7  UNL     1      -6.143  55.790  13.883  1.00  0.00     0.137 C 
HETATM   10  N1  UNL     1      -4.924  55.489  13.604  1.00  0.00    -0.251 N 
ATOM     11  H1  UNL     1      -4.249  55.523  14.367  1.00  0.00     0.196 HD
BRANCH   9  12
HETATM   12  O2  UNL     1      -6.394  56.126  15.197  1.00  0.00    -0.348 OA
ATOM     13  H2  UNL     1      -6.189  56.972  15.578  1.00  0.00     0.219 HD
ENDBRANCH   9  12
BRANCH  10  14
HETATM   14  O3  UNL     1      -4.463  55.133  12.387  1.00  0.00    -0.288 OA
ATOM     15  H3  UNL     1      -3.598  55.330  12.045  1.00  0.00     0.244 HD
ENDBRANCH  10  14
ENDBRANCH   1   9
TORSDOF 4
ENDMDL
MODEL 4
REMARK VINA RESULT: -5.791821268      4.239      6.288
REMARK  4 active torsions:
REMARK  status: ('A' for Active; 'I' for Inactive)
REMARK    1  A    between atoms: C5_6  and  C6_7 
REMARK    2  A    between atoms: C6_7  and  C7_8 
REMARK    3  A    between atoms: C7_8  and  O2_9 
REMARK    4  A    between atoms: N1_11  and  O3_13 
ROOT
HETATM    1  C6  UNL     1      -7.637  55.305  13.073  1.00  0.00     0.120 C 
ENDROOT
BRANCH   1   2
HETATM    2  C5  UNL     1      -8.370  55.968  11.962  1.00  0.00     0.156 C 
HETATM    3  C4  UNL     1      -8.971  55.109  10.934  1.00  0.00     0.204 C 
HETATM    4  O1  UNL     1     -10.246  55.666  10.728  1.00  0.00    -0.353 OA
HETATM    5  C2  UNL     1     -10.179  56.953  11.259  1.00  0.00     0.157 C 
HETATM    6  C1  UNL     1     -11.576  57.419  11.675  1.00  0.00     0.078 C 
HETATM    7  C3  UNL     1      -9.655  57.967  10.292  1.00  0.00     0.078 C 
HETATM    8  O4  UNL     1      -9.390  56.810  12.390  1.00  0.00    -0.348 OA
ENDBRANCH   1   2
BRANCH   1   9
HETATM    9  C7  UNL     1      -6.198  55.461  13.107  1.00  0.00     0.137 C 
HETATM   10  N1  UNL     1      -5.630  55.995  14.129  1.00  0.00    -0.251 N 
ATOM     11  H1  UNL     1      -4.615  56.084  14.106  1.00  0.00     0.196 HD
BRANCH   9  12
HETATM   12  O2  UNL     1      -5.355  55.066  12.088  1.00  0.00    -0.348 OA
ATOM     13  H2  UNL     1      -4.411  55.003  12.174  1.00  0.00     0.219 HD
ENDBRANCH   9  12
BRANCH  10  14
HETATM   14  O3  UNL     1      -6.265  56.448  15.230  1.00  0.00    -0.288 OA
ATOM     15  H3  UNL     1      -7.207  56.501  15.342  1.00  0.00     0.244 HD
ENDBRANCH  10  14
ENDBRANCH   1   9
TORSDOF 4
ENDMDL
MODEL 5
REMARK VINA RESULT: -5.740926945      1.236      1.650
REMARK  4 active torsions:
REMARK  status: ('A' for Active; 'I' for Inactive)
REMARK    1  A    between atoms: C5_6  and  C6_7 
REMARK    2  A    between atoms: C6_7  and  C7_8 
REMARK    3  A    between atoms: C7_8  and  O2_9 
REMARK    4  A    between atoms: N1_11  and  O3_13 
ROOT
HETATM    1  C6  UNL     1      -5.659  54.191  14.513  1.00  0.00     0.120 C 
ENDROOT
BRANCH   1   2
HETATM    2  C5  UNL     1      -4.977  53.258  13.578  1.00  0.00     0.156 C 
HETATM    3  C4  UNL     1      -5.426  53.244  12.179  1.00  0.00     0.204 C 
HETATM    4  O1  UNL     1      -4.231  53.219  11.438  1.00  0.00    -0.353 OA
HETATM    5  C2  UNL     1      -3.246  52.810  12.335  1.00  0.00     0.157 C 
HETATM    6  C1  UNL     1      -1.880  53.331  11.882  1.00  0.00     0.078 C 
HETATM    7  C3  UNL     1      -3.127  51.324  12.449  1.00  0.00     0.078 C 
HETATM    8  O4  UNL     1      -3.597  53.428  13.526  1.00  0.00    -0.348 OA
ENDBRANCH   1   2
BRANCH   1   9
HETATM    9  C7  UNL     1      -6.178  55.425  13.960  1.00  0.00     0.137 C 
HETATM   10  N1  UNL     1      -5.372  56.324  13.521  1.00  0.00    -0.251 N 
ATOM     11  H1  UNL     1      -5.784  57.176  13.142  1.00  0.00     0.196 HD
BRANCH   9  12
HETATM   12  O2  UNL     1      -7.522  55.722  13.864  1.00  0.00    -0.348 OA
ATOM     13  H2  UNL     1      -8.153  55.556  14.554  1.00  0.00     0.219 HD
ENDBRANCH   9  12
BRANCH  10  14
HETATM   14  O3  UNL     1      -4.025  56.237  13.520  1.00  0.00    -0.288 OA
ATOM     15  H3  UNL     1      -3.435  56.802  14.005  1.00  0.00     0.244 HD
ENDBRANCH  10  14
ENDBRANCH   1   9
TORSDOF 4
ENDMDL
