MODEL 1
REMARK VINA RESULT: -4.353748308      0.000      0.000
REMARK  3 active torsions:
REMARK  status: ('A' for Active; 'I' for Inactive)
REMARK    1  A    between atoms: C2_2  and  N1_3 
REMARK    2  A    between atoms: N1_3  and  C3_5 
REMARK    3  A    between atoms: C3_5  and  C4_6 
ROOT
HETATM    1  C3  UNL     1      21.454  41.842  91.638  1.00  0.00     0.142 C 
HETATM    2  C6  UNL     1      20.457  42.986  91.708  1.00  0.00     0.045 C 
HETATM    3  C7  UNL     1      20.568  43.957  90.567  1.00  0.00     0.023 C 
HETATM    4  C8  UNL     1      20.330  43.318  89.211  1.00  0.00     0.122 C 
HETATM    5  N2  UNL     1      21.242  42.208  89.129  1.00  0.00    -0.359 N 
ATOM      6  H2  UNL     1      21.321  41.673  88.264  1.00  0.00     0.162 HD
HETATM    7  C9  UNL     1      22.024  41.862  90.246  1.00  0.00     0.248 C 
HETATM    8  O1  UNL     1      23.254  41.551  90.106  1.00  0.00    -0.271 OA
ENDROOT
BRANCH   1   9
HETATM    9  N1  UNL     1      22.513  42.039  92.535  1.00  0.00    -0.403 N 
ATOM     10  H1  UNL     1      23.252  41.337  92.568  1.00  0.00     0.154 HD
BRANCH   9  11
HETATM   11  C2  UNL     1      22.615  43.135  93.383  1.00  0.00     0.110 C 
HETATM   12  C1  UNL     1      22.486  42.745  94.878  1.00  0.00     0.026 C 
ENDBRANCH   9  11
ENDBRANCH   1   9
BRANCH   1  13
HETATM   13  C4  UNL     1      20.742  40.513  91.768  1.00  0.00     0.143 C 
HETATM   14  C5  UNL     1      20.990  39.482  90.752  1.00  0.00     0.053 C 
HETATM   15 CL1  UNL     1      18.980  40.927  91.685  1.00  0.00    -0.099 Cl
HETATM   16 CL2  UNL     1      20.959  39.798  93.399  1.00  0.00    -0.099 Cl
ENDBRANCH   1  13
TORSDOF 3
ENDMDL
MODEL 2
REMARK VINA RESULT: -4.255367588      2.406      3.872
REMARK  3 active torsions:
REMARK  status: ('A' for Active; 'I' for Inactive)
REMARK    1  A    between atoms: C2_2  and  N1_3 
REMARK    2  A    between atoms: N1_3  and  C3_5 
REMARK    3  A    between atoms: C3_5  and  C4_6 
ROOT
HETATM    1  C3  UNL     1      20.331  41.269  91.687  1.00  0.00     0.142 C 
HETATM    2  C6  UNL     1      21.272  42.265  92.344  1.00  0.00     0.045 C 
HETATM    3  C7  UNL     1      21.442  42.053  93.821  1.00  0.00     0.023 C 
HETATM    4  C8  UNL     1      22.014  40.691  94.170  1.00  0.00     0.122 C 
HETATM    5  N2  UNL     1      21.158  39.726  93.533  1.00  0.00    -0.359 N 
ATOM      6  H2  UNL     1      21.300  38.729  93.696  1.00  0.00     0.162 HD
HETATM    7  C9  UNL     1      20.125  40.161  92.683  1.00  0.00     0.248 C 
HETATM    8  O1  UNL     1      18.970  39.620  92.735  1.00  0.00    -0.271 OA
ENDROOT
BRANCH   1   9
HETATM    9  N1  UNL     1      19.080  41.850  91.431  1.00  0.00    -0.403 N 
ATOM     10  H1  UNL     1      18.308  41.234  91.176  1.00  0.00     0.154 HD
BRANCH   9  11
HETATM   11  C2  UNL     1      18.831  43.215  91.503  1.00  0.00     0.110 C 
HETATM   12  C1  UNL     1      18.829  43.894  90.110  1.00  0.00     0.026 C 
ENDBRANCH   9  11
ENDBRANCH   1   9
BRANCH   1  13
HETATM   13  C4  UNL     1      20.996  40.624  90.491  1.00  0.00     0.143 C 
HETATM   14  C5  UNL     1      22.270  41.178  90.014  1.00  0.00     0.053 C 
HETATM   15 CL1  UNL     1      19.799  40.812  89.143  1.00  0.00    -0.099 Cl
HETATM   16 CL2  UNL     1      21.165  38.851  90.699  1.00  0.00    -0.099 Cl
ENDBRANCH   1  13
TORSDOF 3
ENDMDL
MODEL 3
REMARK VINA RESULT: -4.237220742      2.962      4.294
REMARK  3 active torsions:
REMARK  status: ('A' for Active; 'I' for Inactive)
REMARK    1  A    between atoms: C2_2  and  N1_3 
REMARK    2  A    between atoms: N1_3  and  C3_5 
REMARK    3  A    between atoms: C3_5  and  C4_6 
ROOT
HETATM    1  C3  UNL     1      23.866  42.569  94.142  1.00  0.00     0.142 C 
HETATM    2  C6  UNL     1      24.155  43.709  95.104  1.00  0.00     0.045 C 
HETATM    3  C7  UNL     1      24.947  44.830  94.494  1.00  0.00     0.023 C 
HETATM    4  C8  UNL     1      24.250  45.485  93.316  1.00  0.00     0.122 C 
HETATM    5  N2  UNL     1      23.935  44.421  92.400  1.00  0.00    -0.359 N 
ATOM      6  H2  UNL     1      23.532  44.635  91.487  1.00  0.00     0.162 HD
HETATM    7  C9  UNL     1      24.184  43.086  92.766  1.00  0.00     0.248 C 
HETATM    8  O1  UNL     1      24.693  42.267  91.929  1.00  0.00    -0.271 OA
ENDROOT
BRANCH   1   9
HETATM    9  N1  UNL     1      24.706  41.474  94.391  1.00  0.00    -0.403 N 
ATOM     10  H1  UNL     1      24.717  40.714  93.711  1.00  0.00     0.154 HD
BRANCH   9  11
HETATM   11  C2  UNL     1      25.524  41.364  95.508  1.00  0.00     0.110 C 
HETATM   12  C1  UNL     1      27.024  41.238  95.138  1.00  0.00     0.026 C 
ENDBRANCH   9  11
ENDBRANCH   1   9
BRANCH   1  13
HETATM   13  C4  UNL     1      22.387  42.253  94.128  1.00  0.00     0.143 C 
HETATM   14  C5  UNL     1      21.550  42.863  93.087  1.00  0.00     0.053 C 
HETATM   15 CL1  UNL     1      21.773  42.856  95.723  1.00  0.00    -0.099 Cl
HETATM   16 CL2  UNL     1      22.083  40.485  94.168  1.00  0.00    -0.099 Cl
ENDBRANCH   1  13
TORSDOF 3
ENDMDL
MODEL 4
REMARK VINA RESULT: -4.235980884      1.684      3.749
REMARK  3 active torsions:
REMARK  status: ('A' for Active; 'I' for Inactive)
REMARK    1  A    between atoms: C2_2  and  N1_3 
REMARK    2  A    between atoms: N1_3  and  C3_5 
REMARK    3  A    between atoms: C3_5  and  C4_6 
ROOT
HETATM    1  C3  UNL     1      21.286  41.914  91.481  1.00  0.00     0.142 C 
HETATM    2  C6  UNL     1      20.797  41.723  92.907  1.00  0.00     0.045 C 
HETATM    3  C7  UNL     1      21.869  41.902  93.944  1.00  0.00     0.023 C 
HETATM    4  C8  UNL     1      22.491  43.287  93.931  1.00  0.00     0.122 C 
HETATM    5  N2  UNL     1      22.937  43.508  92.580  1.00  0.00    -0.359 N 
ATOM      6  H2  UNL     1      23.467  44.349  92.347  1.00  0.00     0.162 HD
HETATM    7  C9  UNL     1      22.640  42.563  91.582  1.00  0.00     0.248 C 
HETATM    8  O1  UNL     1      23.522  42.226  90.723  1.00  0.00    -0.271 OA
ENDROOT
BRANCH   1   9
HETATM    9  N1  UNL     1      21.451  40.681  90.835  1.00  0.00    -0.403 N 
ATOM     10  H1  UNL     1      22.059  40.646  90.017  1.00  0.00     0.154 HD
BRANCH   9  11
HETATM   11  C2  UNL     1      20.836  39.504  91.243  1.00  0.00     0.110 C 
HETATM   12  C1  UNL     1      21.002  38.358  90.214  1.00  0.00     0.026 C 
ENDBRANCH   9  11
ENDBRANCH   1   9
BRANCH   1  13
HETATM   13  C4  UNL     1      20.410  42.909  90.752  1.00  0.00     0.143 C 
HETATM   14  C5  UNL     1      20.941  44.254  90.495  1.00  0.00     0.053 C 
HETATM   15 CL1  UNL     1      18.956  43.106  91.814  1.00  0.00    -0.099 Cl
HETATM   16 CL2  UNL     1      19.762  42.231  89.223  1.00  0.00    -0.099 Cl
ENDBRANCH   1  13
TORSDOF 3
ENDMDL
MODEL 5
REMARK VINA RESULT: -4.227076113      2.697      3.378
REMARK  3 active torsions:
REMARK  status: ('A' for Active; 'I' for Inactive)
REMARK    1  A    between atoms: C2_2  and  N1_3 
REMARK    2  A    between atoms: N1_3  and  C3_5 
REMARK    3  A    between atoms: C3_5  and  C4_6 
ROOT
HETATM    1  C3  UNL     1      20.806  42.623  91.603  1.00  0.00     0.142 C 
HETATM    2  C6  UNL     1      21.244  41.282  91.038  1.00  0.00     0.045 C 
HETATM    3  C7  UNL     1      20.152  40.541  90.321  1.00  0.00     0.023 C 
HETATM    4  C8  UNL     1      19.595  41.299  89.130  1.00  0.00     0.122 C 
HETATM    5  N2  UNL     1      19.199  42.590  89.631  1.00  0.00    -0.359 N 
ATOM      6  H2  UNL     1      18.715  43.249  89.021  1.00  0.00     0.162 HD
HETATM    7  C9  UNL     1      19.481  42.939  90.964  1.00  0.00     0.248 C 
HETATM    8  O1  UNL     1      18.609  43.541  91.676  1.00  0.00    -0.271 OA
ENDROOT
BRANCH   1   9
HETATM    9  N1  UNL     1      20.603  42.545  92.988  1.00  0.00    -0.403 N 
ATOM     10  H1  UNL     1      19.954  43.205  93.416  1.00  0.00     0.154 HD
BRANCH   9  11
HETATM   11  C2  UNL     1      21.232  41.620  93.812  1.00  0.00     0.110 C 
HETATM   12  C1  UNL     1      21.527  42.186  95.225  1.00  0.00     0.026 C 
ENDBRANCH   9  11
ENDBRANCH   1   9
BRANCH   1  13
HETATM   13  C4  UNL     1      21.747  43.718  91.153  1.00  0.00     0.143 C 
HETATM   14  C5  UNL     1      21.227  44.771  90.272  1.00  0.00     0.053 C 
HETATM   15 CL1  UNL     1      23.051  42.855  90.237  1.00  0.00    -0.099 Cl
HETATM   16 CL2  UNL     1      22.598  44.476  92.539  1.00  0.00    -0.099 Cl
ENDBRANCH   1  13
TORSDOF 3
ENDMDL
