MODEL 1
REMARK VINA RESULT: -5.592358054      0.000      0.000
REMARK  4 active torsions:
REMARK  status: ('A' for Active; 'I' for Inactive)
REMARK    1  A    between atoms: C2_2  and  C3_3 
REMARK    2  A    between atoms: C3_3  and  C4_4 
REMARK    3  A    between atoms: C4_4  and  N1_6 
REMARK    4  A    between atoms: C8_11  and  O1_12 
ROOT
HETATM    1  N1  UNL     1      22.423  42.193  94.151  1.00  0.00    -0.361 N 
HETATM    2  C6  UNL     1      23.858  41.957  93.925  1.00  0.00     0.170 C 
HETATM    3  C7  UNL     1      24.375  41.985  95.349  1.00  0.00     0.161 C 
HETATM    4 CL1  UNL     1      25.972  41.265  95.502  1.00  0.00    -0.097 Cl
HETATM    5 CL2  UNL     1      24.328  43.665  95.902  1.00  0.00    -0.097 Cl
HETATM    6  C8  UNL     1      23.303  41.149  96.040  1.00  0.00     0.225 C 
HETATM    7  C9  UNL     1      22.071  41.710  95.441  1.00  0.00     0.105 C 
HETATM    8  N2  UNL     1      20.893  41.770  95.952  1.00  0.00    -0.387 N 
ATOM      9  H21 UNL     1      20.640  41.424  96.878  1.00  0.00     0.157 HD
ATOM     10  H22 UNL     1      20.044  42.156  95.539  1.00  0.00     0.157 HD
ENDROOT
BRANCH   1  11
HETATM   11  C4  UNL     1      21.598  42.826  93.141  1.00  0.00     0.081 C 
HETATM   12  C5  UNL     1      22.274  44.052  92.549  1.00  0.00     0.032 C 
BRANCH  11  13
HETATM   13  C3  UNL     1      21.431  41.818  92.020  1.00  0.00     0.024 C 
BRANCH  13  14
HETATM   14  C2  UNL     1      20.135  41.045  92.184  1.00  0.00    -0.003 C 
HETATM   15  C1  UNL     1      20.473  39.622  92.570  1.00  0.00     0.005 C 
ENDBRANCH  13  14
ENDBRANCH  11  13
ENDBRANCH   1  11
BRANCH   6  16
HETATM   16  O1  UNL     1      23.350  41.262  97.411  1.00  0.00    -0.385 OA
ATOM     17  H1  UNL     1      22.538  40.995  97.826  1.00  0.00     0.210 HD
ENDBRANCH   6  16
TORSDOF 4
ENDMDL
MODEL 2
REMARK VINA RESULT: -5.006408073      1.344      1.588
REMARK  4 active torsions:
REMARK  status: ('A' for Active; 'I' for Inactive)
REMARK    1  A    between atoms: C2_2  and  C3_3 
REMARK    2  A    between atoms: C3_3  and  C4_4 
REMARK    3  A    between atoms: C4_4  and  N1_6 
REMARK    4  A    between atoms: C8_11  and  O1_12 
ROOT
HETATM    1  N1  UNL     1      22.751  41.608  94.787  1.00  0.00    -0.361 N 
HETATM    2  C6  UNL     1      23.837  42.131  93.943  1.00  0.00     0.170 C 
HETATM    3  C7  UNL     1      24.744  42.734  94.996  1.00  0.00     0.161 C 
HETATM    4 CL1  UNL     1      26.372  43.028  94.398  1.00  0.00    -0.097 Cl
HETATM    5 CL2  UNL     1      23.963  44.203  95.599  1.00  0.00    -0.097 Cl
HETATM    6  C8  UNL     1      24.712  41.627  96.044  1.00  0.00     0.225 C 
HETATM    7  C9  UNL     1      23.269  41.301  96.075  1.00  0.00     0.105 C 
HETATM    8  N2  UNL     1      22.579  40.832  97.052  1.00  0.00    -0.387 N 
ATOM      9  H21 UNL     1      22.950  40.612  97.976  1.00  0.00     0.157 HD
ATOM     10  H22 UNL     1      21.584  40.608  97.073  1.00  0.00     0.157 HD
ENDROOT
BRANCH   1  11
HETATM   11  C4  UNL     1      21.402  41.472  94.274  1.00  0.00     0.081 C 
HETATM   12  C5  UNL     1      21.086  42.529  93.228  1.00  0.00     0.032 C 
BRANCH  11  13
HETATM   13  C3  UNL     1      21.332  40.122  93.585  1.00  0.00     0.024 C 
BRANCH  13  14
HETATM   14  C2  UNL     1      20.302  40.142  92.470  1.00  0.00    -0.003 C 
HETATM   15  C1  UNL     1      20.803  39.270  91.340  1.00  0.00     0.005 C 
ENDBRANCH  13  14
ENDBRANCH  11  13
ENDBRANCH   1  11
BRANCH   6  16
HETATM   16  O1  UNL     1      25.211  42.037  97.259  1.00  0.00    -0.385 OA
ATOM     17  H1  UNL     1      25.298  41.321  97.877  1.00  0.00     0.210 HD
ENDBRANCH   6  16
TORSDOF 4
ENDMDL
MODEL 3
REMARK VINA RESULT: -4.765122382      1.817      1.940
REMARK  4 active torsions:
REMARK  status: ('A' for Active; 'I' for Inactive)
REMARK    1  A    between atoms: C2_2  and  C3_3 
REMARK    2  A    between atoms: C3_3  and  C4_4 
REMARK    3  A    between atoms: C4_4  and  N1_6 
REMARK    4  A    between atoms: C8_11  and  O1_12 
ROOT
HETATM    1  N1  UNL     1      21.656  41.602  93.133  1.00  0.00    -0.361 N 
HETATM    2  C6  UNL     1      22.783  42.498  93.439  1.00  0.00     0.170 C 
HETATM    3  C7  UNL     1      23.000  42.185  94.905  1.00  0.00     0.161 C 
HETATM    4 CL1  UNL     1      24.573  42.718  95.484  1.00  0.00    -0.097 Cl
HETATM    5 CL2  UNL     1      21.660  42.904  95.810  1.00  0.00    -0.097 Cl
HETATM    6  C8  UNL     1      22.887  40.664  94.874  1.00  0.00     0.225 C 
HETATM    7  C9  UNL     1      21.703  40.481  94.005  1.00  0.00     0.105 C 
HETATM    8  N2  UNL     1      20.857  39.514  94.006  1.00  0.00    -0.387 N 
ATOM      9  H21 UNL     1      20.890  38.709  94.632  1.00  0.00     0.157 HD
ATOM     10  H22 UNL     1      20.041  39.388  93.407  1.00  0.00     0.157 HD
ENDROOT
BRANCH   1  11
HETATM   11  C4  UNL     1      20.710  41.920  92.082  1.00  0.00     0.081 C 
HETATM   12  C5  UNL     1      20.692  43.407  91.768  1.00  0.00     0.032 C 
BRANCH  11  13
HETATM   13  C3  UNL     1      21.188  41.202  90.834  1.00  0.00     0.024 C 
BRANCH  13  14
HETATM   14  C2  UNL     1      20.214  40.108  90.438  1.00  0.00    -0.003 C 
HETATM   15  C1  UNL     1      20.949  38.785  90.450  1.00  0.00     0.005 C 
ENDBRANCH  13  14
ENDBRANCH  11  13
ENDBRANCH   1  11
BRANCH   6  16
HETATM   16  O1  UNL     1      22.738  40.122  96.130  1.00  0.00    -0.385 OA
ATOM     17  H1  UNL     1      22.920  40.749  96.821  1.00  0.00     0.210 HD
ENDBRANCH   6  16
TORSDOF 4
ENDMDL
MODEL 4
REMARK VINA RESULT: -4.742420722      4.104      5.401
REMARK  4 active torsions:
REMARK  status: ('A' for Active; 'I' for Inactive)
REMARK    1  A    between atoms: C2_2  and  C3_3 
REMARK    2  A    between atoms: C3_3  and  C4_4 
REMARK    3  A    between atoms: C4_4  and  N1_6 
REMARK    4  A    between atoms: C8_11  and  O1_12 
ROOT
HETATM    1  N1  UNL     1      21.008  42.036  92.242  1.00  0.00    -0.361 N 
HETATM    2  C6  UNL     1      20.329  43.053  91.423  1.00  0.00     0.170 C 
HETATM    3  C7  UNL     1      20.041  42.254  90.168  1.00  0.00     0.161 C 
HETATM    4 CL1  UNL     1      18.816  43.007  89.155  1.00  0.00    -0.097 Cl
HETATM    5 CL2  UNL     1      21.576  42.016  89.320  1.00  0.00    -0.097 Cl
HETATM    6  C8  UNL     1      19.548  40.950  90.786  1.00  0.00     0.225 C 
HETATM    7  C9  UNL     1      20.546  40.747  91.861  1.00  0.00     0.105 C 
HETATM    8  N2  UNL     1      20.946  39.640  92.377  1.00  0.00    -0.387 N 
ATOM      9  H21 UNL     1      20.614  38.715  92.104  1.00  0.00     0.157 HD
ATOM     10  H22 UNL     1      21.633  39.500  93.118  1.00  0.00     0.157 HD
ENDROOT
BRANCH   1  11
HETATM   11  C4  UNL     1      21.978  42.412  93.251  1.00  0.00     0.081 C 
HETATM   12  C5  UNL     1      22.537  43.804  93.007  1.00  0.00     0.032 C 
BRANCH  11  13
HETATM   13  C3  UNL     1      21.238  42.451  94.575  1.00  0.00     0.024 C 
BRANCH  13  14
HETATM   14  C2  UNL     1      22.164  42.077  95.718  1.00  0.00    -0.003 C 
HETATM   15  C1  UNL     1      22.927  40.831  95.327  1.00  0.00     0.005 C 
ENDBRANCH  13  14
ENDBRANCH  11  13
ENDBRANCH   1  11
BRANCH   6  16
HETATM   16  O1  UNL     1      19.502  39.920  89.875  1.00  0.00    -0.385 OA
ATOM     17  H1  UNL     1      19.305  39.084  90.281  1.00  0.00     0.210 HD
ENDBRANCH   6  16
TORSDOF 4
ENDMDL
MODEL 5
REMARK VINA RESULT: -4.719820361      3.625      4.995
REMARK  4 active torsions:
REMARK  status: ('A' for Active; 'I' for Inactive)
REMARK    1  A    between atoms: C2_2  and  C3_3 
REMARK    2  A    between atoms: C3_3  and  C4_4 
REMARK    3  A    between atoms: C4_4  and  N1_6 
REMARK    4  A    between atoms: C8_11  and  O1_12 
ROOT
HETATM    1  N1  UNL     1      21.556  42.195  92.960  1.00  0.00    -0.361 N 
HETATM    2  C6  UNL     1      20.968  43.214  92.076  1.00  0.00     0.170 C 
HETATM    3  C7  UNL     1      20.382  42.336  90.989  1.00  0.00     0.161 C 
HETATM    4 CL1  UNL     1      19.189  43.179  90.009  1.00  0.00    -0.097 Cl
HETATM    5 CL2  UNL     1      21.727  41.700  90.030  1.00  0.00    -0.097 Cl
HETATM    6  C8  UNL     1      19.750  41.240  91.840  1.00  0.00     0.225 C 
HETATM    7  C9  UNL     1      20.826  40.983  92.823  1.00  0.00     0.105 C 
HETATM    8  N2  UNL     1      21.086  39.893  93.452  1.00  0.00    -0.387 N 
ATOM      9  H21 UNL     1      20.562  39.023  93.354  1.00  0.00     0.157 HD
ATOM     10  H22 UNL     1      21.827  39.716  94.130  1.00  0.00     0.157 HD
ENDROOT
BRANCH   1  11
HETATM   11  C4  UNL     1      22.700  42.498  93.797  1.00  0.00     0.081 C 
HETATM   12  C5  UNL     1      23.331  43.832  93.429  1.00  0.00     0.032 C 
BRANCH  11  13
HETATM   13  C3  UNL     1      22.181  42.623  95.217  1.00  0.00     0.024 C 
BRANCH  13  14
HETATM   14  C2  UNL     1      22.715  41.497  96.083  1.00  0.00    -0.003 C 
HETATM   15  C1  UNL     1      24.221  41.619  96.152  1.00  0.00     0.005 C 
ENDBRANCH  13  14
ENDBRANCH  11  13
ENDBRANCH   1  11
BRANCH   6  16
HETATM   16  O1  UNL     1      19.403  40.133  91.101  1.00  0.00    -0.385 OA
ATOM     17  H1  UNL     1      19.935  39.374  91.311  1.00  0.00     0.210 HD
ENDBRANCH   6  16
TORSDOF 4
ENDMDL
