MODEL 1
REMARK VINA RESULT: -5.142091523      0.000      0.000
REMARK  4 active torsions:
REMARK  status: ('A' for Active; 'I' for Inactive)
REMARK    1  A    between atoms: C1_2  and  N2_4 
REMARK    2  A    between atoms: N2_4  and  N3_6 
REMARK    3  A    between atoms: C2_8  and  C3_9 
REMARK    4  A    between atoms: C3_9  and  C4_12 
ROOT
HETATM    1  N3  UNL     1      20.995  40.455  94.127  1.00  0.00    -0.311 N 
ATOM      2  H3  UNL     1      20.387  41.187  94.496  1.00  0.00     0.185 HD
HETATM    3  C2  UNL     1      22.244  40.561  94.366  1.00  0.00     0.122 C 
ENDROOT
BRANCH   1   4
HETATM    4  N2  UNL     1      20.397  39.441  93.415  1.00  0.00    -0.279 N 
ATOM      5  H2  UNL     1      20.041  38.614  93.894  1.00  0.00     0.189 HD
BRANCH   4   6
HETATM    6  C1  UNL     1      20.283  39.561  92.010  1.00  0.00     0.199 C 
HETATM    7  N1  UNL     1      20.764  38.570  91.111  1.00  0.00    -0.068 NA
HETATM    8  S1  UNL     1      19.568  40.891  91.381  1.00  0.00    -0.043 SA
ENDBRANCH   4   6
ENDBRANCH   1   4
BRANCH   3   9
HETATM    9  C3  UNL     1      22.838  41.682  95.141  1.00  0.00     0.150 C 
HETATM   10 CL1  UNL     1      21.497  42.584  95.884  1.00  0.00    -0.095 Cl
HETATM   11 CL2  UNL     1      23.802  40.946  96.441  1.00  0.00    -0.095 Cl
BRANCH   9  12
HETATM   12  C4  UNL     1      23.718  42.542  94.308  1.00  0.00     0.030 A 
HETATM   13  C5  UNL     1      23.296  43.806  93.710  1.00  0.00     0.008 A 
HETATM   14  C6  UNL     1      24.147  43.852  94.943  1.00  0.00     0.008 A 
ENDBRANCH   9  12
ENDBRANCH   3   9
TORSDOF 4
ENDMDL
MODEL 2
REMARK VINA RESULT: -5.001904004      3.651      4.521
REMARK  4 active torsions:
REMARK  status: ('A' for Active; 'I' for Inactive)
REMARK    1  A    between atoms: C1_2  and  N2_4 
REMARK    2  A    between atoms: N2_4  and  N3_6 
REMARK    3  A    between atoms: C2_8  and  C3_9 
REMARK    4  A    between atoms: C3_9  and  C4_12 
ROOT
HETATM    1  N3  UNL     1      22.481  41.109  93.862  1.00  0.00    -0.311 N 
ATOM      2  H3  UNL     1      23.316  41.350  93.327  1.00  0.00     0.185 HD
HETATM    3  C2  UNL     1      21.373  41.598  93.461  1.00  0.00     0.122 C 
ENDROOT
BRANCH   1   4
HETATM    4  N2  UNL     1      22.649  40.286  94.951  1.00  0.00    -0.279 N 
ATOM      5  H2  UNL     1      22.287  39.333  94.940  1.00  0.00     0.189 HD
BRANCH   4   6
HETATM    6  C1  UNL     1      23.331  40.781  96.088  1.00  0.00     0.199 C 
HETATM    7  N1  UNL     1      22.874  40.561  97.417  1.00  0.00    -0.068 NA
HETATM    8  S1  UNL     1      24.706  41.642  95.879  1.00  0.00    -0.043 SA
ENDBRANCH   4   6
ENDBRANCH   1   4
BRANCH   3   9
HETATM    9  C3  UNL     1      21.249  42.485  92.275  1.00  0.00     0.150 C 
HETATM   10 CL1  UNL     1      21.844  41.576  90.867  1.00  0.00    -0.095 Cl
HETATM   11 CL2  UNL     1      19.513  42.789  92.047  1.00  0.00    -0.095 Cl
BRANCH   9  12
HETATM   12  C4  UNL     1      21.951  43.781  92.462  1.00  0.00     0.030 A 
HETATM   13  C5  UNL     1      23.272  44.081  91.916  1.00  0.00     0.008 A 
HETATM   14  C6  UNL     1      22.071  44.648  91.222  1.00  0.00     0.008 A 
ENDBRANCH   9  12
ENDBRANCH   3   9
TORSDOF 4
ENDMDL
MODEL 3
REMARK VINA RESULT: -4.946549311      3.677      4.749
REMARK  4 active torsions:
REMARK  status: ('A' for Active; 'I' for Inactive)
REMARK    1  A    between atoms: C1_2  and  N2_4 
REMARK    2  A    between atoms: N2_4  and  N3_6 
REMARK    3  A    between atoms: C2_8  and  C3_9 
REMARK    4  A    between atoms: C3_9  and  C4_12 
ROOT
HETATM    1  N3  UNL     1      22.133  40.832  93.932  1.00  0.00    -0.311 N 
ATOM      2  H3  UNL     1      22.510  41.767  93.776  1.00  0.00     0.185 HD
HETATM    3  C2  UNL     1      21.226  40.429  93.130  1.00  0.00     0.122 C 
ENDROOT
BRANCH   1   4
HETATM    4  N2  UNL     1      22.649  40.115  94.987  1.00  0.00    -0.279 N 
ATOM      5  H2  UNL     1      22.559  39.099  95.016  1.00  0.00     0.189 HD
BRANCH   4   6
HETATM    6  C1  UNL     1      23.306  40.806  96.032  1.00  0.00     0.199 C 
HETATM    7  N1  UNL     1      22.958  40.643  97.401  1.00  0.00    -0.068 NA
HETATM    8  S1  UNL     1      24.520  41.839  95.663  1.00  0.00    -0.043 SA
ENDBRANCH   4   6
ENDBRANCH   1   4
BRANCH   3   9
HETATM    9  C3  UNL     1      20.703  41.247  92.005  1.00  0.00     0.150 C 
HETATM   10 CL1  UNL     1      21.653  40.830  90.559  1.00  0.00    -0.095 Cl
HETATM   11 CL2  UNL     1      19.025  40.730  91.736  1.00  0.00    -0.095 Cl
BRANCH   9  12
HETATM   12  C4  UNL     1      20.724  42.702  92.306  1.00  0.00     0.030 A 
HETATM   13  C5  UNL     1      21.710  43.635  91.767  1.00  0.00     0.008 A 
HETATM   14  C6  UNL     1      20.341  43.616  91.156  1.00  0.00     0.008 A 
ENDBRANCH   9  12
ENDBRANCH   3   9
TORSDOF 4
ENDMDL
MODEL 4
REMARK VINA RESULT: -4.883050758      3.469      4.747
REMARK  4 active torsions:
REMARK  status: ('A' for Active; 'I' for Inactive)
REMARK    1  A    between atoms: C1_2  and  N2_4 
REMARK    2  A    between atoms: N2_4  and  N3_6 
REMARK    3  A    between atoms: C2_8  and  C3_9 
REMARK    4  A    between atoms: C3_9  and  C4_12 
ROOT
HETATM    1  N3  UNL     1      22.354  40.940  93.771  1.00  0.00    -0.311 N 
ATOM      2  H3  UNL     1      23.079  40.888  93.055  1.00  0.00     0.185 HD
HETATM    3  C2  UNL     1      21.336  41.666  93.517  1.00  0.00     0.122 C 
ENDROOT
BRANCH   1   4
HETATM    4  N2  UNL     1      22.559  40.220  94.925  1.00  0.00    -0.279 N 
ATOM      5  H2  UNL     1      22.195  39.271  95.015  1.00  0.00     0.189 HD
BRANCH   4   6
HETATM    6  C1  UNL     1      23.281  40.814  95.987  1.00  0.00     0.199 C 
HETATM    7  N1  UNL     1      22.928  40.636  97.353  1.00  0.00    -0.068 NA
HETATM    8  S1  UNL     1      24.579  41.747  95.642  1.00  0.00    -0.043 SA
ENDBRANCH   4   6
ENDBRANCH   1   4
BRANCH   3   9
HETATM    9  C3  UNL     1      21.166  42.426  92.250  1.00  0.00     0.150 C 
HETATM   10 CL1  UNL     1      19.437  42.816  92.092  1.00  0.00    -0.095 Cl
HETATM   11 CL2  UNL     1      22.064  43.947  92.445  1.00  0.00    -0.095 Cl
BRANCH   9  12
HETATM   12  C4  UNL     1      21.699  41.691  91.074  1.00  0.00     0.030 A 
HETATM   13  C5  UNL     1      20.916  40.757  90.269  1.00  0.00     0.008 A 
HETATM   14  C6  UNL     1      21.161  42.132  89.725  1.00  0.00     0.008 A 
ENDBRANCH   9  12
ENDBRANCH   3   9
TORSDOF 4
ENDMDL
MODEL 5
REMARK VINA RESULT: -4.879613213      4.118      5.227
REMARK  4 active torsions:
REMARK  status: ('A' for Active; 'I' for Inactive)
REMARK    1  A    between atoms: C1_2  and  N2_4 
REMARK    2  A    between atoms: N2_4  and  N3_6 
REMARK    3  A    between atoms: C2_8  and  C3_9 
REMARK    4  A    between atoms: C3_9  and  C4_12 
ROOT
HETATM    1  N3  UNL     1      24.222  41.020  95.067  1.00  0.00    -0.311 N 
ATOM      2  H3  UNL     1      23.661  40.257  95.448  1.00  0.00     0.185 HD
HETATM    3  C2  UNL     1      23.601  41.944  94.445  1.00  0.00     0.122 C 
ENDROOT
BRANCH   1   4
HETATM    4  N2  UNL     1      25.581  40.961  95.270  1.00  0.00    -0.279 N 
ATOM      5  H2  UNL     1      26.175  40.416  94.644  1.00  0.00     0.189 HD
BRANCH   4   6
HETATM    6  C1  UNL     1      26.146  41.668  96.358  1.00  0.00     0.199 C 
HETATM    7  N1  UNL     1      25.363  42.208  97.415  1.00  0.00    -0.068 NA
HETATM    8  S1  UNL     1      27.767  41.879  96.414  1.00  0.00    -0.043 SA
ENDBRANCH   4   6
ENDBRANCH   1   4
BRANCH   3   9
HETATM    9  C3  UNL     1      22.127  41.956  94.253  1.00  0.00     0.150 C 
HETATM   10 CL1  UNL     1      21.613  40.275  93.980  1.00  0.00    -0.095 Cl
HETATM   11 CL2  UNL     1      21.419  42.512  95.786  1.00  0.00    -0.095 Cl
BRANCH   9  12
HETATM   12  C4  UNL     1      21.706  42.871  93.160  1.00  0.00     0.030 A 
HETATM   13  C5  UNL     1      21.645  42.489  91.752  1.00  0.00     0.008 A 
HETATM   14  C6  UNL     1      20.363  42.560  92.525  1.00  0.00     0.008 A 
ENDBRANCH   9  12
ENDBRANCH   3   9
TORSDOF 4
ENDMDL
