MODEL 1
REMARK VINA RESULT: -5.616466364      0.000      0.000
REMARK  3 active torsions:
REMARK  status: ('A' for Active; 'I' for Inactive)
REMARK    1  A    between atoms: C2_2  and  C4_4 
REMARK    2  A    between atoms: C6_8  and  C7_9 
REMARK    3  A    between atoms: C9_12  and  C10_13 
ROOT
HETATM    1  C4  UNL     1      21.655  43.314  91.420  1.00  0.00     0.035 C 
HETATM    2  C5  UNL     1      20.157  43.117  91.461  1.00  0.00     0.133 C 
HETATM    3  N1  UNL     1      19.739  41.887  92.037  1.00  0.00    -0.394 N 
ATOM      4  H1  UNL     1      18.754  41.641  92.127  1.00  0.00     0.155 HD
HETATM    5  C6  UNL     1      20.788  41.008  92.485  1.00  0.00     0.127 C 
HETATM    6  C8  UNL     1      21.428  41.415  93.763  1.00  0.00     0.063 C 
HETATM    7  C9  UNL     1      22.532  42.436  93.611  1.00  0.00     0.019 C 
HETATM    8  C11 UNL     1      22.120  43.635  92.801  1.00  0.00     0.026 C 
HETATM    9  N2  UNL     1      21.781  40.975  91.395  1.00  0.00    -0.353 N 
ATOM     10  H2  UNL     1      22.130  40.078  91.056  1.00  0.00     0.163 HD
HETATM   11  C12 UNL     1      22.213  42.067  90.867  1.00  0.00     0.101 C 
HETATM   12  N3  UNL     1      23.163  42.140  89.816  1.00  0.00    -0.087 NA
ENDROOT
BRANCH   1  13
HETATM   13  C2  UNL     1      21.988  44.474  90.509  1.00  0.00    -0.006 C 
HETATM   14  C1  UNL     1      22.767  45.550  91.169  1.00  0.00     0.011 C 
HETATM   15  C3  UNL     1      20.778  45.045  89.837  1.00  0.00     0.011 C 
ENDBRANCH   1  13
BRANCH   7  16
HETATM   16  C10 UNL     1      22.822  42.967  95.021  1.00  0.00     0.227 C 
HETATM   17  F2  UNL     1      21.704  42.899  95.819  1.00  0.00    -0.255 F 
ENDBRANCH   7  16
BRANCH   5  18
HETATM   18  C7  UNL     1      20.238  39.597  92.556  1.00  0.00     0.275 C 
HETATM   19  F1  UNL     1      20.739  38.787  91.559  1.00  0.00    -0.251 F 
ENDBRANCH   5  18
TORSDOF 3
ENDMDL
MODEL 2
REMARK VINA RESULT: -5.418383999      4.019      5.913
REMARK  3 active torsions:
REMARK  status: ('A' for Active; 'I' for Inactive)
REMARK    1  A    between atoms: C2_2  and  C4_4 
REMARK    2  A    between atoms: C6_8  and  C7_9 
REMARK    3  A    between atoms: C9_12  and  C10_13 
ROOT
HETATM    1  C4  UNL     1      26.147  42.417  95.445  1.00  0.00     0.035 C 
HETATM    2  C5  UNL     1      25.923  41.250  94.513  1.00  0.00     0.133 C 
HETATM    3  N1  UNL     1      24.561  41.000  94.195  1.00  0.00    -0.394 N 
ATOM      4  H1  UNL     1      24.282  40.243  93.571  1.00  0.00     0.155 HD
HETATM    5  C6  UNL     1      23.597  41.877  94.808  1.00  0.00     0.127 C 
HETATM    6  C8  UNL     1      23.516  43.228  94.193  1.00  0.00     0.063 C 
HETATM    7  C9  UNL     1      24.540  44.211  94.710  1.00  0.00     0.019 C 
HETATM    8  C11 UNL     1      25.946  43.677  94.670  1.00  0.00     0.026 C 
HETATM    9  N2  UNL     1      23.984  41.975  96.227  1.00  0.00    -0.353 N 
ATOM     10  H2  UNL     1      23.281  41.838  96.953  1.00  0.00     0.163 HD
HETATM   11  C12 UNL     1      25.201  42.233  96.559  1.00  0.00     0.101 C 
HETATM   12  N3  UNL     1      25.671  42.346  97.893  1.00  0.00    -0.087 NA
ENDROOT
BRANCH   1  13
HETATM   13  C2  UNL     1      27.566  42.384  95.966  1.00  0.00    -0.006 C 
HETATM   14  C1  UNL     1      28.404  43.516  95.496  1.00  0.00     0.011 C 
HETATM   15  C3  UNL     1      28.251  41.082  95.692  1.00  0.00     0.011 C 
ENDBRANCH   1  13
BRANCH   7  16
HETATM   16  C10 UNL     1      24.520  45.401  93.742  1.00  0.00     0.227 C 
HETATM   17  F2  UNL     1      23.473  45.305  92.856  1.00  0.00    -0.255 F 
ENDBRANCH   7  16
BRANCH   5  18
HETATM   18  C7  UNL     1      22.249  41.182  94.816  1.00  0.00     0.275 C 
HETATM   19  F1  UNL     1      21.376  41.741  95.726  1.00  0.00    -0.251 F 
ENDBRANCH   5  18
TORSDOF 3
ENDMDL
MODEL 3
REMARK VINA RESULT: -5.365472898      1.416      1.694
REMARK  3 active torsions:
REMARK  status: ('A' for Active; 'I' for Inactive)
REMARK    1  A    between atoms: C2_2  and  C4_4 
REMARK    2  A    between atoms: C6_8  and  C7_9 
REMARK    3  A    between atoms: C9_12  and  C10_13 
ROOT
HETATM    1  C4  UNL     1      22.668  43.820  91.929  1.00  0.00     0.035 C 
HETATM    2  C5  UNL     1      21.378  44.284  91.293  1.00  0.00     0.133 C 
HETATM    3  N1  UNL     1      20.405  43.263  91.120  1.00  0.00    -0.394 N 
ATOM      4  H1  UNL     1      19.491  43.453  90.708  1.00  0.00     0.155 HD
HETATM    5  C6  UNL     1      20.784  41.946  91.560  1.00  0.00     0.127 C 
HETATM    6  C8  UNL     1      20.753  41.756  93.034  1.00  0.00     0.063 C 
HETATM    7  C9  UNL     1      22.007  42.209  93.747  1.00  0.00     0.019 C 
HETATM    8  C11 UNL     1      22.419  43.610  93.385  1.00  0.00     0.026 C 
HETATM    9  N2  UNL     1      22.143  41.720  91.036  1.00  0.00    -0.353 N 
ATOM     10  H2  UNL     1      22.356  40.855  90.539  1.00  0.00     0.163 HD
HETATM   11  C12 UNL     1      23.065  42.604  91.199  1.00  0.00     0.101 C 
HETATM   12  N3  UNL     1      24.398  42.480  90.732  1.00  0.00    -0.087 NA
ENDROOT
BRANCH   1  13
HETATM   13  C2  UNL     1      23.726  44.888  91.762  1.00  0.00    -0.006 C 
HETATM   14  C1  UNL     1      24.291  45.377  93.044  1.00  0.00     0.011 C 
HETATM   15  C3  UNL     1      23.258  46.039  90.927  1.00  0.00     0.011 C 
ENDBRANCH   1  13
BRANCH   7  16
HETATM   16  C10 UNL     1      21.659  42.252  95.240  1.00  0.00     0.227 C 
HETATM   17  F2  UNL     1      22.308  43.286  95.874  1.00  0.00    -0.255 F 
ENDBRANCH   7  16
BRANCH   5  18
HETATM   18  C7  UNL     1      19.914  40.929  90.845  1.00  0.00     0.275 C 
HETATM   19  F1  UNL     1      18.801  40.582  91.581  1.00  0.00    -0.251 F 
ENDBRANCH   5  18
TORSDOF 3
ENDMDL
MODEL 4
REMARK VINA RESULT: -5.314589638      1.459      1.555
REMARK  3 active torsions:
REMARK  status: ('A' for Active; 'I' for Inactive)
REMARK    1  A    between atoms: C2_2  and  C4_4 
REMARK    2  A    between atoms: C6_8  and  C7_9 
REMARK    3  A    between atoms: C9_12  and  C10_13 
ROOT
HETATM    1  C4  UNL     1      21.002  43.181  91.027  1.00  0.00     0.035 C 
HETATM    2  C5  UNL     1      19.722  42.852  91.758  1.00  0.00     0.133 C 
HETATM    3  N1  UNL     1      19.845  41.824  92.732  1.00  0.00    -0.394 N 
ATOM      4  H1  UNL     1      19.052  41.517  93.296  1.00  0.00     0.155 HD
HETATM    5  C6  UNL     1      21.153  41.240  92.874  1.00  0.00     0.127 C 
HETATM    6  C8  UNL     1      22.128  42.086  93.613  1.00  0.00     0.063 C 
HETATM    7  C9  UNL     1      22.828  43.119  92.760  1.00  0.00     0.019 C 
HETATM    8  C11 UNL     1      21.879  43.960  91.950  1.00  0.00     0.026 C 
HETATM    9  N2  UNL     1      21.629  40.975  91.504  1.00  0.00    -0.353 N 
ATOM     10  H2  UNL     1      22.011  40.059  91.271  1.00  0.00     0.163 HD
HETATM   11  C12 UNL     1      21.567  41.889  90.600  1.00  0.00     0.101 C 
HETATM   12  N3  UNL     1      21.997  41.731  89.257  1.00  0.00    -0.087 NA
ENDROOT
BRANCH   1  13
HETATM   13  C2  UNL     1      20.689  44.030  89.816  1.00  0.00    -0.006 C 
HETATM   14  C1  UNL     1      21.281  45.390  89.869  1.00  0.00     0.011 C 
HETATM   15  C3  UNL     1      19.222  44.112  89.532  1.00  0.00     0.011 C 
ENDBRANCH   1  13
BRANCH   7  16
HETATM   16  C10 UNL     1      23.512  44.087  93.733  1.00  0.00     0.227 C 
HETATM   17  F2  UNL     1      23.650  45.337  93.179  1.00  0.00    -0.255 F 
ENDBRANCH   7  16
BRANCH   5  18
HETATM   18  C7  UNL     1      21.004  39.871  93.510  1.00  0.00     0.275 C 
HETATM   19  F1  UNL     1      20.011  39.122  92.914  1.00  0.00    -0.251 F 
ENDBRANCH   5  18
TORSDOF 3
ENDMDL
MODEL 5
REMARK VINA RESULT: -5.286269140      3.284      4.687
REMARK  3 active torsions:
REMARK  status: ('A' for Active; 'I' for Inactive)
REMARK    1  A    between atoms: C2_2  and  C4_4 
REMARK    2  A    between atoms: C6_8  and  C7_9 
REMARK    3  A    between atoms: C9_12  and  C10_13 
ROOT
HETATM    1  C4  UNL     1      24.223  43.916  93.397  1.00  0.00     0.035 C 
HETATM    2  C5  UNL     1      24.981  42.808  92.703  1.00  0.00     0.133 C 
HETATM    3  N1  UNL     1      25.514  41.821  93.575  1.00  0.00    -0.394 N 
ATOM      4  H1  UNL     1      26.040  41.020  93.226  1.00  0.00     0.155 HD
HETATM    5  C6  UNL     1      25.270  42.019  94.980  1.00  0.00     0.127 C 
HETATM    6  C8  UNL     1      23.887  41.690  95.417  1.00  0.00     0.063 C 
HETATM    7  C9  UNL     1      22.889  42.809  95.223  1.00  0.00     0.019 C 
HETATM    8  C11 UNL     1      22.901  43.375  93.829  1.00  0.00     0.026 C 
HETATM    9  N2  UNL     1      25.575  43.437  95.248  1.00  0.00    -0.353 N 
ATOM     10  H2  UNL     1      26.180  43.684  96.031  1.00  0.00     0.163 HD
HETATM   11  C12 UNL     1      25.086  44.366  94.503  1.00  0.00     0.101 C 
HETATM   12  N3  UNL     1      25.322  45.753  94.677  1.00  0.00    -0.087 NA
ENDROOT
BRANCH   1  13
HETATM   13  C2  UNL     1      23.993  45.055  92.429  1.00  0.00    -0.006 C 
HETATM   14  C1  UNL     1      22.663  45.025  91.773  1.00  0.00     0.011 C 
HETATM   15  C3  UNL     1      25.077  45.166  91.402  1.00  0.00     0.011 C 
ENDBRANCH   1  13
BRANCH   7  16
HETATM   16  C10 UNL     1      21.501  42.181  95.403  1.00  0.00     0.227 C 
HETATM   17  F2  UNL     1      20.658  42.533  94.376  1.00  0.00    -0.255 F 
ENDBRANCH   7  16
BRANCH   5  18
HETATM   18  C7  UNL     1      26.307  41.240  95.765  1.00  0.00     0.275 C 
HETATM   19  F1  UNL     1      26.558  41.798  97.001  1.00  0.00    -0.251 F 
ENDBRANCH   5  18
TORSDOF 3
ENDMDL
