MODEL 1
REMARK VINA RESULT: -5.743946218      0.000      0.000
REMARK  4 active torsions:
REMARK  status: ('A' for Active; 'I' for Inactive)
REMARK    1  A    between atoms: O1_2  and  C2_3 
REMARK    2  A    between atoms: N2_7  and  C4_9 
REMARK    3  A    between atoms: C4_9  and  C5_10 
REMARK    4  A    between atoms: C5_10  and  O2_11 
ROOT
HETATM    1  C2  UNL     1      20.511  42.822  92.089  1.00  0.00     0.167 A 
HETATM    2  N1  UNL     1      21.017  42.446  93.285  1.00  0.00    -0.321 N 
ATOM      3  H1  UNL     1      20.530  41.713  93.801  1.00  0.00     0.169 HD
HETATM    4  C3  UNL     1      22.113  42.971  93.834  1.00  0.00     0.110 A 
HETATM    5  N2  UNL     1      22.617  42.643  94.952  1.00  0.00    -0.374 N 
ATOM      6  H2  UNL     1      23.462  43.138  95.237  1.00  0.00     0.161 HD
HETATM    7  C6  UNL     1      22.780  43.977  93.125  1.00  0.00     0.005 A 
HETATM    8  C7  UNL     1      24.014  44.616  93.672  1.00  0.00     0.054 C 
HETATM    9  C8  UNL     1      22.314  44.404  91.902  1.00  0.00     0.069 A 
HETATM   10 CL1  UNL     1      23.147  45.675  90.994  1.00  0.00    -0.082 Cl
HETATM   11  C9  UNL     1      21.183  43.810  91.413  1.00  0.00     0.107 A 
HETATM   12 CL2  UNL     1      20.572  44.332  89.865  1.00  0.00    -0.078 Cl
ENDROOT
BRANCH   5  13
HETATM   13  C4  UNL     1      22.121  41.652  95.850  1.00  0.00     0.147 C 
BRANCH  13  14
HETATM   14  C5  UNL     1      23.279  40.995  96.580  1.00  0.00     0.183 C 
BRANCH  14  15
HETATM   15  O2  UNL     1      22.856  40.616  97.846  1.00  0.00    -0.399 OA
ATOM     16  H2  UNL     1      22.955  41.352  98.438  1.00  0.00     0.209 HD
ENDBRANCH  14  15
ENDBRANCH  13  14
ENDBRANCH   5  13
BRANCH   1  17
HETATM   17  O1  UNL     1      19.362  42.234  91.569  1.00  0.00    -0.339 OA
HETATM   18  C1  UNL     1      19.452  40.921  91.047  1.00  0.00     0.211 C 
ENDBRANCH   1  17
TORSDOF 4
ENDMDL
MODEL 2
REMARK VINA RESULT: -5.665320868      1.732      2.074
REMARK  4 active torsions:
REMARK  status: ('A' for Active; 'I' for Inactive)
REMARK    1  A    between atoms: O1_2  and  C2_3 
REMARK    2  A    between atoms: N2_7  and  C4_9 
REMARK    3  A    between atoms: C4_9  and  C5_10 
REMARK    4  A    between atoms: C5_10  and  O2_11 
ROOT
HETATM    1  C2  UNL     1      20.780  40.434  91.598  1.00  0.00     0.167 A 
HETATM    2  N1  UNL     1      21.435  40.474  92.781  1.00  0.00    -0.321 N 
ATOM      3  H1  UNL     1      21.499  39.612  93.321  1.00  0.00     0.169 HD
HETATM    4  C3  UNL     1      22.002  41.569  93.287  1.00  0.00     0.110 A 
HETATM    5  N2  UNL     1      22.624  41.644  94.391  1.00  0.00    -0.374 N 
ATOM      6  H2  UNL     1      23.004  42.557  94.642  1.00  0.00     0.161 HD
HETATM    7  C6  UNL     1      21.913  42.753  92.545  1.00  0.00     0.005 A 
HETATM    8  C7  UNL     1      22.522  44.022  93.042  1.00  0.00     0.054 C 
HETATM    9  C8  UNL     1      21.260  42.776  91.333  1.00  0.00     0.069 A 
HETATM   10 CL1  UNL     1      21.138  44.266  90.383  1.00  0.00    -0.082 Cl
HETATM   11  C9  UNL     1      20.707  41.607  90.889  1.00  0.00     0.107 A 
HETATM   12 CL2  UNL     1      19.874  41.609  89.357  1.00  0.00    -0.078 Cl
ENDROOT
BRANCH   5  13
HETATM   13  C4  UNL     1      22.845  40.582  95.317  1.00  0.00     0.147 C 
BRANCH  13  14
HETATM   14  C5  UNL     1      23.496  41.124  96.575  1.00  0.00     0.183 C 
BRANCH  14  15
HETATM   15  O2  UNL     1      22.782  40.680  97.679  1.00  0.00    -0.399 OA
ATOM     16  H2  UNL     1      23.256  39.964  98.086  1.00  0.00     0.209 HD
ENDBRANCH  14  15
ENDBRANCH  13  14
ENDBRANCH   5  13
BRANCH   1  17
HETATM   17  O1  UNL     1      20.209  39.257  91.124  1.00  0.00    -0.339 OA
HETATM   18  C1  UNL     1      20.991  38.410  90.302  1.00  0.00     0.211 C 
ENDBRANCH   1  17
TORSDOF 4
ENDMDL
MODEL 3
REMARK VINA RESULT: -5.593808201      1.918      3.345
REMARK  4 active torsions:
REMARK  status: ('A' for Active; 'I' for Inactive)
REMARK    1  A    between atoms: O1_2  and  C2_3 
REMARK    2  A    between atoms: N2_7  and  C4_9 
REMARK    3  A    between atoms: C4_9  and  C5_10 
REMARK    4  A    between atoms: C5_10  and  O2_11 
ROOT
HETATM    1  C2  UNL     1      21.611  43.347  91.949  1.00  0.00     0.167 A 
HETATM    2  N1  UNL     1      21.719  42.858  93.205  1.00  0.00    -0.321 N 
ATOM      3  H1  UNL     1      22.119  43.464  93.921  1.00  0.00     0.169 HD
HETATM    4  C3  UNL     1      21.336  41.634  93.568  1.00  0.00     0.110 A 
HETATM    5  N2  UNL     1      21.422  41.141  94.735  1.00  0.00    -0.374 N 
ATOM      6  H2  UNL     1      21.085  40.186  94.855  1.00  0.00     0.161 HD
HETATM    7  C6  UNL     1      20.788  40.802  92.584  1.00  0.00     0.005 A 
HETATM    8  C7  UNL     1      20.336  39.418  92.910  1.00  0.00     0.054 C 
HETATM    9  C8  UNL     1      20.652  41.243  91.286  1.00  0.00     0.069 A 
HETATM   10 CL1  UNL     1      19.962  40.203  90.031  1.00  0.00    -0.082 Cl
HETATM   11  C9  UNL     1      21.071  42.514  91.002  1.00  0.00     0.107 A 
HETATM   12 CL2  UNL     1      20.909  43.096  89.366  1.00  0.00    -0.078 Cl
ENDROOT
BRANCH   5  13
HETATM   13  C4  UNL     1      21.941  41.789  95.895  1.00  0.00     0.147 C 
BRANCH  13  14
HETATM   14  C5  UNL     1      23.101  40.987  96.455  1.00  0.00     0.183 C 
BRANCH  14  15
HETATM   15  O2  UNL     1      22.822  40.649  97.771  1.00  0.00    -0.399 OA
ATOM     16  H2  UNL     1      22.610  39.724  97.814  1.00  0.00     0.209 HD
ENDBRANCH  14  15
ENDBRANCH  13  14
ENDBRANCH   5  13
BRANCH   1  17
HETATM   17  O1  UNL     1      22.030  44.636  91.633  1.00  0.00    -0.339 OA
HETATM   18  C1  UNL     1      23.278  45.082  92.133  1.00  0.00     0.211 C 
ENDBRANCH   1  17
TORSDOF 4
ENDMDL
MODEL 4
REMARK VINA RESULT: -5.480607863      1.676      1.753
REMARK  4 active torsions:
REMARK  status: ('A' for Active; 'I' for Inactive)
REMARK    1  A    between atoms: O1_2  and  C2_3 
REMARK    2  A    between atoms: N2_7  and  C4_9 
REMARK    3  A    between atoms: C4_9  and  C5_10 
REMARK    4  A    between atoms: C5_10  and  O2_11 
ROOT
HETATM    1  C2  UNL     1      21.167  41.588  92.897  1.00  0.00     0.167 A 
HETATM    2  N1  UNL     1      22.134  41.574  93.843  1.00  0.00    -0.321 N 
ATOM      3  H1  UNL     1      22.170  40.776  94.477  1.00  0.00     0.169 HD
HETATM    4  C3  UNL     1      23.043  42.537  94.000  1.00  0.00     0.110 A 
HETATM    5  N2  UNL     1      23.963  42.558  94.875  1.00  0.00    -0.374 N 
ATOM      6  H2  UNL     1      24.584  43.367  94.868  1.00  0.00     0.161 HD
HETATM    7  C6  UNL     1      22.991  43.632  93.130  1.00  0.00     0.005 A 
HETATM    8  C7  UNL     1      23.972  44.751  93.241  1.00  0.00     0.054 C 
HETATM    9  C8  UNL     1      22.030  43.704  92.146  1.00  0.00     0.069 A 
HETATM   10 CL1  UNL     1      21.951  45.083  91.039  1.00  0.00    -0.082 Cl
HETATM   11  C9  UNL     1      21.137  42.672  92.056  1.00  0.00     0.107 A 
HETATM   12 CL2  UNL     1      19.910  42.739  90.819  1.00  0.00    -0.078 Cl
ENDROOT
BRANCH   5  13
HETATM   13  C4  UNL     1      24.217  41.563  95.865  1.00  0.00     0.147 C 
BRANCH  13  14
HETATM   14  C5  UNL     1      25.602  41.765  96.452  1.00  0.00     0.183 C 
BRANCH  14  15
HETATM   15  O2  UNL     1      25.478  42.322  97.717  1.00  0.00    -0.399 OA
ATOM     16  H2  UNL     1      26.077  43.057  97.791  1.00  0.00     0.209 HD
ENDBRANCH  14  15
ENDBRANCH  13  14
ENDBRANCH   5  13
BRANCH   1  17
HETATM   17  O1  UNL     1      20.247  40.551  92.785  1.00  0.00    -0.339 OA
HETATM   18  C1  UNL     1      20.607  39.408  92.031  1.00  0.00     0.211 C 
ENDBRANCH   1  17
TORSDOF 4
ENDMDL
MODEL 5
REMARK VINA RESULT: -5.438708373      2.146      4.398
REMARK  4 active torsions:
REMARK  status: ('A' for Active; 'I' for Inactive)
REMARK    1  A    between atoms: O1_2  and  C2_3 
REMARK    2  A    between atoms: N2_7  and  C4_9 
REMARK    3  A    between atoms: C4_9  and  C5_10 
REMARK    4  A    between atoms: C5_10  and  O2_11 
ROOT
HETATM    1  C2  UNL     1      24.068  43.313  94.744  1.00  0.00     0.167 A 
HETATM    2  N1  UNL     1      23.156  42.388  94.368  1.00  0.00    -0.321 N 
ATOM      3  H1  UNL     1      23.060  41.550  94.942  1.00  0.00     0.169 HD
HETATM    4  C3  UNL     1      22.373  42.500  93.295  1.00  0.00     0.110 A 
HETATM    5  N2  UNL     1      21.507  41.655  92.912  1.00  0.00    -0.374 N 
ATOM      6  H2  UNL     1      20.984  41.885  92.067  1.00  0.00     0.161 HD
HETATM    7  C6  UNL     1      22.506  43.650  92.507  1.00  0.00     0.005 A 
HETATM    8  C7  UNL     1      21.667  43.851  91.289  1.00  0.00     0.054 C 
HETATM    9  C8  UNL     1      23.417  44.628  92.838  1.00  0.00     0.069 A 
HETATM   10 CL1  UNL     1      23.598  46.087  91.851  1.00  0.00    -0.082 Cl
HETATM   11  C9  UNL     1      24.180  44.431  93.956  1.00  0.00     0.107 A 
HETATM   12 CL2  UNL     1      25.342  45.654  94.397  1.00  0.00    -0.078 Cl
ENDROOT
BRANCH   5  13
HETATM   13  C4  UNL     1      21.191  40.416  93.544  1.00  0.00     0.147 C 
BRANCH  13  14
HETATM   14  C5  UNL     1      20.459  39.513  92.568  1.00  0.00     0.183 C 
BRANCH  14  15
HETATM   15  O2  UNL     1      19.343  38.981  93.197  1.00  0.00    -0.399 OA
ATOM     16  H2  UNL     1      18.735  39.684  93.394  1.00  0.00     0.209 HD
ENDBRANCH  14  15
ENDBRANCH  13  14
ENDBRANCH   5  13
BRANCH   1  17
HETATM   17  O1  UNL     1      24.857  43.136  95.877  1.00  0.00    -0.339 OA
HETATM   18  C1  UNL     1      25.167  41.816  96.284  1.00  0.00     0.211 C 
ENDBRANCH   1  17
TORSDOF 4
ENDMDL
