MODEL 1
REMARK VINA RESULT: -5.309476321      0.000      0.000
REMARK  4 active torsions:
REMARK  status: ('A' for Active; 'I' for Inactive)
REMARK    1  A    between atoms: N2_5  and  C4_6 
REMARK    2  A    between atoms: C4_6  and  C5_7 
REMARK    3  A    between atoms: C12_15  and  C13_16 
REMARK    4  A    between atoms: C14_17  and  N4_18 
ROOT
HETATM    1  C5  UNL     1      -0.274  42.878  26.663  1.00  0.00    -0.038 A 
HETATM    2  C6  UNL     1      -0.910  44.082  26.482  1.00  0.00     0.009 A 
HETATM    3  C7  UNL     1      -1.574  44.427  25.324  1.00  0.00     0.002 A 
HETATM    4  C8  UNL     1      -1.618  43.524  24.268  1.00  0.00     0.022 A 
HETATM    5  C9  UNL     1      -0.990  42.309  24.421  1.00  0.00     0.045 A 
HETATM    6  C10 UNL     1      -1.049  41.394  23.315  1.00  0.00     0.099 C 
HETATM    7  N3  UNL     1      -1.088  40.650  22.405  1.00  0.00    -0.191 NA
HETATM    8  C11 UNL     1      -0.327  41.985  25.597  1.00  0.00     0.031 A 
ENDROOT
BRANCH   1   9
HETATM    9  C4  UNL     1       0.436  42.508  27.906  1.00  0.00     0.169 C 
BRANCH   9  10
HETATM   10  N2  UNL     1       1.624  43.316  28.127  1.00  0.00    -0.330 N 
HETATM   11  C3  UNL     1       2.603  43.512  27.198  1.00  0.00     0.110 A 
HETATM   12  C2  UNL     1       3.577  44.321  27.734  1.00  0.00     0.110 A 
HETATM   13  N1  UNL     1       3.185  44.613  28.986  1.00  0.00    -0.339 N 
HETATM   14  C1  UNL     1       3.957  45.464  29.908  1.00  0.00     0.158 C 
HETATM   15  C12 UNL     1       2.025  44.009  29.203  1.00  0.00     0.167 A 
BRANCH  15  16
HETATM   16  C13 UNL     1       1.279  44.086  30.442  1.00  0.00    -0.007 C 
HETATM   17  C14 UNL     1       0.673  44.143  31.484  1.00  0.00     0.012 C 
BRANCH  17  18
HETATM   18  N4  UNL     1      -0.010  44.205  32.704  1.00  0.00    -0.359 N 
ATOM     19  H42 UNL     1       0.061  44.663  31.795  1.00  0.00     0.166 HD
ATOM     20  H41 UNL     1      -0.501  44.239  33.598  1.00  0.00     0.166 HD
ENDBRANCH  17  18
ENDBRANCH  15  16
ENDBRANCH   9  10
ENDBRANCH   1   9
TORSDOF 4
ENDMDL
MODEL 2
REMARK VINA RESULT: -5.243559023      2.214      3.634
REMARK  4 active torsions:
REMARK  status: ('A' for Active; 'I' for Inactive)
REMARK    1  A    between atoms: N2_5  and  C4_6 
REMARK    2  A    between atoms: C4_6  and  C5_7 
REMARK    3  A    between atoms: C12_15  and  C13_16 
REMARK    4  A    between atoms: C14_17  and  N4_18 
ROOT
HETATM    1  C5  UNL     1       0.251  42.896  26.946  1.00  0.00    -0.038 A 
HETATM    2  C6  UNL     1       0.439  43.507  25.729  1.00  0.00     0.009 A 
HETATM    3  C7  UNL     1      -0.592  43.988  24.951  1.00  0.00     0.002 A 
HETATM    4  C8  UNL     1      -1.902  43.860  25.398  1.00  0.00     0.022 A 
HETATM    5  C9  UNL     1      -2.121  43.252  26.614  1.00  0.00     0.045 A 
HETATM    6  C10 UNL     1      -3.483  43.132  27.053  1.00  0.00     0.099 C 
HETATM    7  N3  UNL     1      -4.599  43.024  27.407  1.00  0.00    -0.191 NA
HETATM    8  C11 UNL     1      -1.065  42.776  27.380  1.00  0.00     0.031 A 
ENDROOT
BRANCH   1   9
HETATM    9  C4  UNL     1       1.358  42.382  27.782  1.00  0.00     0.169 C 
BRANCH   9  10
HETATM   10  N2  UNL     1       1.786  43.343  28.785  1.00  0.00    -0.330 N 
HETATM   11  C3  UNL     1       1.161  43.533  29.983  1.00  0.00     0.110 A 
HETATM   12  C2  UNL     1       1.821  44.513  30.685  1.00  0.00     0.110 A 
HETATM   13  N1  UNL     1       2.845  44.915  29.912  1.00  0.00    -0.339 N 
HETATM   14  C1  UNL     1       3.806  45.960  30.302  1.00  0.00     0.158 C 
HETATM   15  C12 UNL     1       2.809  44.210  28.788  1.00  0.00     0.167 A 
BRANCH  15  16
HETATM   16  C13 UNL     1       3.754  44.352  27.700  1.00  0.00    -0.007 C 
HETATM   17  C14 UNL     1       4.536  44.452  26.787  1.00  0.00     0.012 C 
BRANCH  17  18
HETATM   18  N4  UNL     1       5.434  44.552  25.718  1.00  0.00    -0.359 N 
ATOM     19  H42 UNL     1       4.661  43.988  26.072  1.00  0.00     0.166 HD
ATOM     20  H41 UNL     1       6.094  44.637  24.944  1.00  0.00     0.166 HD
ENDBRANCH  17  18
ENDBRANCH  15  16
ENDBRANCH   9  10
ENDBRANCH   1   9
TORSDOF 4
ENDMDL
MODEL 3
REMARK VINA RESULT: -5.226250667      2.254      4.417
REMARK  4 active torsions:
REMARK  status: ('A' for Active; 'I' for Inactive)
REMARK    1  A    between atoms: N2_5  and  C4_6 
REMARK    2  A    between atoms: C4_6  and  C5_7 
REMARK    3  A    between atoms: C12_15  and  C13_16 
REMARK    4  A    between atoms: C14_17  and  N4_18 
ROOT
HETATM    1  C5  UNL     1      -1.760  42.462  24.488  1.00  0.00    -0.038 A 
HETATM    2  C6  UNL     1      -2.692  41.756  25.211  1.00  0.00     0.009 A 
HETATM    3  C7  UNL     1      -3.214  40.546  24.807  1.00  0.00     0.002 A 
HETATM    4  C8  UNL     1      -2.792  39.988  23.606  1.00  0.00     0.022 A 
HETATM    5  C9  UNL     1      -1.859  40.672  22.859  1.00  0.00     0.045 A 
HETATM    6  C10 UNL     1      -1.440  40.074  21.622  1.00  0.00     0.099 C 
HETATM    7  N3  UNL     1      -1.105  39.590  20.604  1.00  0.00    -0.191 NA
HETATM    8  C11 UNL     1      -1.348  41.890  23.288  1.00  0.00     0.031 A 
ENDROOT
BRANCH   1   9
HETATM    9  C4  UNL     1      -1.199  43.758  24.923  1.00  0.00     0.169 C 
BRANCH   9  10
HETATM   10  N2  UNL     1      -0.282  43.617  26.042  1.00  0.00    -0.330 N 
HETATM   11  C3  UNL     1      -0.609  43.877  27.340  1.00  0.00     0.110 A 
HETATM   12  C2  UNL     1       0.487  43.644  28.136  1.00  0.00     0.110 A 
HETATM   13  N1  UNL     1       1.476  43.245  27.319  1.00  0.00    -0.339 N 
HETATM   14  C1  UNL     1       2.830  42.893  27.781  1.00  0.00     0.158 C 
HETATM   15  C12 UNL     1       1.003  43.234  26.080  1.00  0.00     0.167 A 
BRANCH  15  16
HETATM   16  C13 UNL     1       1.770  42.855  24.911  1.00  0.00    -0.007 C 
HETATM   17  C14 UNL     1       2.412  42.559  23.934  1.00  0.00     0.012 C 
BRANCH  17  18
HETATM   18  N4  UNL     1       3.164  42.236  22.798  1.00  0.00    -0.359 N 
ATOM     19  H42 UNL     1       2.969  43.000  23.446  1.00  0.00     0.166 HD
ATOM     20  H41 UNL     1       3.706  41.987  21.970  1.00  0.00     0.166 HD
ENDBRANCH  17  18
ENDBRANCH  15  16
ENDBRANCH   9  10
ENDBRANCH   1   9
TORSDOF 4
ENDMDL
MODEL 4
REMARK VINA RESULT: -5.209259472      2.539      4.643
REMARK  4 active torsions:
REMARK  status: ('A' for Active; 'I' for Inactive)
REMARK    1  A    between atoms: N2_5  and  C4_6 
REMARK    2  A    between atoms: C4_6  and  C5_7 
REMARK    3  A    between atoms: C12_15  and  C13_16 
REMARK    4  A    between atoms: C14_17  and  N4_18 
ROOT
HETATM    1  C5  UNL     1      -1.616  42.535  24.549  1.00  0.00    -0.038 A 
HETATM    2  C6  UNL     1      -1.312  41.999  23.321  1.00  0.00     0.009 A 
HETATM    3  C7  UNL     1      -1.815  40.798  22.869  1.00  0.00     0.002 A 
HETATM    4  C8  UNL     1      -2.677  40.070  23.680  1.00  0.00     0.022 A 
HETATM    5  C9  UNL     1      -3.000  40.583  24.917  1.00  0.00     0.045 A 
HETATM    6  C10 UNL     1      -3.893  39.811  25.736  1.00  0.00     0.099 C 
HETATM    7  N3  UNL     1      -4.614  39.174  26.411  1.00  0.00    -0.191 NA
HETATM    8  C11 UNL     1      -2.480  41.795  25.350  1.00  0.00     0.031 A 
ENDROOT
BRANCH   1   9
HETATM    9  C4  UNL     1      -1.079  43.825  25.033  1.00  0.00     0.169 C 
BRANCH   9  10
HETATM   10  N2  UNL     1      -0.136  43.657  26.127  1.00  0.00    -0.330 N 
HETATM   11  C3  UNL     1      -0.421  43.920  27.434  1.00  0.00     0.110 A 
HETATM   12  C2  UNL     1       0.690  43.658  28.200  1.00  0.00     0.110 A 
HETATM   13  N1  UNL     1       1.646  43.236  27.354  1.00  0.00    -0.339 N 
HETATM   14  C1  UNL     1       3.002  42.849  27.779  1.00  0.00     0.158 C 
HETATM   15  C12 UNL     1       1.139  43.242  26.129  1.00  0.00     0.167 A 
BRANCH  15  16
HETATM   16  C13 UNL     1       1.866  42.848  24.939  1.00  0.00    -0.007 C 
HETATM   17  C14 UNL     1       2.469  42.540  23.941  1.00  0.00     0.012 C 
BRANCH  17  18
HETATM   18  N4  UNL     1       3.172  42.202  22.778  1.00  0.00    -0.359 N 
ATOM     19  H42 UNL     1       3.304  42.552  23.727  1.00  0.00     0.166 HD
ATOM     20  H41 UNL     1       3.671  41.952  21.924  1.00  0.00     0.166 HD
ENDBRANCH  17  18
ENDBRANCH  15  16
ENDBRANCH   9  10
ENDBRANCH   1   9
TORSDOF 4
ENDMDL
MODEL 5
REMARK VINA RESULT: -5.112402755      2.317      2.990
REMARK  4 active torsions:
REMARK  status: ('A' for Active; 'I' for Inactive)
REMARK    1  A    between atoms: N2_5  and  C4_6 
REMARK    2  A    between atoms: C4_6  and  C5_7 
REMARK    3  A    between atoms: C12_15  and  C13_16 
REMARK    4  A    between atoms: C14_17  and  N4_18 
ROOT
HETATM    1  C5  UNL     1       0.233  42.517  25.563  1.00  0.00    -0.038 A 
HETATM    2  C6  UNL     1       0.284  43.569  24.681  1.00  0.00     0.009 A 
HETATM    3  C7  UNL     1      -0.761  44.446  24.481  1.00  0.00     0.002 A 
HETATM    4  C8  UNL     1      -1.941  44.278  25.197  1.00  0.00     0.022 A 
HETATM    5  C9  UNL     1      -2.020  43.232  26.089  1.00  0.00     0.045 A 
HETATM    6  C10 UNL     1      -3.250  43.080  26.816  1.00  0.00     0.099 C 
HETATM    7  N3  UNL     1      -4.260  42.948  27.403  1.00  0.00    -0.191 NA
HETATM    8  C11 UNL     1      -0.954  42.362  26.273  1.00  0.00     0.031 A 
ENDROOT
BRANCH   1   9
HETATM    9  C4  UNL     1       1.355  41.578  25.780  1.00  0.00     0.169 C 
BRANCH   9  10
HETATM   10  N2  UNL     1       2.641  42.253  25.831  1.00  0.00    -0.330 N 
HETATM   11  C3  UNL     1       3.642  42.069  24.924  1.00  0.00     0.110 A 
HETATM   12  C2  UNL     1       4.714  42.856  25.270  1.00  0.00     0.110 A 
HETATM   13  N1  UNL     1       4.361  43.516  26.386  1.00  0.00    -0.339 N 
HETATM   14  C1  UNL     1       5.236  44.471  27.086  1.00  0.00     0.158 C 
HETATM   15  C12 UNL     1       3.127  43.147  26.705  1.00  0.00     0.167 A 
BRANCH  15  16
HETATM   16  C13 UNL     1       2.393  43.644  27.850  1.00  0.00    -0.007 C 
HETATM   17  C14 UNL     1       1.783  44.077  28.797  1.00  0.00     0.012 C 
BRANCH  17  18
HETATM   18  N4  UNL     1       1.075  44.599  29.886  1.00  0.00    -0.359 N 
ATOM     19  H42 UNL     1       1.894  44.767  29.302  1.00  0.00     0.166 HD
ATOM     20  H41 UNL     1       0.549  44.968  30.679  1.00  0.00     0.166 HD
ENDBRANCH  17  18
ENDBRANCH  15  16
ENDBRANCH   9  10
ENDBRANCH   1   9
TORSDOF 4
ENDMDL
