MODEL 1
REMARK VINA RESULT: -5.205599728      0.000      0.000
REMARK  5 active torsions:
REMARK  status: ('A' for Active; 'I' for Inactive)
REMARK    1  A    between atoms: N2_6  and  O2_7 
REMARK    2  A    between atoms: C4_10  and  C5_11 
REMARK    3  A    between atoms: C6_12  and  C7_13 
REMARK    4  A    between atoms: C7_13  and  O3_14 
REMARK    5  A    between atoms: O3_14  and  C8_15 
ROOT
HETATM    1  O1  UNL     1       1.638  45.146  29.139  1.00  0.00    -0.267 OA
HETATM    2  C1  UNL     1       2.868  45.233  29.374  1.00  0.00     0.266 A 
HETATM    3  N1  UNL     1       3.320  45.944  30.424  1.00  0.00    -0.316 N 
ATOM      4  H1  UNL     1       2.652  46.415  31.032  1.00  0.00     0.170 HD
HETATM    5  C2  UNL     1       4.638  46.045  30.689  1.00  0.00     0.215 A 
HETATM    6  N2  UNL     1       5.516  45.422  29.883  1.00  0.00    -0.230 N 
HETATM    7  C3  UNL     1       5.089  44.701  28.821  1.00  0.00     0.150 A 
HETATM    8  C4  UNL     1       3.741  44.579  28.524  1.00  0.00     0.103 A 
ENDROOT
BRANCH   8   9
HETATM    9  C5  UNL     1       3.259  43.819  27.404  1.00  0.00    -0.058 C 
HETATM   10  C6  UNL     1       2.865  43.170  26.462  1.00  0.00    -0.074 C 
BRANCH  10  11
HETATM   11  C7  UNL     1       2.401  42.366  25.318  1.00  0.00     0.269 C 
BRANCH  11  12
HETATM   12  O3  UNL     1       1.108  41.902  25.658  1.00  0.00    -0.340 OA
BRANCH  12  13
HETATM   13  C8  UNL     1      -0.006  42.742  25.646  1.00  0.00     0.070 A 
HETATM   14  C9  UNL     1      -0.785  42.875  26.764  1.00  0.00     0.037 A 
HETATM   15  C10 UNL     1      -1.880  43.709  26.731  1.00  0.00     0.003 A 
HETATM   16  C11 UNL     1      -2.149  44.387  25.547  1.00  0.00     0.000 A 
HETATM   17  C12 UNL     1      -1.375  44.259  24.420  1.00  0.00     0.003 A 
HETATM   18  C13 UNL     1      -0.278  43.420  24.463  1.00  0.00     0.037 A 
ENDBRANCH  12  13
ENDBRANCH  11  12
ENDBRANCH  10  11
ENDBRANCH   8   9
BRANCH   6  19
HETATM   19  O2  UNL     1       6.852  45.541  30.174  1.00  0.00    -0.282 OA
ATOM     20  H2  UNL     1       7.210  44.987  30.858  1.00  0.00     0.245 HD
ENDBRANCH   6  19
TORSDOF 5
ENDMDL
MODEL 2
REMARK VINA RESULT: -5.189956011      0.037      1.143
REMARK  5 active torsions:
REMARK  status: ('A' for Active; 'I' for Inactive)
REMARK    1  A    between atoms: N2_6  and  O2_7 
REMARK    2  A    between atoms: C4_10  and  C5_11 
REMARK    3  A    between atoms: C6_12  and  C7_13 
REMARK    4  A    between atoms: C7_13  and  O3_14 
REMARK    5  A    between atoms: O3_14  and  C8_15 
ROOT
HETATM    1  O1  UNL     1       1.640  45.139  29.125  1.00  0.00    -0.267 OA
HETATM    2  C1  UNL     1       2.870  45.231  29.358  1.00  0.00     0.266 A 
HETATM    3  N1  UNL     1       3.321  45.950  30.402  1.00  0.00    -0.316 N 
ATOM      4  H1  UNL     1       2.652  46.425  31.008  1.00  0.00     0.170 HD
HETATM    5  C2  UNL     1       4.639  46.056  30.666  1.00  0.00     0.215 A 
HETATM    6  N2  UNL     1       5.518  45.429  29.864  1.00  0.00    -0.230 N 
HETATM    7  C3  UNL     1       5.091  44.698  28.808  1.00  0.00     0.150 A 
HETATM    8  C4  UNL     1       3.743  44.571  28.513  1.00  0.00     0.103 A 
ENDROOT
BRANCH   8   9
HETATM    9  C5  UNL     1       3.262  43.803  27.398  1.00  0.00    -0.058 C 
HETATM   10  C6  UNL     1       2.861  43.143  26.467  1.00  0.00    -0.074 C 
BRANCH  10  11
HETATM   11  C7  UNL     1       2.381  42.321  25.342  1.00  0.00     0.269 C 
BRANCH  11  12
HETATM   12  O3  UNL     1       1.081  41.887  25.696  1.00  0.00    -0.340 OA
BRANCH  12  13
HETATM   13  C8  UNL     1      -0.024  42.737  25.641  1.00  0.00     0.070 A 
HETATM   14  C9  UNL     1      -0.319  43.418  24.490  1.00  0.00     0.037 A 
HETATM   15  C10 UNL     1      -1.414  44.251  24.458  1.00  0.00     0.003 A 
HETATM   16  C11 UNL     1      -2.181  44.366  25.612  1.00  0.00     0.000 A 
HETATM   17  C12 UNL     1      -1.893  43.689  26.772  1.00  0.00     0.003 A 
HETATM   18  C13 UNL     1      -0.792  42.855  26.794  1.00  0.00     0.037 A 
ENDBRANCH  12  13
ENDBRANCH  11  12
ENDBRANCH  10  11
ENDBRANCH   8   9
BRANCH   6  19
HETATM   19  O2  UNL     1       6.854  45.552  30.152  1.00  0.00    -0.282 OA
ATOM     20  H2  UNL     1       7.264  44.867  30.667  1.00  0.00     0.245 HD
ENDBRANCH   6  19
TORSDOF 5
ENDMDL
MODEL 3
REMARK VINA RESULT: -5.146621231      2.668      3.454
REMARK  5 active torsions:
REMARK  status: ('A' for Active; 'I' for Inactive)
REMARK    1  A    between atoms: N2_6  and  O2_7 
REMARK    2  A    between atoms: C4_10  and  C5_11 
REMARK    3  A    between atoms: C6_12  and  C7_13 
REMARK    4  A    between atoms: C7_13  and  O3_14 
REMARK    5  A    between atoms: O3_14  and  C8_15 
ROOT
HETATM    1  O1  UNL     1       1.113  41.709  31.546  1.00  0.00    -0.267 OA
HETATM    2  C1  UNL     1       1.448  42.805  31.033  1.00  0.00     0.266 A 
HETATM    3  N1  UNL     1       2.336  43.610  31.646  1.00  0.00    -0.316 N 
ATOM      4  H1  UNL     1       2.738  43.322  32.538  1.00  0.00     0.170 HD
HETATM    5  C2  UNL     1       2.706  44.788  31.107  1.00  0.00     0.215 A 
HETATM    6  N2  UNL     1       2.173  45.164  29.930  1.00  0.00    -0.230 N 
HETATM    7  C3  UNL     1       1.279  44.374  29.292  1.00  0.00     0.150 A 
HETATM    8  C4  UNL     1       0.880  43.157  29.823  1.00  0.00     0.103 A 
ENDROOT
BRANCH   8   9
HETATM    9  C5  UNL     1      -0.067  42.299  29.167  1.00  0.00    -0.058 C 
HETATM   10  C6  UNL     1      -0.874  41.587  28.614  1.00  0.00    -0.074 C 
BRANCH  10  11
HETATM   11  C7  UNL     1      -1.871  40.737  27.940  1.00  0.00     0.269 C 
BRANCH  11  12
HETATM   12  O3  UNL     1      -2.738  41.616  27.248  1.00  0.00    -0.340 OA
BRANCH  12  13
HETATM   13  C8  UNL     1      -2.310  42.368  26.154  1.00  0.00     0.070 A 
HETATM   14  C9  UNL     1      -2.027  41.758  24.961  1.00  0.00     0.037 A 
HETATM   15  C10 UNL     1      -1.606  42.519  23.894  1.00  0.00     0.003 A 
HETATM   16  C11 UNL     1      -1.485  43.892  24.078  1.00  0.00     0.000 A 
HETATM   17  C12 UNL     1      -1.764  44.513  25.270  1.00  0.00     0.003 A 
HETATM   18  C13 UNL     1      -2.186  43.741  26.336  1.00  0.00     0.037 A 
ENDBRANCH  12  13
ENDBRANCH  11  12
ENDBRANCH  10  11
ENDBRANCH   8   9
BRANCH   6  19
HETATM   19  O2  UNL     1       2.565  46.368  29.402  1.00  0.00    -0.282 OA
ATOM     20  H2  UNL     1       2.022  46.756  28.725  1.00  0.00     0.245 HD
ENDBRANCH   6  19
TORSDOF 5
ENDMDL
MODEL 4
REMARK VINA RESULT: -5.139075510      1.989      2.665
REMARK  5 active torsions:
REMARK  status: ('A' for Active; 'I' for Inactive)
REMARK    1  A    between atoms: N2_6  and  O2_7 
REMARK    2  A    between atoms: C4_10  and  C5_11 
REMARK    3  A    between atoms: C6_12  and  C7_13 
REMARK    4  A    between atoms: C7_13  and  O3_14 
REMARK    5  A    between atoms: O3_14  and  C8_15 
ROOT
HETATM    1  O1  UNL     1       0.617  44.617  30.890  1.00  0.00    -0.267 OA
HETATM    2  C1  UNL     1       1.631  44.648  30.151  1.00  0.00     0.266 A 
HETATM    3  N1  UNL     1       2.638  45.506  30.398  1.00  0.00    -0.316 N 
ATOM      4  H1  UNL     1       2.571  46.137  31.196  1.00  0.00     0.170 HD
HETATM    5  C2  UNL     1       3.733  45.550  29.613  1.00  0.00     0.215 A 
HETATM    6  N2  UNL     1       3.816  44.716  28.561  1.00  0.00    -0.230 N 
HETATM    7  C3  UNL     1       2.819  43.843  28.290  1.00  0.00     0.150 A 
HETATM    8  C4  UNL     1       1.682  43.775  29.079  1.00  0.00     0.103 A 
ENDROOT
BRANCH   8   9
HETATM    9  C5  UNL     1       0.608  42.857  28.816  1.00  0.00    -0.058 C 
HETATM   10  C6  UNL     1      -0.299  42.093  28.581  1.00  0.00    -0.074 C 
BRANCH  10  11
HETATM   11  C7  UNL     1      -1.411  41.174  28.279  1.00  0.00     0.269 C 
BRANCH  11  12
HETATM   12  O3  UNL     1      -2.374  41.936  27.575  1.00  0.00    -0.340 OA
BRANCH  12  13
HETATM   13  C8  UNL     1      -2.093  42.530  26.344  1.00  0.00     0.070 A 
HETATM   14  C9  UNL     1      -1.997  43.892  26.237  1.00  0.00     0.037 A 
HETATM   15  C10 UNL     1      -1.719  44.457  25.013  1.00  0.00     0.003 A 
HETATM   16  C11 UNL     1      -1.544  43.607  23.926  1.00  0.00     0.000 A 
HETATM   17  C12 UNL     1      -1.639  42.240  24.023  1.00  0.00     0.003 A 
HETATM   18  C13 UNL     1      -1.919  41.683  25.256  1.00  0.00     0.037 A 
ENDBRANCH  12  13
ENDBRANCH  11  12
ENDBRANCH  10  11
ENDBRANCH   8   9
BRANCH   6  19
HETATM   19  O2  UNL     1       4.941  44.780  27.777  1.00  0.00    -0.282 OA
ATOM     20  H2  UNL     1       4.911  44.368  26.922  1.00  0.00     0.245 HD
ENDBRANCH   6  19
TORSDOF 5
ENDMDL
MODEL 5
REMARK VINA RESULT: -5.119986962      2.681      3.411
REMARK  5 active torsions:
REMARK  status: ('A' for Active; 'I' for Inactive)
REMARK    1  A    between atoms: N2_6  and  O2_7 
REMARK    2  A    between atoms: C4_10  and  C5_11 
REMARK    3  A    between atoms: C6_12  and  C7_13 
REMARK    4  A    between atoms: C7_13  and  O3_14 
REMARK    5  A    between atoms: O3_14  and  C8_15 
ROOT
HETATM    1  O1  UNL     1       1.053  41.690  31.581  1.00  0.00    -0.267 OA
HETATM    2  C1  UNL     1       1.399  42.779  31.062  1.00  0.00     0.266 A 
HETATM    3  N1  UNL     1       2.283  43.586  31.678  1.00  0.00    -0.316 N 
ATOM      4  H1  UNL     1       2.673  43.305  32.578  1.00  0.00     0.170 HD
HETATM    5  C2  UNL     1       2.665  44.758  31.133  1.00  0.00     0.215 A 
HETATM    6  N2  UNL     1       2.147  45.126  29.947  1.00  0.00    -0.230 N 
HETATM    7  C3  UNL     1       1.258  44.333  29.305  1.00  0.00     0.150 A 
HETATM    8  C4  UNL     1       0.848  43.123  29.842  1.00  0.00     0.103 A 
ENDROOT
BRANCH   8   9
HETATM    9  C5  UNL     1      -0.095  42.262  29.183  1.00  0.00    -0.058 C 
HETATM   10  C6  UNL     1      -0.897  41.550  28.624  1.00  0.00    -0.074 C 
BRANCH  10  11
HETATM   11  C7  UNL     1      -1.886  40.698  27.938  1.00  0.00     0.269 C 
BRANCH  11  12
HETATM   12  O3  UNL     1      -2.760  41.578  27.257  1.00  0.00    -0.340 OA
BRANCH  12  13
HETATM   13  C8  UNL     1      -2.329  42.376  26.197  1.00  0.00     0.070 A 
HETATM   14  C9  UNL     1      -2.215  43.732  26.352  1.00  0.00     0.037 A 
HETATM   15  C10 UNL     1      -1.787  44.501  25.293  1.00  0.00     0.003 A 
HETATM   16  C11 UNL     1      -1.487  43.858  24.098  1.00  0.00     0.000 A 
HETATM   17  C12 UNL     1      -1.600  42.499  23.932  1.00  0.00     0.003 A 
HETATM   18  C13 UNL     1      -2.029  41.735  25.001  1.00  0.00     0.037 A 
ENDBRANCH  12  13
ENDBRANCH  11  12
ENDBRANCH  10  11
ENDBRANCH   8   9
BRANCH   6  19
HETATM   19  O2  UNL     1       2.551  46.323  29.412  1.00  0.00    -0.282 OA
ATOM     20  H2  UNL     1       2.597  46.396  28.466  1.00  0.00     0.245 HD
ENDBRANCH   6  19
TORSDOF 5
ENDMDL
