MODEL 1
REMARK VINA RESULT: -4.742286711      0.000      0.000
REMARK  6 active torsions:
REMARK  status: ('A' for Active; 'I' for Inactive)
REMARK    1  A    between atoms: C1_2  and  N1_3 
REMARK    2  A    between atoms: N1_3  and  C2_5 
REMARK    3  A    between atoms: C2_5  and  C3_6 
REMARK    4  A    between atoms: C2_5  and  N2_13 
REMARK    5  A    between atoms: C3_6  and  C4_7 
REMARK    6  A    between atoms: N2_13  and  C10_15 
ROOT
HETATM    1  C2  UNL     1       1.536  43.404  28.490  1.00  0.00     0.089 C 
ENDROOT
BRANCH   1   2
HETATM    2  N1  UNL     1       1.181  44.551  28.941  1.00  0.00    -0.324 N 
ATOM      3  H1  UNL     1       0.272  44.918  28.657  1.00  0.00     0.169 HD
BRANCH   2   4
HETATM    4  C1  UNL     1       1.969  45.330  29.804  1.00  0.00     0.354 C 
HETATM    5  O1  UNL     1       2.874  46.050  29.275  1.00  0.00    -0.283 OA
ENDBRANCH   2   4
ENDBRANCH   1   2
BRANCH   1   6
HETATM    6  C3  UNL     1       0.476  42.485  28.019  1.00  0.00     0.115 C 
BRANCH   6   7
HETATM    7  C4  UNL     1      -0.179  43.125  26.854  1.00  0.00    -0.051 A 
HETATM    8  C5  UNL     1      -1.489  43.540  26.953  1.00  0.00     0.007 A 
HETATM    9  C6  UNL     1      -2.134  44.140  25.894  1.00  0.00     0.001 A 
HETATM   10  C7  UNL     1      -1.467  44.334  24.707  1.00  0.00     0.000 A 
HETATM   11  C8  UNL     1      -0.157  43.920  24.606  1.00  0.00     0.001 A 
HETATM   12  C9  UNL     1       0.487  43.321  25.665  1.00  0.00     0.007 A 
ENDBRANCH   6   7
ENDBRANCH   1   6
BRANCH   1  13
HETATM   13  N2  UNL     1       2.865  42.995  28.428  1.00  0.00    -0.325 N 
ATOM     14  H2  UNL     1       3.273  42.525  29.236  1.00  0.00     0.169 HD
BRANCH  13  15
HETATM   15  C10 UNL     1       3.614  43.191  27.366  1.00  0.00     0.165 A 
HETATM   16  N3  UNL     1       3.953  44.372  26.834  1.00  0.00    -0.279 N 
HETATM   17  N4  UNL     1       4.686  44.378  25.802  1.00  0.00    -0.303 N 
ATOM     18  H3  UNL     1       3.629  45.245  27.251  1.00  0.00     0.189 HD
HETATM   19  C11 UNL     1       5.106  43.247  25.261  1.00  0.00     0.160 A 
ATOM     20  H4  UNL     1       4.956  45.267  25.382  1.00  0.00     0.186 HD
HETATM   21  S1  UNL     1       4.398  42.101  26.310  1.00  0.00    -0.046 SA
ENDBRANCH  13  15
ENDBRANCH   1  13
TORSDOF 6
ENDMDL
MODEL 2
REMARK VINA RESULT: -4.724001312      0.041      1.150
REMARK  6 active torsions:
REMARK  status: ('A' for Active; 'I' for Inactive)
REMARK    1  A    between atoms: C1_2  and  N1_3 
REMARK    2  A    between atoms: N1_3  and  C2_5 
REMARK    3  A    between atoms: C2_5  and  C3_6 
REMARK    4  A    between atoms: C2_5  and  N2_13 
REMARK    5  A    between atoms: C3_6  and  C4_7 
REMARK    6  A    between atoms: N2_13  and  C10_15 
ROOT
HETATM    1  C2  UNL     1       1.543  43.391  28.483  1.00  0.00     0.089 C 
ENDROOT
BRANCH   1   2
HETATM    2  N1  UNL     1       1.181  44.536  28.937  1.00  0.00    -0.324 N 
ATOM      3  H1  UNL     1       0.274  44.902  28.647  1.00  0.00     0.169 HD
BRANCH   2   4
HETATM    4  C1  UNL     1       1.962  45.313  29.807  1.00  0.00     0.354 C 
HETATM    5  O1  UNL     1       2.871  46.036  29.288  1.00  0.00    -0.283 OA
ENDBRANCH   2   4
ENDBRANCH   1   2
BRANCH   1   6
HETATM    6  C3  UNL     1       0.487  42.469  28.010  1.00  0.00     0.115 C 
BRANCH   6   7
HETATM    7  C4  UNL     1      -0.187  43.119  26.861  1.00  0.00    -0.051 A 
HETATM    8  C5  UNL     1       0.499  43.290  25.678  1.00  0.00     0.007 A 
HETATM    9  C6  UNL     1      -0.090  43.889  24.587  1.00  0.00     0.001 A 
HETATM   10  C7  UNL     1      -1.391  44.329  24.667  1.00  0.00     0.000 A 
HETATM   11  C8  UNL     1      -2.078  44.159  25.849  1.00  0.00     0.001 A 
HETATM   12  C9  UNL     1      -1.489  43.560  26.938  1.00  0.00     0.007 A 
ENDBRANCH   6   7
ENDBRANCH   1   6
BRANCH   1  13
HETATM   13  N2  UNL     1       2.874  42.989  28.421  1.00  0.00    -0.325 N 
ATOM     14  H2  UNL     1       3.280  42.511  29.225  1.00  0.00     0.169 HD
BRANCH  13  15
HETATM   15  C10 UNL     1       3.626  43.201  27.364  1.00  0.00     0.165 A 
HETATM   16  N3  UNL     1       3.966  44.390  26.852  1.00  0.00    -0.279 N 
HETATM   17  N4  UNL     1       4.702  44.412  25.822  1.00  0.00    -0.303 N 
ATOM     18  H3  UNL     1       3.641  45.257  27.281  1.00  0.00     0.189 HD
HETATM   19  C11 UNL     1       5.124  43.289  25.265  1.00  0.00     0.160 A 
ATOM     20  H4  UNL     1       4.973  45.307  25.417  1.00  0.00     0.186 HD
HETATM   21  S1  UNL     1       4.412  42.128  26.294  1.00  0.00    -0.046 SA
ENDBRANCH  13  15
ENDBRANCH   1  13
TORSDOF 6
ENDMDL
MODEL 3
REMARK VINA RESULT: -4.699337886      2.566      3.198
REMARK  6 active torsions:
REMARK  status: ('A' for Active; 'I' for Inactive)
REMARK    1  A    between atoms: C1_2  and  N1_3 
REMARK    2  A    between atoms: N1_3  and  C2_5 
REMARK    3  A    between atoms: C2_5  and  C3_6 
REMARK    4  A    between atoms: C2_5  and  N2_13 
REMARK    5  A    between atoms: C3_6  and  C4_7 
REMARK    6  A    between atoms: N2_13  and  C10_15 
ROOT
HETATM    1  C2  UNL     1       2.975  42.910  25.739  1.00  0.00     0.089 C 
ENDROOT
BRANCH   1   2
HETATM    2  N1  UNL     1       3.496  44.083  25.736  1.00  0.00    -0.324 N 
ATOM      3  H1  UNL     1       3.012  44.822  25.226  1.00  0.00     0.169 HD
BRANCH   2   4
HETATM    4  C1  UNL     1       4.693  44.408  26.393  1.00  0.00     0.354 C 
HETATM    5  O1  UNL     1       5.679  44.759  25.670  1.00  0.00    -0.283 OA
ENDBRANCH   2   4
ENDBRANCH   1   2
BRANCH   1   6
HETATM    6  C3  UNL     1       1.901  42.632  26.718  1.00  0.00     0.115 C 
BRANCH   6   7
HETATM    7  C4  UNL     1       0.649  43.215  26.180  1.00  0.00    -0.051 A 
HETATM    8  C5  UNL     1      -0.404  43.467  27.031  1.00  0.00     0.007 A 
HETATM    9  C6  UNL     1      -1.585  44.008  26.572  1.00  0.00     0.001 A 
HETATM   10  C7  UNL     1      -1.727  44.308  25.238  1.00  0.00     0.000 A 
HETATM   11  C8  UNL     1      -0.674  44.057  24.385  1.00  0.00     0.001 A 
HETATM   12  C9  UNL     1       0.505  43.516  24.845  1.00  0.00     0.007 A 
ENDBRANCH   6   7
ENDBRANCH   1   6
BRANCH   1  13
HETATM   13  N2  UNL     1       3.376  41.903  24.867  1.00  0.00    -0.325 N 
ATOM     14  H2  UNL     1       3.239  40.931  25.144  1.00  0.00     0.169 HD
BRANCH  13  15
HETATM   15  C10 UNL     1       3.926  42.156  23.701  1.00  0.00     0.165 A 
HETATM   16  N3  UNL     1       3.291  42.528  22.583  1.00  0.00    -0.279 N 
HETATM   17  N4  UNL     1       3.979  42.732  21.540  1.00  0.00    -0.303 N 
ATOM     18  H3  UNL     1       2.277  42.645  22.571  1.00  0.00     0.189 HD
HETATM   19  C11 UNL     1       5.293  42.582  21.554  1.00  0.00     0.160 A 
ATOM     20  H4  UNL     1       3.514  43.017  20.678  1.00  0.00     0.186 HD
HETATM   21  S1  UNL     1       5.550  42.116  23.176  1.00  0.00    -0.046 SA
ENDBRANCH  13  15
ENDBRANCH   1  13
TORSDOF 6
ENDMDL
MODEL 4
REMARK VINA RESULT: -4.687316734      2.752      3.684
REMARK  6 active torsions:
REMARK  status: ('A' for Active; 'I' for Inactive)
REMARK    1  A    between atoms: C1_2  and  N1_3 
REMARK    2  A    between atoms: N1_3  and  C2_5 
REMARK    3  A    between atoms: C2_5  and  C3_6 
REMARK    4  A    between atoms: C2_5  and  N2_13 
REMARK    5  A    between atoms: C3_6  and  C4_7 
REMARK    6  A    between atoms: N2_13  and  C10_15 
ROOT
HETATM    1  C2  UNL     1       2.314  42.227  24.497  1.00  0.00     0.089 C 
ENDROOT
BRANCH   1   2
HETATM    2  N1  UNL     1       2.771  43.325  24.977  1.00  0.00    -0.324 N 
ATOM      3  H1  UNL     1       2.526  44.195  24.504  1.00  0.00     0.169 HD
BRANCH   2   4
HETATM    4  C1  UNL     1       3.588  43.400  26.117  1.00  0.00     0.354 C 
HETATM    5  O1  UNL     1       4.326  44.428  26.239  1.00  0.00    -0.283 OA
ENDBRANCH   2   4
ENDBRANCH   1   2
BRANCH   1   6
HETATM    6  C3  UNL     1       1.205  41.564  25.218  1.00  0.00     0.115 C 
BRANCH   6   7
HETATM    7  C4  UNL     1       0.098  42.543  25.326  1.00  0.00    -0.051 A 
HETATM    8  C5  UNL     1      -0.597  42.910  24.195  1.00  0.00     0.007 A 
HETATM    9  C6  UNL     1      -1.633  43.817  24.251  1.00  0.00     0.001 A 
HETATM   10  C7  UNL     1      -1.990  44.374  25.458  1.00  0.00     0.000 A 
HETATM   11  C8  UNL     1      -1.296  44.007  26.589  1.00  0.00     0.001 A 
HETATM   12  C9  UNL     1      -0.262  43.101  26.532  1.00  0.00     0.007 A 
ENDBRANCH   6   7
ENDBRANCH   1   6
BRANCH   1  13
HETATM   13  N2  UNL     1       2.816  41.642  23.338  1.00  0.00    -0.325 N 
ATOM     14  H2  UNL     1       2.320  40.847  22.936  1.00  0.00     0.169 HD
BRANCH  13  15
HETATM   15  C10 UNL     1       3.903  42.078  22.742  1.00  0.00     0.165 A 
HETATM   16  N3  UNL     1       3.962  42.816  21.628  1.00  0.00    -0.279 N 
HETATM   17  N4  UNL     1       5.101  43.149  21.187  1.00  0.00    -0.303 N 
ATOM     18  H3  UNL     1       3.110  43.103  21.145  1.00  0.00     0.189 HD
HETATM   19  C11 UNL     1       6.206  42.777  21.812  1.00  0.00     0.160 A 
ATOM     20  H4  UNL     1       5.168  43.712  20.340  1.00  0.00     0.186 HD
HETATM   21  S1  UNL     1       5.558  41.890  23.118  1.00  0.00    -0.046 SA
ENDBRANCH  13  15
ENDBRANCH   1  13
TORSDOF 6
ENDMDL
MODEL 5
REMARK VINA RESULT: -4.559833559      3.528      4.458
REMARK  6 active torsions:
REMARK  status: ('A' for Active; 'I' for Inactive)
REMARK    1  A    between atoms: C1_2  and  N1_3 
REMARK    2  A    between atoms: N1_3  and  C2_5 
REMARK    3  A    between atoms: C2_5  and  C3_6 
REMARK    4  A    between atoms: C2_5  and  N2_13 
REMARK    5  A    between atoms: C3_6  and  C4_7 
REMARK    6  A    between atoms: N2_13  and  C10_15 
ROOT
HETATM    1  C2  UNL     1       2.280  42.093  24.244  1.00  0.00     0.089 C 
ENDROOT
BRANCH   1   2
HETATM    2  N1  UNL     1       1.907  40.911  24.576  1.00  0.00    -0.324 N 
ATOM      3  H1  UNL     1       2.253  40.528  25.456  1.00  0.00     0.169 HD
BRANCH   2   4
HETATM    4  C1  UNL     1       1.053  40.114  23.798  1.00  0.00     0.354 C 
HETATM    5  O1  UNL     1       0.208  40.713  23.060  1.00  0.00    -0.283 OA
ENDBRANCH   2   4
ENDBRANCH   1   2
BRANCH   1   6
HETATM    6  C3  UNL     1       2.183  43.161  25.263  1.00  0.00     0.115 C 
BRANCH   6   7
HETATM    7  C4  UNL     1       0.745  43.477  25.439  1.00  0.00    -0.051 A 
HETATM    8  C5  UNL     1       0.143  43.251  26.657  1.00  0.00     0.007 A 
HETATM    9  C6  UNL     1      -1.190  43.531  26.862  1.00  0.00     0.001 A 
HETATM   10  C7  UNL     1      -1.946  44.048  25.836  1.00  0.00     0.000 A 
HETATM   11  C8  UNL     1      -1.345  44.275  24.618  1.00  0.00     0.001 A 
HETATM   12  C9  UNL     1      -0.014  43.995  24.414  1.00  0.00     0.007 A 
ENDBRANCH   6   7
ENDBRANCH   1   6
BRANCH   1  13
HETATM   13  N2  UNL     1       2.765  42.405  22.978  1.00  0.00    -0.325 N 
ATOM     14  H2  UNL     1       2.099  42.555  22.220  1.00  0.00     0.169 HD
BRANCH  13  15
HETATM   15  C10 UNL     1       4.050  42.514  22.722  1.00  0.00     0.165 A 
HETATM   16  N3  UNL     1       4.604  42.981  21.597  1.00  0.00    -0.279 N 
HETATM   17  N4  UNL     1       5.866  43.016  21.518  1.00  0.00    -0.303 N 
ATOM     18  H3  UNL     1       4.022  43.301  20.822  1.00  0.00     0.189 HD
HETATM   19  C11 UNL     1       6.621  42.601  22.522  1.00  0.00     0.160 A 
ATOM     20  H4  UNL     1       6.308  43.369  20.669  1.00  0.00     0.186 HD
HETATM   21  S1  UNL     1       5.431  42.130  23.651  1.00  0.00    -0.046 SA
ENDBRANCH  13  15
ENDBRANCH   1  13
TORSDOF 6
ENDMDL
