MODEL 1
REMARK VINA RESULT: -4.770623814      0.000      0.000
REMARK  3 active torsions:
REMARK  status: ('A' for Active; 'I' for Inactive)
REMARK    1  A    between atoms: C2_2  and  O1_3 
REMARK    2  A    between atoms: O1_3  and  C3_4 
REMARK    3  A    between atoms: N3_16  and  O2_17 
ROOT
HETATM    1  C3  UNL     1       4.049  44.303  27.171  1.00  0.00     0.184 A 
HETATM    2  C4  UNL     1       3.059  44.380  28.166  1.00  0.00     0.044 A 
HETATM    3  C5  UNL     1       3.302  45.005  29.364  1.00  0.00     0.018 A 
HETATM    4  C6  UNL     1       2.319  45.073  30.330  1.00  0.00     0.001 A 
HETATM    5  C7  UNL     1       1.090  44.503  30.075  1.00  0.00     0.002 A 
HETATM    6  C8  UNL     1       0.810  43.869  28.886  1.00  0.00     0.031 A 
HETATM    7  C9  UNL     1       1.824  43.824  27.945  1.00  0.00     0.050 A 
HETATM    8  N1  UNL     1       1.587  43.207  26.760  1.00  0.00    -0.326 N 
HETATM    9  C10 UNL     1       0.291  42.636  26.557  1.00  0.00     0.159 C 
HETATM   10  C11 UNL     1       2.518  43.124  25.803  1.00  0.00     0.219 A 
HETATM   11  C12 UNL     1       2.239  42.466  24.560  1.00  0.00     0.139 C 
HETATM   12  N2  UNL     1       2.032  41.927  23.540  1.00  0.00    -0.188 NA
HETATM   13  N3  UNL     1       3.737  43.676  26.030  1.00  0.00    -0.173 N 
ENDROOT
BRANCH  13  14
HETATM   14  O2  UNL     1       4.669  43.532  25.000  1.00  0.00    -0.279 OA
ATOM     15  H2  UNL     1       5.250  44.242  24.754  1.00  0.00     0.245 HD
ENDBRANCH  13  14
BRANCH   1  16
HETATM   16  O1  UNL     1       5.227  44.872  27.474  1.00  0.00    -0.334 OA
BRANCH  16  17
HETATM   17  C2  UNL     1       6.493  44.464  27.741  1.00  0.00     0.173 C 
HETATM   18  C1  UNL     1       7.051  45.004  29.036  1.00  0.00     0.034 C 
ENDBRANCH  16  17
ENDBRANCH   1  16
TORSDOF 3
ENDMDL
MODEL 2
REMARK VINA RESULT: -4.682194858      1.710      4.051
REMARK  3 active torsions:
REMARK  status: ('A' for Active; 'I' for Inactive)
REMARK    1  A    between atoms: C2_2  and  O1_3 
REMARK    2  A    between atoms: O1_3  and  C3_4 
REMARK    3  A    between atoms: N3_16  and  O2_17 
ROOT
HETATM    1  C3  UNL     1       1.907  43.517  26.931  1.00  0.00     0.184 A 
HETATM    2  C4  UNL     1       2.062  43.951  28.260  1.00  0.00     0.044 A 
HETATM    3  C5  UNL     1       0.998  43.978  29.128  1.00  0.00     0.018 A 
HETATM    4  C6  UNL     1       1.166  44.405  30.428  1.00  0.00     0.001 A 
HETATM    5  C7  UNL     1       2.419  44.805  30.844  1.00  0.00     0.002 A 
HETATM    6  C8  UNL     1       3.508  44.791  30.003  1.00  0.00     0.031 A 
HETATM    7  C9  UNL     1       3.294  44.355  28.708  1.00  0.00     0.050 A 
HETATM    8  N1  UNL     1       4.344  44.327  27.848  1.00  0.00    -0.326 N 
HETATM    9  C10 UNL     1       5.618  44.754  28.341  1.00  0.00     0.159 C 
HETATM   10  C11 UNL     1       4.214  43.918  26.580  1.00  0.00     0.219 A 
HETATM   11  C12 UNL     1       5.342  43.899  25.694  1.00  0.00     0.139 C 
HETATM   12  N2  UNL     1       6.249  43.882  24.954  1.00  0.00    -0.188 NA
HETATM   13  N3  UNL     1       2.991  43.521  26.146  1.00  0.00    -0.173 N 
ENDROOT
BRANCH  13  14
HETATM   14  O2  UNL     1       2.921  43.130  24.807  1.00  0.00    -0.279 OA
ATOM     15  H2  UNL     1       3.704  42.923  24.310  1.00  0.00     0.245 HD
ENDBRANCH  13  14
BRANCH   1  16
HETATM   16  O1  UNL     1       0.667  43.142  26.580  1.00  0.00    -0.334 OA
BRANCH  16  17
HETATM   17  C2  UNL     1      -0.303  43.571  25.734  1.00  0.00     0.173 C 
HETATM   18  C1  UNL     1      -1.614  43.886  26.414  1.00  0.00     0.034 C 
ENDBRANCH  16  17
ENDBRANCH   1  16
TORSDOF 3
ENDMDL
MODEL 3
REMARK VINA RESULT: -4.672654491      6.198      7.798
REMARK  3 active torsions:
REMARK  status: ('A' for Active; 'I' for Inactive)
REMARK    1  A    between atoms: C2_2  and  O1_3 
REMARK    2  A    between atoms: O1_3  and  C3_4 
REMARK    3  A    between atoms: N3_16  and  O2_17 
ROOT
HETATM    1  C3  UNL     1      -2.106  40.741  23.679  1.00  0.00     0.184 A 
HETATM    2  C4  UNL     1      -1.960  41.979  24.330  1.00  0.00     0.044 A 
HETATM    3  C5  UNL     1      -1.321  43.031  23.722  1.00  0.00     0.018 A 
HETATM    4  C6  UNL     1      -1.187  44.239  24.373  1.00  0.00     0.001 A 
HETATM    5  C7  UNL     1      -1.704  44.375  25.644  1.00  0.00     0.002 A 
HETATM    6  C8  UNL     1      -2.351  43.343  26.285  1.00  0.00     0.031 A 
HETATM    7  C9  UNL     1      -2.463  42.149  25.595  1.00  0.00     0.050 A 
HETATM    8  N1  UNL     1      -3.094  41.107  26.194  1.00  0.00    -0.326 N 
HETATM    9  C10 UNL     1      -3.608  41.313  27.514  1.00  0.00     0.159 C 
HETATM   10  C11 UNL     1      -3.240  39.922  25.590  1.00  0.00     0.219 A 
HETATM   11  C12 UNL     1      -3.913  38.839  26.248  1.00  0.00     0.139 C 
HETATM   12  N2  UNL     1      -4.453  37.941  26.771  1.00  0.00    -0.188 NA
HETATM   13  N3  UNL     1      -2.740  39.763  24.339  1.00  0.00    -0.173 N 
ENDROOT
BRANCH  13  14
HETATM   14  O2  UNL     1      -2.906  38.495  23.777  1.00  0.00    -0.279 OA
ATOM     15  H2  UNL     1      -3.757  38.189  23.487  1.00  0.00     0.245 HD
ENDBRANCH  13  14
BRANCH   1  16
HETATM   16  O1  UNL     1      -1.583  40.664  22.446  1.00  0.00    -0.334 OA
BRANCH  16  17
HETATM   17  C2  UNL     1      -1.995  40.290  21.209  1.00  0.00     0.173 C 
HETATM   18  C1  UNL     1      -1.155  39.199  20.587  1.00  0.00     0.034 C 
ENDBRANCH  16  17
ENDBRANCH   1  16
TORSDOF 3
ENDMDL
MODEL 4
REMARK VINA RESULT: -4.632214432      6.437      7.670
REMARK  3 active torsions:
REMARK  status: ('A' for Active; 'I' for Inactive)
REMARK    1  A    between atoms: C2_2  and  O1_3 
REMARK    2  A    between atoms: O1_3  and  C3_4 
REMARK    3  A    between atoms: N3_16  and  O2_17 
ROOT
HETATM    1  C3  UNL     1      -3.407  40.486  26.200  1.00  0.00     0.184 A 
HETATM    2  C4  UNL     1      -2.825  41.723  25.874  1.00  0.00     0.044 A 
HETATM    3  C5  UNL     1      -2.865  42.780  26.749  1.00  0.00     0.018 A 
HETATM    4  C6  UNL     1      -2.287  43.988  26.415  1.00  0.00     0.001 A 
HETATM    5  C7  UNL     1      -1.670  44.117  25.189  1.00  0.00     0.002 A 
HETATM    6  C8  UNL     1      -1.610  43.080  24.287  1.00  0.00     0.031 A 
HETATM    7  C9  UNL     1      -2.202  41.887  24.663  1.00  0.00     0.050 A 
HETATM    8  N1  UNL     1      -2.164  40.840  23.800  1.00  0.00    -0.326 N 
HETATM    9  C10 UNL     1      -1.507  41.039  22.543  1.00  0.00     0.159 C 
HETATM   10  C11 UNL     1      -2.714  39.656  24.093  1.00  0.00     0.219 A 
HETATM   11  C12 UNL     1      -2.658  38.568  23.161  1.00  0.00     0.139 C 
HETATM   12  N2  UNL     1      -2.627  37.669  22.411  1.00  0.00    -0.188 NA
HETATM   13  N3  UNL     1      -3.328  39.504  25.293  1.00  0.00    -0.173 N 
ENDROOT
BRANCH  13  14
HETATM   14  O2  UNL     1      -3.902  38.251  25.525  1.00  0.00    -0.279 OA
ATOM     15  H2  UNL     1      -4.173  37.690  24.808  1.00  0.00     0.245 HD
ENDBRANCH  13  14
BRANCH   1  16
HETATM   16  O1  UNL     1      -3.996  40.417  27.404  1.00  0.00    -0.334 OA
BRANCH  16  17
HETATM   17  C2  UNL     1      -3.916  39.637  28.511  1.00  0.00     0.173 C 
HETATM   18  C1  UNL     1      -2.502  39.374  28.973  1.00  0.00     0.034 C 
ENDBRANCH  16  17
ENDBRANCH   1  16
TORSDOF 3
ENDMDL
MODEL 5
REMARK VINA RESULT: -4.578458542      2.567      4.483
REMARK  3 active torsions:
REMARK  status: ('A' for Active; 'I' for Inactive)
REMARK    1  A    between atoms: C2_2  and  O1_3 
REMARK    2  A    between atoms: O1_3  and  C3_4 
REMARK    3  A    between atoms: N3_16  and  O2_17 
ROOT
HETATM    1  C3  UNL     1       0.501  42.617  25.689  1.00  0.00     0.184 A 
HETATM    2  C4  UNL     1       1.189  43.242  26.745  1.00  0.00     0.044 A 
HETATM    3  C5  UNL     1       0.522  43.702  27.854  1.00  0.00     0.018 A 
HETATM    4  C6  UNL     1       1.211  44.312  28.881  1.00  0.00     0.001 A 
HETATM    5  C7  UNL     1       2.579  44.453  28.778  1.00  0.00     0.002 A 
HETATM    6  C8  UNL     1       3.281  44.004  27.682  1.00  0.00     0.031 A 
HETATM    7  C9  UNL     1       2.550  43.398  26.676  1.00  0.00     0.050 A 
HETATM    8  N1  UNL     1       3.206  42.942  25.578  1.00  0.00    -0.326 N 
HETATM    9  C10 UNL     1       4.625  43.119  25.533  1.00  0.00     0.159 C 
HETATM   10  C11 UNL     1       2.568  42.346  24.565  1.00  0.00     0.219 A 
HETATM   11  C12 UNL     1       3.288  41.874  23.418  1.00  0.00     0.139 C 
HETATM   12  N2  UNL     1       3.857  41.487  22.470  1.00  0.00    -0.188 NA
HETATM   13  N3  UNL     1       1.221  42.196  24.642  1.00  0.00    -0.173 N 
ENDROOT
BRANCH  13  14
HETATM   14  O2  UNL     1       0.616  41.588  23.539  1.00  0.00    -0.279 OA
ATOM     15  H2  UNL     1       1.083  40.962  23.000  1.00  0.00     0.245 HD
ENDBRANCH  13  14
BRANCH   1  16
HETATM   16  O1  UNL     1      -0.828  42.508  25.842  1.00  0.00    -0.334 OA
BRANCH  16  17
HETATM   17  C2  UNL     1      -1.941  43.094  25.334  1.00  0.00     0.173 C 
HETATM   18  C1  UNL     1      -1.657  44.270  24.431  1.00  0.00     0.034 C 
ENDBRANCH  16  17
ENDBRANCH   1  16
TORSDOF 3
ENDMDL
