MODEL 1
REMARK VINA RESULT: -5.875314337      0.000      0.000
REMARK  5 active torsions:
REMARK  status: ('A' for Active; 'I' for Inactive)
REMARK    1  A    between atoms: C2_2  and  O1_4 
REMARK    2  A    between atoms: O1_4  and  C4_5 
REMARK    3  A    between atoms: C4_5  and  C5_7 
REMARK    4  A    between atoms: C5_7  and  C7_9 
REMARK    5  A    between atoms: C7_9  and  O3_10 
ROOT
HETATM    1  C7  UNL     1      -5.581  53.235  13.182  1.00  0.00     0.280 C 
HETATM    2  N1  UNL     1      -4.215  53.197  13.654  1.00  0.00     0.122 N 
HETATM    3  C8  UNL     1      -3.217  53.880  12.923  1.00  0.00     0.314 C 
HETATM    4  C9  UNL     1      -4.232  51.769  13.280  1.00  0.00     0.290 C 
HETATM    5  C10 UNL     1      -5.330  52.168  12.284  1.00  0.00     0.051 A 
HETATM    6  C11 UNL     1      -5.113  51.939  10.918  1.00  0.00     0.022 A 
HETATM    7  C12 UNL     1      -6.212  51.177  11.699  1.00  0.00    -0.003 A 
HETATM    8  C13 UNL     1      -7.644  51.456  11.380  1.00  0.00     0.011 C 
ENDROOT
BRANCH   1   9
HETATM    9  C5  UNL     1      -6.146  54.548  12.808  1.00  0.00     0.148 C 
HETATM   10  C6  UNL     1      -6.114  55.640  13.778  1.00  0.00     0.025 C 
BRANCH   9  11
HETATM   11  C4  UNL     1      -7.585  54.321  12.409  1.00  0.00     0.267 C 
HETATM   12  O2  UNL     1      -8.471  54.022  13.240  1.00  0.00    -0.265 OA
BRANCH  11  13
HETATM   13  O1  UNL     1      -7.973  54.443  11.081  1.00  0.00    -0.316 OA
BRANCH  13  14
HETATM   14  C2  UNL     1      -7.593  55.581  10.340  1.00  0.00     0.123 C 
HETATM   15  C1  UNL     1      -8.642  56.649  10.571  1.00  0.00     0.040 C 
HETATM   16  C3  UNL     1      -7.587  55.259   8.857  1.00  0.00     0.040 C 
ENDBRANCH  13  14
ENDBRANCH  11  13
ENDBRANCH   9  11
ENDBRANCH   1   9
BRANCH   1  17
HETATM   17  O3  UNL     1      -6.367  52.773  14.285  1.00  0.00    -0.362 OA
ATOM     18  H3  UNL     1      -5.755  52.635  14.998  1.00  0.00     0.212 HD
ENDBRANCH   1  17
TORSDOF 5
ENDMDL
MODEL 2
REMARK VINA RESULT: -5.785474168      3.030      4.536
REMARK  5 active torsions:
REMARK  status: ('A' for Active; 'I' for Inactive)
REMARK    1  A    between atoms: C2_2  and  O1_4 
REMARK    2  A    between atoms: O1_4  and  C4_5 
REMARK    3  A    between atoms: C4_5  and  C5_7 
REMARK    4  A    between atoms: C5_7  and  C7_9 
REMARK    5  A    between atoms: C7_9  and  O3_10 
ROOT
HETATM    1  C7  UNL     1      -2.269  51.145  11.773  1.00  0.00     0.280 C 
HETATM    2  N1  UNL     1      -1.030  50.403  11.701  1.00  0.00     0.122 N 
HETATM    3  C8  UNL     1      -0.277  50.437  10.506  1.00  0.00     0.314 C 
HETATM    4  C9  UNL     1      -1.870  49.191  11.739  1.00  0.00     0.290 C 
HETATM    5  C10 UNL     1      -2.972  50.083  11.151  1.00  0.00     0.051 A 
HETATM    6  C11 UNL     1      -3.524  49.739   9.909  1.00  0.00     0.022 A 
HETATM    7  C12 UNL     1      -4.367  49.692  11.207  1.00  0.00    -0.003 A 
HETATM    8  C13 UNL     1      -5.477  50.677  11.378  1.00  0.00     0.011 C 
ENDROOT
BRANCH   1   9
HETATM    9  C5  UNL     1      -2.261  52.547  11.310  1.00  0.00     0.148 C 
HETATM   10  C6  UNL     1      -0.994  53.163  10.922  1.00  0.00     0.025 C 
BRANCH   9  11
HETATM   11  C4  UNL     1      -2.870  53.386  12.409  1.00  0.00     0.267 C 
HETATM   12  O2  UNL     1      -2.187  53.864  13.343  1.00  0.00    -0.265 OA
BRANCH  11  13
HETATM   13  O1  UNL     1      -4.232  53.658  12.413  1.00  0.00    -0.316 OA
BRANCH  13  14
HETATM   14  C2  UNL     1      -4.855  54.112  13.593  1.00  0.00     0.123 C 
HETATM   15  C1  UNL     1      -5.455  52.905  14.286  1.00  0.00     0.040 C 
HETATM   16  C3  UNL     1      -5.993  55.055  13.253  1.00  0.00     0.040 C 
ENDBRANCH  13  14
ENDBRANCH  11  13
ENDBRANCH   9  11
ENDBRANCH   1   9
BRANCH   1  17
HETATM   17  O3  UNL     1      -2.589  51.196  13.166  1.00  0.00    -0.362 OA
ATOM     18  H3  UNL     1      -1.765  51.081  13.625  1.00  0.00     0.212 HD
ENDBRANCH   1  17
TORSDOF 5
ENDMDL
MODEL 3
REMARK VINA RESULT: -5.759610202      3.247      4.841
REMARK  5 active torsions:
REMARK  status: ('A' for Active; 'I' for Inactive)
REMARK    1  A    between atoms: C2_2  and  O1_4 
REMARK    2  A    between atoms: O1_4  and  C4_5 
REMARK    3  A    between atoms: C4_5  and  C5_7 
REMARK    4  A    between atoms: C5_7  and  C7_9 
REMARK    5  A    between atoms: C7_9  and  O3_10 
ROOT
HETATM    1  C7  UNL     1      -2.135  51.081  11.900  1.00  0.00     0.280 C 
HETATM    2  N1  UNL     1      -0.861  50.427  11.703  1.00  0.00     0.122 N 
HETATM    3  C8  UNL     1      -0.130  50.687  10.522  1.00  0.00     0.314 C 
HETATM    4  C9  UNL     1      -1.638  49.180  11.555  1.00  0.00     0.290 C 
HETATM    5  C10 UNL     1      -2.793  50.094  11.123  1.00  0.00     0.051 A 
HETATM    6  C11 UNL     1      -3.346  49.921   9.847  1.00  0.00     0.022 A 
HETATM    7  C12 UNL     1      -4.165  49.626  11.128  1.00  0.00    -0.003 A 
HETATM    8  C13 UNL     1      -5.321  50.511  11.460  1.00  0.00     0.011 C 
ENDROOT
BRANCH   1   9
HETATM    9  C5  UNL     1      -2.207  52.537  11.664  1.00  0.00     0.148 C 
HETATM   10  C6  UNL     1      -1.261  53.157  10.739  1.00  0.00     0.025 C 
BRANCH   9  11
HETATM   11  C4  UNL     1      -2.061  53.217  13.005  1.00  0.00     0.267 C 
HETATM   12  O2  UNL     1      -0.997  53.179  13.662  1.00  0.00    -0.265 OA
BRANCH  11  13
HETATM   13  O1  UNL     1      -3.126  53.919  13.556  1.00  0.00    -0.316 OA
BRANCH  13  14
HETATM   14  C2  UNL     1      -4.446  53.614  13.165  1.00  0.00     0.123 C 
HETATM   15  C1  UNL     1      -5.172  54.925  12.946  1.00  0.00     0.040 C 
HETATM   16  C3  UNL     1      -5.162  52.876  14.280  1.00  0.00     0.040 C 
ENDBRANCH  13  14
ENDBRANCH  11  13
ENDBRANCH   9  11
ENDBRANCH   1   9
BRANCH   1  17
HETATM   17  O3  UNL     1      -2.436  50.895  13.286  1.00  0.00    -0.362 OA
ATOM     18  H3  UNL     1      -1.881  51.507  13.755  1.00  0.00     0.212 HD
ENDBRANCH   1  17
TORSDOF 5
ENDMDL
MODEL 4
REMARK VINA RESULT: -5.578002985      3.647      5.310
REMARK  5 active torsions:
REMARK  status: ('A' for Active; 'I' for Inactive)
REMARK    1  A    between atoms: C2_2  and  O1_4 
REMARK    2  A    between atoms: O1_4  and  C4_5 
REMARK    3  A    between atoms: C4_5  and  C5_7 
REMARK    4  A    between atoms: C5_7  and  C7_9 
REMARK    5  A    between atoms: C7_9  and  O3_10 
ROOT
HETATM    1  C7  UNL     1      -2.382  51.126  10.671  1.00  0.00     0.280 C 
HETATM    2  N1  UNL     1      -2.733  49.773  10.302  1.00  0.00     0.122 N 
HETATM    3  C8  UNL     1      -2.266  48.701  11.095  1.00  0.00     0.314 C 
HETATM    4  C9  UNL     1      -1.849  49.968   9.137  1.00  0.00     0.290 C 
HETATM    5  C10 UNL     1      -1.135  51.012  10.007  1.00  0.00     0.051 A 
HETATM    6  C11 UNL     1       0.225  50.831  10.294  1.00  0.00     0.022 A 
HETATM    7  C12 UNL     1      -0.265  52.012   9.421  1.00  0.00    -0.003 A 
HETATM    8  C13 UNL     1      -0.148  53.401   9.960  1.00  0.00     0.011 C 
ENDROOT
BRANCH   1   9
HETATM    9  C5  UNL     1      -2.562  51.524  12.082  1.00  0.00     0.148 C 
HETATM   10  C6  UNL     1      -3.326  50.657  12.976  1.00  0.00     0.025 C 
BRANCH   9  11
HETATM   11  C4  UNL     1      -3.215  52.887  12.084  1.00  0.00     0.267 C 
HETATM   12  O2  UNL     1      -2.552  53.946  12.131  1.00  0.00    -0.265 OA
BRANCH  11  13
HETATM   13  O1  UNL     1      -4.598  53.002  12.032  1.00  0.00    -0.316 OA
BRANCH  13  14
HETATM   14  C2  UNL     1      -5.258  53.931  12.863  1.00  0.00     0.123 C 
HETATM   15  C1  UNL     1      -5.596  53.225  14.160  1.00  0.00     0.040 C 
HETATM   16  C3  UNL     1      -6.565  54.365  12.226  1.00  0.00     0.040 C 
ENDBRANCH  13  14
ENDBRANCH  11  13
ENDBRANCH   9  11
ENDBRANCH   1   9
BRANCH   1  17
HETATM   17  O3  UNL     1      -3.266  51.957   9.916  1.00  0.00    -0.362 OA
ATOM     18  H3  UNL     1      -4.104  51.916  10.361  1.00  0.00     0.212 HD
ENDBRANCH   1  17
TORSDOF 5
ENDMDL
MODEL 5
REMARK VINA RESULT: -5.457468222      2.191      4.531
REMARK  5 active torsions:
REMARK  status: ('A' for Active; 'I' for Inactive)
REMARK    1  A    between atoms: C2_2  and  O1_4 
REMARK    2  A    between atoms: O1_4  and  C4_5 
REMARK    3  A    between atoms: C4_5  and  C5_7 
REMARK    4  A    between atoms: C5_7  and  C7_9 
REMARK    5  A    between atoms: C7_9  and  O3_10 
ROOT
HETATM    1  C7  UNL     1      -6.372  53.275  11.715  1.00  0.00     0.280 C 
HETATM    2  N1  UNL     1      -6.714  54.679  11.755  1.00  0.00     0.122 N 
HETATM    3  C8  UNL     1      -7.173  55.240  12.968  1.00  0.00     0.314 C 
HETATM    4  C9  UNL     1      -7.859  54.321  10.896  1.00  0.00     0.290 C 
HETATM    5  C10 UNL     1      -7.729  52.922  11.513  1.00  0.00     0.051 A 
HETATM    6  C11 UNL     1      -8.820  52.394  12.217  1.00  0.00     0.022 A 
HETATM    7  C12 UNL     1      -8.336  51.764  10.887  1.00  0.00    -0.003 A 
HETATM    8  C13 UNL     1      -7.714  50.406  10.921  1.00  0.00     0.011 C 
ENDROOT
BRANCH   1   9
HETATM    9  C5  UNL     1      -5.505  52.746  12.787  1.00  0.00     0.148 C 
HETATM   10  C6  UNL     1      -5.957  52.824  14.174  1.00  0.00     0.025 C 
BRANCH   9  11
HETATM   11  C4  UNL     1      -4.179  53.465  12.690  1.00  0.00     0.267 C 
HETATM   12  O2  UNL     1      -3.883  54.426  13.433  1.00  0.00    -0.265 OA
BRANCH  11  13
HETATM   13  O1  UNL     1      -3.233  53.068  11.753  1.00  0.00    -0.316 OA
BRANCH  13  14
HETATM   14  C2  UNL     1      -1.884  52.921  12.135  1.00  0.00     0.123 C 
HETATM   15  C1  UNL     1      -1.032  53.158  10.905  1.00  0.00     0.040 C 
HETATM   16  C3  UNL     1      -1.626  51.502  12.604  1.00  0.00     0.040 C 
ENDBRANCH  13  14
ENDBRANCH  11  13
ENDBRANCH   9  11
ENDBRANCH   1   9
BRANCH   1  17
HETATM   17  O3  UNL     1      -5.635  53.109  10.501  1.00  0.00    -0.362 OA
ATOM     18  H3  UNL     1      -6.194  52.597   9.928  1.00  0.00     0.212 HD
ENDBRANCH   1  17
TORSDOF 5
ENDMDL
