MODEL 1
REMARK VINA RESULT: -6.593077787      0.000      0.000
REMARK  3 active torsions:
REMARK  status: ('A' for Active; 'I' for Inactive)
REMARK    1  A    between atoms: C7_9  and  C8_10 
REMARK    2  A    between atoms: C8_10  and  N2_11 
REMARK    3  A    between atoms: N2_11  and  C9_13 
ROOT
HETATM    1  C1  UNL     1      -2.095  50.098  10.734  1.00  0.00     0.317 C 
HETATM    2  N1  UNL     1      -1.261  51.125  11.336  1.00  0.00     0.147 N 
HETATM    3  C2  UNL     1       0.055  51.056  10.689  1.00  0.00     0.279 C 
HETATM    4  C3  UNL     1      -0.163  51.693   9.328  1.00  0.00     0.038 C 
HETATM    5  C4  UNL     1      -1.430  52.520   9.471  1.00  0.00     0.106 C 
HETATM    6  C5  UNL     1      -1.672  52.454  10.943  1.00  0.00     0.373 C 
HETATM    7  O1  UNL     1      -0.900  53.364  11.662  1.00  0.00    -0.328 OA
HETATM    8  C6  UNL     1      -1.415  53.202  12.946  1.00  0.00     0.207 C 
HETATM    9  C7  UNL     1      -2.896  53.106  12.685  1.00  0.00     0.168 C 
HETATM   10  O3  UNL     1      -2.954  52.788  11.336  1.00  0.00    -0.322 OA
ENDROOT
BRANCH   9  11
HETATM   11  C8  UNL     1      -3.589  54.412  13.026  1.00  0.00     0.148 C 
BRANCH  11  12
HETATM   12  N2  UNL     1      -4.760  54.505  12.246  1.00  0.00    -0.412 N 
ATOM     13  H2  UNL     1      -4.712  54.766  11.262  1.00  0.00     0.153 HD
BRANCH  12  14
HETATM   14  C9  UNL     1      -6.002  54.229  12.859  1.00  0.00     0.102 C 
HETATM   15  C10 UNL     1      -7.195  54.181  11.983  1.00  0.00     0.053 C 
HETATM   16  C11 UNL     1      -7.907  55.498  12.329  1.00  0.00     0.169 C 
HETATM   17  O2  UNL     1      -7.692  55.603  13.703  1.00  0.00    -0.389 OA
HETATM   18  C12 UNL     1      -6.332  55.363  13.811  1.00  0.00     0.192 C 
ENDBRANCH  12  14
ENDBRANCH  11  12
ENDBRANCH   9  11
TORSDOF 3
ENDMDL
MODEL 2
REMARK VINA RESULT: -6.305590732      1.367      1.707
REMARK  3 active torsions:
REMARK  status: ('A' for Active; 'I' for Inactive)
REMARK    1  A    between atoms: C7_9  and  C8_10 
REMARK    2  A    between atoms: C8_10  and  N2_11 
REMARK    3  A    between atoms: N2_11  and  C9_13 
ROOT
HETATM    1  C1  UNL     1      -2.667  50.007  12.985  1.00  0.00     0.317 C 
HETATM    2  N1  UNL     1      -2.160  51.306  12.574  1.00  0.00     0.147 N 
HETATM    3  C2  UNL     1      -1.128  51.070  11.557  1.00  0.00     0.279 C 
HETATM    4  C3  UNL     1      -1.909  50.712  10.305  1.00  0.00     0.038 C 
HETATM    5  C4  UNL     1      -3.313  51.243  10.544  1.00  0.00     0.106 C 
HETATM    6  C5  UNL     1      -3.129  52.041  11.792  1.00  0.00     0.373 C 
HETATM    7  O1  UNL     1      -2.602  53.309  11.553  1.00  0.00    -0.328 OA
HETATM    8  C6  UNL     1      -2.672  53.875  12.823  1.00  0.00     0.207 C 
HETATM    9  C7  UNL     1      -4.021  53.408  13.307  1.00  0.00     0.168 C 
HETATM   10  O3  UNL     1      -4.296  52.335  12.470  1.00  0.00    -0.322 OA
ENDROOT
BRANCH   9  11
HETATM   11  C8  UNL     1      -5.044  54.523  13.212  1.00  0.00     0.148 C 
BRANCH  11  12
HETATM   12  N2  UNL     1      -5.575  54.523  11.905  1.00  0.00    -0.412 N 
ATOM     13  H2  UNL     1      -4.960  54.548  11.092  1.00  0.00     0.153 HD
BRANCH  12  14
HETATM   14  C9  UNL     1      -6.977  54.488  11.747  1.00  0.00     0.102 C 
HETATM   15  C10 UNL     1      -7.551  55.253  10.615  1.00  0.00     0.053 C 
HETATM   16  C11 UNL     1      -8.184  56.460  11.326  1.00  0.00     0.169 C 
HETATM   17  O2  UNL     1      -8.690  55.890  12.493  1.00  0.00    -0.389 OA
HETATM   18  C12 UNL     1      -7.614  55.150  12.955  1.00  0.00     0.192 C 
ENDBRANCH  12  14
ENDBRANCH  11  12
ENDBRANCH   9  11
TORSDOF 3
ENDMDL
MODEL 3
REMARK VINA RESULT: -6.235883961      1.136      1.407
REMARK  3 active torsions:
REMARK  status: ('A' for Active; 'I' for Inactive)
REMARK    1  A    between atoms: C7_9  and  C8_10 
REMARK    2  A    between atoms: C8_10  and  N2_11 
REMARK    3  A    between atoms: N2_11  and  C9_13 
ROOT
HETATM    1  C1  UNL     1      -0.247  50.445  10.532  1.00  0.00     0.317 C 
HETATM    2  N1  UNL     1      -0.649  51.798  10.879  1.00  0.00     0.147 N 
HETATM    3  C2  UNL     1      -0.112  52.693   9.847  1.00  0.00     0.279 C 
HETATM    4  C3  UNL     1      -1.020  52.473   8.650  1.00  0.00     0.038 C 
HETATM    5  C4  UNL     1      -2.290  51.861   9.218  1.00  0.00     0.106 C 
HETATM    6  C5  UNL     1      -2.068  52.006  10.687  1.00  0.00     0.373 C 
HETATM    7  O1  UNL     1      -2.374  53.281  11.160  1.00  0.00    -0.328 OA
HETATM    8  C6  UNL     1      -2.227  53.104  12.533  1.00  0.00     0.207 C 
HETATM    9  C7  UNL     1      -2.866  51.757  12.751  1.00  0.00     0.168 C 
HETATM   10  O3  UNL     1      -2.868  51.204  11.478  1.00  0.00    -0.322 OA
ENDROOT
BRANCH   9  11
HETATM   11  C8  UNL     1      -4.254  51.908  13.343  1.00  0.00     0.148 C 
BRANCH  11  12
HETATM   12  N2  UNL     1      -4.589  53.278  13.335  1.00  0.00    -0.412 N 
ATOM     13  H2  UNL     1      -3.947  53.970  12.948  1.00  0.00     0.153 HD
BRANCH  12  14
HETATM   14  C9  UNL     1      -5.832  53.671  13.877  1.00  0.00     0.102 C 
HETATM   15  C10 UNL     1      -7.050  53.290  13.124  1.00  0.00     0.053 C 
HETATM   16  C11 UNL     1      -7.484  54.629  12.508  1.00  0.00     0.169 C 
HETATM   17  O2  UNL     1      -7.193  55.537  13.525  1.00  0.00    -0.389 OA
HETATM   18  C12 UNL     1      -5.900  55.187  13.876  1.00  0.00     0.192 C 
ENDBRANCH  12  14
ENDBRANCH  11  12
ENDBRANCH   9  11
TORSDOF 3
ENDMDL
MODEL 4
REMARK VINA RESULT: -6.180830985      1.264      1.280
REMARK  3 active torsions:
REMARK  status: ('A' for Active; 'I' for Inactive)
REMARK    1  A    between atoms: C7_9  and  C8_10 
REMARK    2  A    between atoms: C8_10  and  N2_11 
REMARK    3  A    between atoms: N2_11  and  C9_13 
ROOT
HETATM    1  C1  UNL     1      -1.671  50.982   8.835  1.00  0.00     0.317 C 
HETATM    2  N1  UNL     1      -1.154  51.003  10.194  1.00  0.00     0.147 N 
HETATM    3  C2  UNL     1       0.310  51.064  10.105  1.00  0.00     0.279 C 
HETATM    4  C3  UNL     1       0.603  52.502   9.716  1.00  0.00     0.038 C 
HETATM    5  C4  UNL     1      -0.648  53.280  10.091  1.00  0.00     0.106 C 
HETATM    6  C5  UNL     1      -1.425  52.260  10.856  1.00  0.00     0.373 C 
HETATM    7  O1  UNL     1      -1.005  52.138  12.180  1.00  0.00    -0.328 OA
HETATM    8  C6  UNL     1      -1.960  51.261  12.686  1.00  0.00     0.207 C 
HETATM    9  C7  UNL     1      -3.232  51.779  12.065  1.00  0.00     0.168 C 
HETATM   10  O3  UNL     1      -2.769  52.543  11.003  1.00  0.00    -0.322 OA
ENDROOT
BRANCH   9  11
HETATM   11  C8  UNL     1      -4.038  52.576  13.072  1.00  0.00     0.148 C 
BRANCH  11  12
HETATM   12  N2  UNL     1      -5.300  52.854  12.505  1.00  0.00    -0.412 N 
ATOM     13  H2  UNL     1      -5.472  52.694  11.513  1.00  0.00     0.153 HD
BRANCH  12  14
HETATM   14  C9  UNL     1      -6.318  53.361  13.341  1.00  0.00     0.102 C 
HETATM   15  C10 UNL     1      -7.642  53.609  12.723  1.00  0.00     0.053 C 
HETATM   16  C11 UNL     1      -7.675  55.142  12.630  1.00  0.00     0.169 C 
HETATM   17  O2  UNL     1      -7.047  55.529  13.814  1.00  0.00    -0.389 OA
HETATM   18  C12 UNL     1      -5.908  54.741  13.818  1.00  0.00     0.192 C 
ENDBRANCH  12  14
ENDBRANCH  11  12
ENDBRANCH   9  11
TORSDOF 3
ENDMDL
MODEL 5
REMARK VINA RESULT: -6.163931789      1.603      2.094
REMARK  3 active torsions:
REMARK  status: ('A' for Active; 'I' for Inactive)
REMARK    1  A    between atoms: C7_9  and  C8_10 
REMARK    2  A    between atoms: C8_10  and  N2_11 
REMARK    3  A    between atoms: N2_11  and  C9_13 
ROOT
HETATM    1  C1  UNL     1       0.456  51.067  10.116  1.00  0.00     0.317 C 
HETATM    2  N1  UNL     1      -0.294  52.237  10.542  1.00  0.00     0.147 N 
HETATM    3  C2  UNL     1      -0.092  53.280   9.528  1.00  0.00     0.279 C 
HETATM    4  C3  UNL     1      -0.967  52.846   8.365  1.00  0.00     0.038 C 
HETATM    5  C4  UNL     1      -1.976  51.879   8.962  1.00  0.00     0.106 C 
HETATM    6  C5  UNL     1      -1.722  52.037  10.424  1.00  0.00     0.373 C 
HETATM    7  O1  UNL     1      -2.351  53.155  10.968  1.00  0.00    -0.328 OA
HETATM    8  C6  UNL     1      -2.082  52.985  12.323  1.00  0.00     0.207 C 
HETATM    9  C7  UNL     1      -2.298  51.505  12.509  1.00  0.00     0.168 C 
HETATM   10  O3  UNL     1      -2.215  51.015  11.213  1.00  0.00    -0.322 OA
ENDROOT
BRANCH   9  11
HETATM   11  C8  UNL     1      -3.636  51.235  13.169  1.00  0.00     0.148 C 
BRANCH  11  12
HETATM   12  N2  UNL     1      -4.652  51.735  12.328  1.00  0.00    -0.412 N 
ATOM     13  H2  UNL     1      -4.631  51.560  11.323  1.00  0.00     0.153 HD
BRANCH  12  14
HETATM   14  C9  UNL     1      -5.698  52.485  12.907  1.00  0.00     0.102 C 
HETATM   15  C10 UNL     1      -6.068  53.757  12.244  1.00  0.00     0.053 C 
HETATM   16  C11 UNL     1      -5.486  54.806  13.203  1.00  0.00     0.169 C 
HETATM   17  O2  UNL     1      -5.725  54.236  14.454  1.00  0.00    -0.389 OA
HETATM   18  C12 UNL     1      -5.258  52.942  14.285  1.00  0.00     0.192 C 
ENDBRANCH  12  14
ENDBRANCH  11  12
ENDBRANCH   9  11
TORSDOF 3
ENDMDL
