MODEL 1
REMARK VINA RESULT: -6.159522545      0.000      0.000
REMARK  4 active torsions:
REMARK  status: ('A' for Active; 'I' for Inactive)
REMARK    1  A    between atoms: C2_2  and  C3_3 
REMARK    2  A    between atoms: C8_10  and  O3_11 
REMARK    3  A    between atoms: C11_17  and  C12_18 
REMARK    4  A    between atoms: C12_18  and  O7_20 
ROOT
HETATM    1  C3  UNL     1      -8.152  55.017  12.308  1.00  0.00     0.184 C 
HETATM    2  O1  UNL     1      -8.963  54.118  11.638  1.00  0.00    -0.346 OA
HETATM    3  C4  UNL     1      -8.676  52.800  11.892  1.00  0.00     0.296 C 
HETATM    4  O2  UNL     1      -9.857  52.079  11.856  1.00  0.00    -0.346 OA
HETATM    5  C5  UNL     1     -10.023  51.562  10.605  1.00  0.00     0.085 C 
HETATM    6  C6  UNL     1     -10.335  50.068  10.706  1.00  0.00     0.048 C 
HETATM    7  C7  UNL     1     -11.158  52.225   9.832  1.00  0.00     0.048 C 
HETATM    8  C8  UNL     1      -8.772  51.730   9.821  1.00  0.00     0.189 C 
HETATM    9  C9  UNL     1      -7.774  52.167  10.865  1.00  0.00     0.247 C 
HETATM   10  O4  UNL     1      -6.822  53.022  10.359  1.00  0.00    -0.222 OA
HETATM   11  O5  UNL     1      -6.197  53.612  11.374  1.00  0.00    -0.199 OA
HETATM   12  C10 UNL     1      -6.775  54.466  12.314  1.00  0.00     0.119 C 
HETATM   13  C11 UNL     1      -6.018  54.828  13.321  1.00  0.00     0.120 C 
ENDROOT
BRANCH   1  14
HETATM   14  C2  UNL     1      -8.125  56.292  11.453  1.00  0.00     0.034 C 
HETATM   15  C1  UNL     1      -8.976  56.023  10.209  1.00  0.00     0.008 C 
ENDBRANCH   1  14
BRANCH  13  16
HETATM   16  C12 UNL     1      -4.635  54.334  13.415  1.00  0.00     0.285 C 
HETATM   17  O6  UNL     1      -3.663  54.954  12.927  1.00  0.00    -0.260 OA
BRANCH  16  18
HETATM   18  O7  UNL     1      -4.359  53.138  14.064  1.00  0.00    -0.323 OA
HETATM   19  C13 UNL     1      -4.175  51.938  13.338  1.00  0.00     0.213 C 
ENDBRANCH  16  18
ENDBRANCH  13  16
BRANCH   8  20
HETATM   20  O3  UNL     1      -8.846  52.754   8.865  1.00  0.00    -0.390 OA
ATOM     21  H3  UNL     1      -9.096  52.447   8.001  1.00  0.00     0.210 HD
ENDBRANCH   8  20
TORSDOF 4
ENDMDL
MODEL 2
REMARK VINA RESULT: -5.909814605      4.062      7.428
REMARK  4 active torsions:
REMARK  status: ('A' for Active; 'I' for Inactive)
REMARK    1  A    between atoms: C2_2  and  C3_3 
REMARK    2  A    between atoms: C8_10  and  O3_11 
REMARK    3  A    between atoms: C11_17  and  C12_18 
REMARK    4  A    between atoms: C12_18  and  O7_20 
ROOT
HETATM    1  C3  UNL     1      -2.525  50.883  12.672  1.00  0.00     0.184 C 
HETATM    2  O1  UNL     1      -1.484  51.114  11.789  1.00  0.00    -0.346 OA
HETATM    3  C4  UNL     1      -1.554  52.321  11.139  1.00  0.00     0.296 C 
HETATM    4  O2  UNL     1      -0.264  52.782  10.931  1.00  0.00    -0.346 OA
HETATM    5  C5  UNL     1       0.149  52.398   9.689  1.00  0.00     0.085 C 
HETATM    6  C6  UNL     1       0.715  53.606   8.942  1.00  0.00     0.048 C 
HETATM    7  C7  UNL     1       1.229  51.323   9.727  1.00  0.00     0.048 C 
HETATM    8  C8  UNL     1      -1.004  51.866   8.917  1.00  0.00     0.189 C 
HETATM    9  C9  UNL     1      -2.188  52.240   9.775  1.00  0.00     0.247 C 
HETATM   10  O4  UNL     1      -3.211  51.323   9.691  1.00  0.00    -0.222 OA
HETATM   11  O5  UNL     1      -4.056  51.535  10.697  1.00  0.00    -0.199 OA
HETATM   12  C10 UNL     1      -3.766  51.411  12.056  1.00  0.00     0.119 C 
HETATM   13  C11 UNL     1      -4.697  51.805  12.892  1.00  0.00     0.120 C 
ENDROOT
BRANCH   1  14
HETATM   14  C2  UNL     1      -2.679  49.359  12.764  1.00  0.00     0.034 C 
HETATM   15  C1  UNL     1      -1.856  48.748  11.628  1.00  0.00     0.008 C 
ENDBRANCH   1  14
BRANCH  13  16
HETATM   16  C12 UNL     1      -5.965  52.344  12.377  1.00  0.00     0.285 C 
HETATM   17  O6  UNL     1      -6.951  51.617  12.119  1.00  0.00    -0.260 OA
BRANCH  16  18
HETATM   18  O7  UNL     1      -6.112  53.707  12.156  1.00  0.00    -0.323 OA
HETATM   19  C13 UNL     1      -6.020  54.635  13.221  1.00  0.00     0.213 C 
ENDBRANCH  16  18
ENDBRANCH  13  16
BRANCH   8  20
HETATM   20  O3  UNL     1      -1.001  50.468   8.803  1.00  0.00    -0.390 OA
ATOM     21  H3  UNL     1      -0.310  50.136   8.243  1.00  0.00     0.210 HD
ENDBRANCH   8  20
TORSDOF 4
ENDMDL
MODEL 3
REMARK VINA RESULT: -5.841887362      3.312      5.494
REMARK  4 active torsions:
REMARK  status: ('A' for Active; 'I' for Inactive)
REMARK    1  A    between atoms: C2_2  and  C3_3 
REMARK    2  A    between atoms: C8_10  and  O3_11 
REMARK    3  A    between atoms: C11_17  and  C12_18 
REMARK    4  A    between atoms: C12_18  and  O7_20 
ROOT
HETATM    1  C3  UNL     1      -6.221  50.922  11.369  1.00  0.00     0.184 C 
HETATM    2  O1  UNL     1      -5.218  50.101  10.881  1.00  0.00    -0.346 OA
HETATM    3  C4  UNL     1      -4.192  49.879  11.765  1.00  0.00     0.296 C 
HETATM    4  O2  UNL     1      -3.713  48.595  11.565  1.00  0.00    -0.346 OA
HETATM    5  C5  UNL     1      -2.654  48.645  10.706  1.00  0.00     0.085 C 
HETATM    6  C6  UNL     1      -1.477  47.870  11.298  1.00  0.00     0.048 C 
HETATM    7  C7  UNL     1      -2.968  48.048   9.339  1.00  0.00     0.048 C 
HETATM    8  C8  UNL     1      -2.235  50.057  10.506  1.00  0.00     0.189 C 
HETATM    9  C9  UNL     1      -3.013  50.795  11.568  1.00  0.00     0.247 C 
HETATM   10  O4  UNL     1      -3.358  52.070  11.180  1.00  0.00    -0.222 OA
HETATM   11  O5  UNL     1      -4.299  52.525  12.003  1.00  0.00    -0.199 OA
HETATM   12  C10 UNL     1      -5.579  51.996  12.165  1.00  0.00     0.119 C 
HETATM   13  C11 UNL     1      -6.305  52.503  13.133  1.00  0.00     0.120 C 
ENDROOT
BRANCH   1  14
HETATM   14  C2  UNL     1      -6.863  51.590  10.145  1.00  0.00     0.034 C 
HETATM   15  C1  UNL     1      -6.017  51.214   8.926  1.00  0.00     0.008 C 
ENDBRANCH   1  14
BRANCH  13  16
HETATM   16  C12 UNL     1      -5.756  53.573  13.979  1.00  0.00     0.285 C 
HETATM   17  O6  UNL     1      -4.831  53.376  14.799  1.00  0.00    -0.260 OA
BRANCH  16  18
HETATM   18  O7  UNL     1      -6.257  54.865  13.892  1.00  0.00    -0.323 OA
HETATM   19  C13 UNL     1      -7.214  55.214  12.911  1.00  0.00     0.213 C 
ENDBRANCH  16  18
ENDBRANCH  13  16
BRANCH   8  20
HETATM   20  O3  UNL     1      -2.625  50.585   9.267  1.00  0.00    -0.390 OA
ATOM     21  H3  UNL     1      -1.942  51.087   8.838  1.00  0.00     0.210 HD
ENDBRANCH   8  20
TORSDOF 4
ENDMDL
MODEL 4
REMARK VINA RESULT: -5.790760120      1.710      5.471
REMARK  4 active torsions:
REMARK  status: ('A' for Active; 'I' for Inactive)
REMARK    1  A    between atoms: C2_2  and  C3_3 
REMARK    2  A    between atoms: C8_10  and  O3_11 
REMARK    3  A    between atoms: C11_17  and  C12_18 
REMARK    4  A    between atoms: C12_18  and  O7_20 
ROOT
HETATM    1  C3  UNL     1      -7.874  54.543  10.321  1.00  0.00     0.184 C 
HETATM    2  O1  UNL     1      -6.779  54.289  11.129  1.00  0.00    -0.346 OA
HETATM    3  C4  UNL     1      -6.631  52.970  11.480  1.00  0.00     0.296 C 
HETATM    4  O2  UNL     1      -5.278  52.692  11.578  1.00  0.00    -0.346 OA
HETATM    5  C5  UNL     1      -4.888  52.841  12.877  1.00  0.00     0.085 C 
HETATM    6  C6  UNL     1      -4.110  51.603  13.323  1.00  0.00     0.048 C 
HETATM    7  C7  UNL     1      -3.997  54.058  13.095  1.00  0.00     0.048 C 
HETATM    8  C8  UNL     1      -6.084  52.984  13.748  1.00  0.00     0.189 C 
HETATM    9  C9  UNL     1      -7.222  52.629  12.823  1.00  0.00     0.247 C 
HETATM   10  O4  UNL     1      -8.375  53.321  13.115  1.00  0.00    -0.222 OA
HETATM   11  O5  UNL     1      -9.210  53.211  12.084  1.00  0.00    -0.199 OA
HETATM   12  C10 UNL     1      -8.992  53.692  10.793  1.00  0.00     0.119 C 
HETATM   13  C11 UNL     1      -9.877  53.354   9.885  1.00  0.00     0.120 C 
ENDROOT
BRANCH   1  14
HETATM   14  C2  UNL     1      -8.274  56.001  10.587  1.00  0.00     0.034 C 
HETATM   15  C1  UNL     1      -8.890  56.547   9.296  1.00  0.00     0.008 C 
ENDBRANCH   1  14
BRANCH  13  16
HETATM   16  C12 UNL     1     -11.023  52.510  10.256  1.00  0.00     0.285 C 
HETATM   17  O6  UNL     1     -10.995  51.261  10.175  1.00  0.00    -0.260 OA
BRANCH  16  18
HETATM   18  O7  UNL     1     -12.199  53.085  10.718  1.00  0.00    -0.323 OA
HETATM   19  C13 UNL     1     -12.852  54.105   9.986  1.00  0.00     0.213 C 
ENDBRANCH  16  18
ENDBRANCH  13  16
BRANCH   8  20
HETATM   20  O3  UNL     1      -6.301  54.299  14.185  1.00  0.00    -0.390 OA
ATOM     21  H3  UNL     1      -5.924  54.481  15.038  1.00  0.00     0.210 HD
ENDBRANCH   8  20
TORSDOF 4
ENDMDL
MODEL 5
REMARK VINA RESULT: -5.717518685      0.995      1.247
REMARK  4 active torsions:
REMARK  status: ('A' for Active; 'I' for Inactive)
REMARK    1  A    between atoms: C2_2  and  C3_3 
REMARK    2  A    between atoms: C8_10  and  O3_11 
REMARK    3  A    between atoms: C11_17  and  C12_18 
REMARK    4  A    between atoms: C12_18  and  O7_20 
ROOT
HETATM    1  C3  UNL     1      -7.683  54.265  12.747  1.00  0.00     0.184 C 
HETATM    2  O1  UNL     1      -8.618  53.611  11.963  1.00  0.00    -0.346 OA
HETATM    3  C4  UNL     1      -8.400  52.262  11.833  1.00  0.00     0.296 C 
HETATM    4  O2  UNL     1      -9.628  51.627  11.746  1.00  0.00    -0.346 OA
HETATM    5  C5  UNL     1      -9.952  51.467  10.430  1.00  0.00     0.085 C 
HETATM    6  C6  UNL     1     -10.356  50.015  10.175  1.00  0.00     0.048 C 
HETATM    7  C7  UNL     1     -11.107  52.359   9.989  1.00  0.00     0.048 C 
HETATM    8  C8  UNL     1      -8.774  51.784   9.580  1.00  0.00     0.189 C 
HETATM    9  C9  UNL     1      -7.651  51.887  10.582  1.00  0.00     0.247 C 
HETATM   10  O4  UNL     1      -6.694  52.804  10.210  1.00  0.00    -0.222 OA
HETATM   11  O5  UNL     1      -5.933  53.077  11.266  1.00  0.00    -0.199 OA
HETATM   12  C10 UNL     1      -6.354  53.675  12.454  1.00  0.00     0.119 C 
HETATM   13  C11 UNL     1      -5.478  53.725  13.429  1.00  0.00     0.120 C 
ENDROOT
BRANCH   1  14
HETATM   14  C2  UNL     1      -7.650  55.718  12.253  1.00  0.00     0.034 C 
HETATM   15  C1  UNL     1      -8.615  55.819  11.070  1.00  0.00     0.008 C 
ENDBRANCH   1  14
BRANCH  13  16
HETATM   16  C12 UNL     1      -4.132  53.165  13.234  1.00  0.00     0.285 C 
HETATM   17  O6  UNL     1      -3.853  51.973  13.499  1.00  0.00    -0.260 OA
BRANCH  16  18
HETATM   18  O7  UNL     1      -3.105  53.958  12.741  1.00  0.00    -0.323 OA
HETATM   19  C13 UNL     1      -1.797  53.444  12.576  1.00  0.00     0.213 C 
ENDBRANCH  16  18
ENDBRANCH  13  16
BRANCH   8  20
HETATM   20  O3  UNL     1      -8.869  53.027   8.937  1.00  0.00    -0.390 OA
ATOM     21  H3  UNL     1      -8.426  53.052   8.097  1.00  0.00     0.210 HD
ENDBRANCH   8  20
TORSDOF 4
ENDMDL
