MODEL 1
REMARK VINA RESULT: -6.781290086      0.000      0.000
REMARK  4 active torsions:
REMARK  status: ('A' for Active; 'I' for Inactive)
REMARK    1  A    between atoms: C3_3  and  C4_4 
REMARK    2  A    between atoms: C5_5  and  O1_6 
REMARK    3  A    between atoms: C12_19  and  O5_20 
REMARK    4  A    between atoms: O5_20  and  C13_21 
ROOT
HETATM    1  C4  UNL     1      -4.527  50.192  11.011  1.00  0.00     0.089 C 
HETATM    2  C5  UNL     1      -3.886  48.939  11.480  1.00  0.00     0.227 C 
HETATM    3  N1  UNL     1      -2.560  48.836  10.972  1.00  0.00    -0.368 N 
ATOM      4  H1  UNL     1      -2.361  47.902  10.615  1.00  0.00     0.161 HD
HETATM    5  C6  UNL     1      -1.585  49.596  10.852  1.00  0.00     0.018 C 
HETATM    6  C7  UNL     1      -0.329  49.017  10.222  1.00  0.00     0.066 C 
HETATM    7  C8  UNL     1      -1.411  50.989  11.214  1.00  0.00     0.136 C 
HETATM    8  C9  UNL     1      -0.220  51.631  10.536  1.00  0.00     0.056 C 
HETATM    9  O2  UNL     1      -1.228  51.228  12.618  1.00  0.00    -0.278 OA
HETATM   10  C10 UNL     1      -1.470  52.611  12.720  1.00  0.00     0.408 C 
HETATM   11  O3  UNL     1      -1.036  53.275  13.713  1.00  0.00    -0.229 OA
HETATM   12  O4  UNL     1      -2.205  53.047  11.625  1.00  0.00    -0.286 OA
HETATM   13  C11 UNL     1      -2.625  51.857  10.961  1.00  0.00     0.205 C 
HETATM   14  C12 UNL     1      -3.838  51.369  11.679  1.00  0.00     0.176 C 
ENDROOT
BRANCH  14  15
HETATM   15  O5  UNL     1      -4.780  52.431  11.683  1.00  0.00    -0.313 OA
BRANCH  15  16
HETATM   16  C13 UNL     1      -5.027  53.211  12.805  1.00  0.00     0.255 C 
HETATM   17  C14 UNL     1      -5.179  52.527  14.122  1.00  0.00     0.126 C 
HETATM   18  O6  UNL     1      -5.109  54.439  12.659  1.00  0.00    -0.266 OA
ENDBRANCH  15  16
ENDBRANCH  14  15
BRANCH   1  19
HETATM   19  C3  UNL     1      -5.974  50.323  11.261  1.00  0.00    -0.020 C 
HETATM   20  C2  UNL     1      -6.961  50.213  10.421  1.00  0.00    -0.034 C 
HETATM   21  C1  UNL     1      -8.379  50.379  10.842  1.00  0.00     0.036 C 
ENDBRANCH   1  19
BRANCH   2  22
HETATM   22  O1  UNL     1      -4.605  47.791  11.093  1.00  0.00    -0.376 OA
ATOM     23  H1  UNL     1      -4.423  47.045  11.652  1.00  0.00     0.212 HD
ENDBRANCH   2  22
TORSDOF 4
ENDMDL
MODEL 2
REMARK VINA RESULT: -6.191881649      1.740      4.610
REMARK  4 active torsions:
REMARK  status: ('A' for Active; 'I' for Inactive)
REMARK    1  A    between atoms: C3_3  and  C4_4 
REMARK    2  A    between atoms: C5_5  and  O1_6 
REMARK    3  A    between atoms: C12_19  and  O5_20 
REMARK    4  A    between atoms: O5_20  and  C13_21 
ROOT
HETATM    1  C4  UNL     1      -4.286  50.065  11.468  1.00  0.00     0.089 C 
HETATM    2  C5  UNL     1      -5.169  50.395  10.323  1.00  0.00     0.227 C 
HETATM    3  N1  UNL     1      -6.425  50.882  10.785  1.00  0.00    -0.368 N 
ATOM      4  H1  UNL     1      -7.204  50.464  10.278  1.00  0.00     0.161 HD
HETATM    5  C6  UNL     1      -6.811  51.685  11.649  1.00  0.00     0.018 C 
HETATM    6  C7  UNL     1      -8.311  51.888  11.785  1.00  0.00     0.066 C 
HETATM    7  C8  UNL     1      -6.072  52.500  12.593  1.00  0.00     0.136 C 
HETATM    8  C9  UNL     1      -6.933  53.025  13.721  1.00  0.00     0.056 C 
HETATM    9  O2  UNL     1      -5.439  53.656  12.024  1.00  0.00    -0.278 OA
HETATM   10  C10 UNL     1      -4.520  54.019  13.026  1.00  0.00     0.408 C 
HETATM   11  O3  UNL     1      -4.046  55.197  13.079  1.00  0.00    -0.229 OA
HETATM   12  O4  UNL     1      -4.267  52.933  13.854  1.00  0.00    -0.286 OA
HETATM   13  C11 UNL     1      -4.864  51.816  13.197  1.00  0.00     0.205 C 
HETATM   14  C12 UNL     1      -3.891  51.355  12.165  1.00  0.00     0.176 C 
ENDROOT
BRANCH  14  15
HETATM   15  O5  UNL     1      -2.666  51.088  12.831  1.00  0.00    -0.313 OA
BRANCH  15  16
HETATM   16  C13 UNL     1      -1.553  51.909  12.712  1.00  0.00     0.255 C 
HETATM   17  C14 UNL     1      -1.310  52.588  11.407  1.00  0.00     0.126 C 
HETATM   18  O6  UNL     1      -0.813  52.040  13.699  1.00  0.00    -0.266 OA
ENDBRANCH  15  16
ENDBRANCH  14  15
BRANCH   1  19
HETATM   19  C3  UNL     1      -3.046  49.332  11.152  1.00  0.00    -0.020 C 
HETATM   20  C2  UNL     1      -2.738  48.096  11.417  1.00  0.00    -0.034 C 
HETATM   21  C1  UNL     1      -1.428  47.508  11.025  1.00  0.00     0.036 C 
ENDBRANCH   1  19
BRANCH   2  22
HETATM   22  O1  UNL     1      -5.398  49.287   9.484  1.00  0.00    -0.376 OA
ATOM     23  H1  UNL     1      -5.762  49.539   8.643  1.00  0.00     0.212 HD
ENDBRANCH   2  22
TORSDOF 4
ENDMDL
MODEL 3
REMARK VINA RESULT: -6.179496240      2.063      5.702
REMARK  4 active torsions:
REMARK  status: ('A' for Active; 'I' for Inactive)
REMARK    1  A    between atoms: C3_3  and  C4_4 
REMARK    2  A    between atoms: C5_5  and  O1_6 
REMARK    3  A    between atoms: C12_19  and  O5_20 
REMARK    4  A    between atoms: O5_20  and  C13_21 
ROOT
HETATM    1  C4  UNL     1      -1.969  52.501  11.214  1.00  0.00     0.089 C 
HETATM    2  C5  UNL     1      -1.944  52.452  12.696  1.00  0.00     0.227 C 
HETATM    3  N1  UNL     1      -3.255  52.624  13.223  1.00  0.00    -0.368 N 
ATOM      4  H1  UNL     1      -3.267  53.275  14.008  1.00  0.00     0.161 HD
HETATM    5  C6  UNL     1      -4.388  52.183  12.969  1.00  0.00     0.018 C 
HETATM    6  C7  UNL     1      -5.533  52.676  13.838  1.00  0.00     0.066 C 
HETATM    7  C8  UNL     1      -4.844  51.250  11.958  1.00  0.00     0.136 C 
HETATM    8  C9  UNL     1      -6.341  51.297  11.743  1.00  0.00     0.056 C 
HETATM    9  O2  UNL     1      -4.539  49.873  12.228  1.00  0.00    -0.278 OA
HETATM   10  C10 UNL     1      -4.731  49.272  10.971  1.00  0.00     0.408 C 
HETATM   11  O3  UNL     1      -4.937  48.021  10.873  1.00  0.00    -0.229 OA
HETATM   12  O4  UNL     1      -4.654  50.230   9.968  1.00  0.00    -0.286 OA
HETATM   13  C11 UNL     1      -4.167  51.405  10.613  1.00  0.00     0.205 C 
HETATM   14  C12 UNL     1      -2.684  51.264  10.699  1.00  0.00     0.176 C 
ENDROOT
BRANCH  14  15
HETATM   15  O5  UNL     1      -2.205  51.048   9.380  1.00  0.00    -0.313 OA
BRANCH  15  16
HETATM   16  C13 UNL     1      -1.720  49.820   8.950  1.00  0.00     0.255 C 
HETATM   17  C14 UNL     1      -1.187  48.873   9.971  1.00  0.00     0.126 C 
HETATM   18  O6  UNL     1      -1.754  49.570   7.736  1.00  0.00    -0.266 OA
ENDBRANCH  15  16
ENDBRANCH  14  15
BRANCH   1  19
HETATM   19  C3  UNL     1      -0.661  52.572  10.536  1.00  0.00    -0.020 C 
HETATM   20  C2  UNL     1      -0.214  53.480   9.718  1.00  0.00    -0.034 C 
HETATM   21  C1  UNL     1       1.144  53.399   9.114  1.00  0.00     0.036 C 
ENDBRANCH   1  19
BRANCH   2  22
HETATM   22  O1  UNL     1      -1.103  53.436  13.251  1.00  0.00    -0.376 OA
ATOM     23  H1  UNL     1      -0.940  53.293  14.176  1.00  0.00     0.212 HD
ENDBRANCH   2  22
TORSDOF 4
ENDMDL
MODEL 4
REMARK VINA RESULT: -5.976634786      2.508      4.753
REMARK  4 active torsions:
REMARK  status: ('A' for Active; 'I' for Inactive)
REMARK    1  A    between atoms: C3_3  and  C4_4 
REMARK    2  A    between atoms: C5_5  and  O1_6 
REMARK    3  A    between atoms: C12_19  and  O5_20 
REMARK    4  A    between atoms: O5_20  and  C13_21 
ROOT
HETATM    1  C4  UNL     1      -6.509  51.374  11.256  1.00  0.00     0.089 C 
HETATM    2  C5  UNL     1      -6.886  52.432  10.288  1.00  0.00     0.227 C 
HETATM    3  N1  UNL     1      -7.355  53.590  10.970  1.00  0.00    -0.368 N 
ATOM      4  H1  UNL     1      -8.201  53.966  10.543  1.00  0.00     0.161 HD
HETATM    5  C6  UNL     1      -6.996  54.257  11.954  1.00  0.00     0.018 C 
HETATM    6  C7  UNL     1      -7.848  55.459  12.324  1.00  0.00     0.066 C 
HETATM    7  C8  UNL     1      -5.872  54.098  12.856  1.00  0.00     0.136 C 
HETATM    8  C9  UNL     1      -6.030  54.880  14.142  1.00  0.00     0.056 C 
HETATM    9  O2  UNL     1      -4.605  54.503  12.315  1.00  0.00    -0.278 OA
HETATM   10  C10 UNL     1      -3.694  53.903  13.204  1.00  0.00     0.408 C 
HETATM   11  O3  UNL     1      -2.501  54.332  13.301  1.00  0.00    -0.229 OA
HETATM   12  O4  UNL     1      -4.308  52.856  13.879  1.00  0.00    -0.286 OA
HETATM   13  C11 UNL     1      -5.553  52.662  13.211  1.00  0.00     0.205 C 
HETATM   14  C12 UNL     1      -5.270  51.824  12.010  1.00  0.00     0.176 C 
ENDROOT
BRANCH  14  15
HETATM   15  O5  UNL     1      -4.629  50.641  12.464  1.00  0.00    -0.313 OA
BRANCH  15  16
HETATM   16  C13 UNL     1      -3.315  50.328  12.140  1.00  0.00     0.255 C 
HETATM   17  C14 UNL     1      -2.694  49.134  12.783  1.00  0.00     0.126 C 
HETATM   18  O6  UNL     1      -2.722  51.056  11.331  1.00  0.00    -0.266 OA
ENDBRANCH  15  16
ENDBRANCH  14  15
BRANCH   1  19
HETATM   19  C3  UNL     1      -6.229  50.039  10.696  1.00  0.00    -0.020 C 
HETATM   20  C2  UNL     1      -7.068  49.122  10.312  1.00  0.00    -0.034 C 
HETATM   21  C1  UNL     1      -6.613  47.814   9.766  1.00  0.00     0.036 C 
ENDBRANCH   1  19
BRANCH   2  22
HETATM   22  O1  UNL     1      -7.882  52.006   9.388  1.00  0.00    -0.376 OA
ATOM     23  H1  UNL     1      -8.068  52.655   8.719  1.00  0.00     0.212 HD
ENDBRANCH   2  22
TORSDOF 4
ENDMDL
MODEL 5
REMARK VINA RESULT: -5.773103814      3.486      4.962
REMARK  4 active torsions:
REMARK  status: ('A' for Active; 'I' for Inactive)
REMARK    1  A    between atoms: C3_3  and  C4_4 
REMARK    2  A    between atoms: C5_5  and  O1_6 
REMARK    3  A    between atoms: C12_19  and  O5_20 
REMARK    4  A    between atoms: O5_20  and  C13_21 
ROOT
HETATM    1  C4  UNL     1      -7.748  52.915  10.796  1.00  0.00     0.089 C 
HETATM    2  C5  UNL     1      -7.783  51.678  11.614  1.00  0.00     0.227 C 
HETATM    3  N1  UNL     1      -6.481  51.360  12.093  1.00  0.00    -0.368 N 
ATOM      4  H1  UNL     1      -6.268  50.368  11.986  1.00  0.00     0.161 HD
HETATM    5  C6  UNL     1      -5.538  51.984  12.608  1.00  0.00     0.018 C 
HETATM    6  C7  UNL     1      -4.295  51.187  12.966  1.00  0.00     0.066 C 
HETATM    7  C8  UNL     1      -5.393  53.386  12.944  1.00  0.00     0.136 C 
HETATM    8  C9  UNL     1      -3.954  53.791  13.179  1.00  0.00     0.056 C 
HETATM    9  O2  UNL     1      -6.104  53.800  14.120  1.00  0.00    -0.278 OA
HETATM   10  C10 UNL     1      -6.109  55.201  13.990  1.00  0.00     0.408 C 
HETATM   11  O3  UNL     1      -6.297  55.948  15.002  1.00  0.00    -0.229 OA
HETATM   12  O4  UNL     1      -5.891  55.556  12.665  1.00  0.00    -0.286 OA
HETATM   13  C11 UNL     1      -5.993  54.337  11.931  1.00  0.00     0.205 C 
HETATM   14  C12 UNL     1      -7.447  54.092  11.707  1.00  0.00     0.176 C 
ENDROOT
BRANCH  14  15
HETATM   15  O5  UNL     1      -7.973  55.241  11.059  1.00  0.00    -0.313 OA
BRANCH  15  16
HETATM   16  C13 UNL     1      -8.965  56.032  11.623  1.00  0.00     0.255 C 
HETATM   17  C14 UNL     1      -9.768  56.908  10.722  1.00  0.00     0.126 C 
HETATM   18  O6  UNL     1      -9.136  55.972  12.850  1.00  0.00    -0.266 OA
ENDBRANCH  15  16
ENDBRANCH  14  15
BRANCH   1  19
HETATM   19  C3  UNL     1      -8.973  53.239  10.041  1.00  0.00    -0.020 C 
HETATM   20  C2  UNL     1      -9.187  53.161   8.760  1.00  0.00    -0.034 C 
HETATM   21  C1  UNL     1     -10.494  53.533   8.154  1.00  0.00     0.036 C 
ENDBRANCH   1  19
BRANCH   2  22
HETATM   22  O1  UNL     1      -8.280  50.573  10.896  1.00  0.00    -0.376 OA
ATOM     23  H1  UNL     1      -7.603  49.940  10.692  1.00  0.00     0.212 HD
ENDBRANCH   2  22
TORSDOF 4
ENDMDL
