MODEL 1
REMARK VINA RESULT: -7.903250935      0.000      0.000
REMARK  3 active torsions:
REMARK  status: ('A' for Active; 'I' for Inactive)
REMARK    1  A    between atoms: C5_7  and  O3_8 
REMARK    2  A    between atoms: O3_8  and  C6_9 
REMARK    3  A    between atoms: C7_12  and  C8_13 
ROOT
HETATM    1  C1  UNL     1      -5.262  47.674  10.293  1.00  0.00     0.078 C 
HETATM    2  C2  UNL     1      -4.455  48.926  10.579  1.00  0.00     0.160 C 
HETATM    3  C3  UNL     1      -3.001  48.499  10.591  1.00  0.00     0.078 C 
HETATM    4  O1  UNL     1      -4.604  49.891   9.622  1.00  0.00    -0.323 OA
HETATM    5  C4  UNL     1      -4.799  51.113  10.298  1.00  0.00     0.296 C 
HETATM    6  O2  UNL     1      -3.619  51.730  10.611  1.00  0.00    -0.327 OA
HETATM    7  C5  UNL     1      -3.540  51.912  11.962  1.00  0.00     0.286 C 
HETATM    8  C7  UNL     1      -4.897  51.699  12.559  1.00  0.00     0.108 C 
HETATM    9  C14 UNL     1      -5.447  50.657  11.572  1.00  0.00     0.193 C 
HETATM   10  O6  UNL     1      -4.894  49.425  11.781  1.00  0.00    -0.345 OA
ENDROOT
BRANCH   8  11
HETATM   11  C8  UNL     1      -5.767  52.868  12.590  1.00  0.00    -0.045 A 
HETATM   12  C9  UNL     1      -6.766  53.089  11.675  1.00  0.00     0.008 A 
HETATM   13  C10 UNL     1      -7.590  54.213  11.737  1.00  0.00     0.002 A 
HETATM   14  C11 UNL     1      -7.394  55.129  12.749  1.00  0.00     0.026 A 
HETATM   15  C12 UNL     1      -6.385  54.929  13.693  1.00  0.00     0.046 A 
HETATM   16  N1  UNL     1      -6.248  55.904  14.692  1.00  0.00    -0.102 NA
HETATM   17  C13 UNL     1      -5.590  53.806  13.599  1.00  0.00     0.034 A 
ENDBRANCH   8  11
BRANCH   7  18
HETATM   18  O3  UNL     1      -2.950  53.133  12.344  1.00  0.00    -0.263 OA
BRANCH  18  19
HETATM   19  C6  UNL     1      -1.583  53.293  12.437  1.00  0.00     0.335 C 
HETATM   20  O4  UNL     1      -1.100  53.298  13.608  1.00  0.00    -0.624 OA
HETATM   21  O5  UNL     1      -0.764  53.444  11.313  1.00  0.00    -0.624 OA
ENDBRANCH  18  19
ENDBRANCH   7  18
TORSDOF 3
ENDMDL
MODEL 2
REMARK VINA RESULT: -7.656432638      1.200      1.628
REMARK  3 active torsions:
REMARK  status: ('A' for Active; 'I' for Inactive)
REMARK    1  A    between atoms: C5_7  and  O3_8 
REMARK    2  A    between atoms: O3_8  and  C6_9 
REMARK    3  A    between atoms: C7_12  and  C8_13 
ROOT
HETATM    1  C1  UNL     1      -3.273  46.603  10.430  1.00  0.00     0.078 C 
HETATM    2  C2  UNL     1      -2.910  48.070  10.558  1.00  0.00     0.160 C 
HETATM    3  C3  UNL     1      -1.399  48.141  10.477  1.00  0.00     0.078 C 
HETATM    4  O1  UNL     1      -3.424  48.839   9.550  1.00  0.00    -0.323 OA
HETATM    5  C4  UNL     1      -3.973  49.990  10.152  1.00  0.00     0.296 C 
HETATM    6  O2  UNL     1      -3.047  50.983  10.319  1.00  0.00    -0.327 OA
HETATM    7  C5  UNL     1      -2.956  51.308  11.642  1.00  0.00     0.286 C 
HETATM    8  C7  UNL     1      -4.130  50.724  12.366  1.00  0.00     0.108 C 
HETATM    9  C14 UNL     1      -4.360  49.471  11.506  1.00  0.00     0.193 C 
HETATM   10  O6  UNL     1      -3.420  48.512  11.754  1.00  0.00    -0.345 OA
ENDROOT
BRANCH   8  11
HETATM   11  C8  UNL     1      -5.334  51.545  12.388  1.00  0.00    -0.045 A 
HETATM   12  C9  UNL     1      -6.489  51.208  11.726  1.00  0.00     0.008 A 
HETATM   13  C10 UNL     1      -7.629  52.010  11.775  1.00  0.00     0.002 A 
HETATM   14  C11 UNL     1      -7.595  53.176  12.510  1.00  0.00     0.026 A 
HETATM   15  C12 UNL     1      -6.433  53.543  13.192  1.00  0.00     0.046 A 
HETATM   16  N1  UNL     1      -6.476  54.743  13.918  1.00  0.00    -0.102 NA
HETATM   17  C13 UNL     1      -5.325  52.726  13.120  1.00  0.00     0.034 A 
ENDBRANCH   8  11
BRANCH   7  18
HETATM   18  O3  UNL     1      -2.782  52.685  11.885  1.00  0.00    -0.263 OA
BRANCH  18  19
HETATM   19  C6  UNL     1      -1.573  53.215  12.286  1.00  0.00     0.335 C 
HETATM   20  O4  UNL     1      -0.786  53.575  11.359  1.00  0.00    -0.624 OA
HETATM   21  O5  UNL     1      -1.220  53.353  13.632  1.00  0.00    -0.624 OA
ENDBRANCH  18  19
ENDBRANCH   7  18
TORSDOF 3
ENDMDL
MODEL 3
REMARK VINA RESULT: -7.375729644      1.033      1.451
REMARK  3 active torsions:
REMARK  status: ('A' for Active; 'I' for Inactive)
REMARK    1  A    between atoms: C5_7  and  O3_8 
REMARK    2  A    between atoms: O3_8  and  C6_9 
REMARK    3  A    between atoms: C7_12  and  C8_13 
ROOT
HETATM    1  C1  UNL     1      -5.370  47.815  10.338  1.00  0.00     0.078 C 
HETATM    2  C2  UNL     1      -4.544  49.053  10.626  1.00  0.00     0.160 C 
HETATM    3  C3  UNL     1      -3.093  48.619  10.560  1.00  0.00     0.078 C 
HETATM    4  O1  UNL     1      -4.729  50.047   9.706  1.00  0.00    -0.323 OA
HETATM    5  C4  UNL     1      -4.887  51.250  10.426  1.00  0.00     0.296 C 
HETATM    6  O2  UNL     1      -3.690  51.851  10.705  1.00  0.00    -0.327 OA
HETATM    7  C5  UNL     1      -3.550  51.992  12.056  1.00  0.00     0.286 C 
HETATM    8  C7  UNL     1      -4.881  51.767  12.706  1.00  0.00     0.108 C 
HETATM    9  C14 UNL     1      -5.480  50.757  11.714  1.00  0.00     0.193 C 
HETATM   10  O6  UNL     1      -4.926  49.518  11.860  1.00  0.00    -0.345 OA
ENDROOT
BRANCH   8  11
HETATM   11  C8  UNL     1      -5.741  52.938  12.811  1.00  0.00    -0.045 A 
HETATM   12  C9  UNL     1      -5.425  54.039  13.567  1.00  0.00     0.008 A 
HETATM   13  C10 UNL     1      -6.265  55.151  13.640  1.00  0.00     0.002 A 
HETATM   14  C11 UNL     1      -7.447  55.142  12.932  1.00  0.00     0.026 A 
HETATM   15  C12 UNL     1      -7.794  54.034  12.156  1.00  0.00     0.046 A 
HETATM   16  N1  UNL     1      -9.012  54.100  11.465  1.00  0.00    -0.102 NA
HETATM   17  C13 UNL     1      -6.939  52.954  12.108  1.00  0.00     0.034 A 
ENDBRANCH   8  11
BRANCH   7  18
HETATM   18  O3  UNL     1      -2.936  53.197  12.448  1.00  0.00    -0.263 OA
BRANCH  18  19
HETATM   19  C6  UNL     1      -1.566  53.325  12.558  1.00  0.00     0.335 C 
HETATM   20  O4  UNL     1      -1.101  53.353  13.736  1.00  0.00    -0.624 OA
HETATM   21  O5  UNL     1      -0.727  53.420  11.443  1.00  0.00    -0.624 OA
ENDBRANCH  18  19
ENDBRANCH   7  18
TORSDOF 3
ENDMDL
MODEL 4
REMARK VINA RESULT: -7.351527702      1.773      2.390
REMARK  3 active torsions:
REMARK  status: ('A' for Active; 'I' for Inactive)
REMARK    1  A    between atoms: C5_7  and  O3_8 
REMARK    2  A    between atoms: O3_8  and  C6_9 
REMARK    3  A    between atoms: C7_12  and  C8_13 
ROOT
HETATM    1  C1  UNL     1      -1.844  47.870   9.216  1.00  0.00     0.078 C 
HETATM    2  C2  UNL     1      -2.042  49.192   9.933  1.00  0.00     0.160 C 
HETATM    3  C3  UNL     1      -0.674  49.613  10.429  1.00  0.00     0.078 C 
HETATM    4  O1  UNL     1      -2.518  50.179   9.116  1.00  0.00    -0.323 OA
HETATM    5  C4  UNL     1      -3.555  50.828   9.818  1.00  0.00     0.296 C 
HETATM    6  O2  UNL     1      -3.091  51.836  10.619  1.00  0.00    -0.327 OA
HETATM    7  C5  UNL     1      -3.447  51.593  11.915  1.00  0.00     0.286 C 
HETATM    8  C7  UNL     1      -4.495  50.523  11.937  1.00  0.00     0.108 C 
HETATM    9  C14 UNL     1      -4.067  49.724  10.695  1.00  0.00     0.193 C 
HETATM   10  O6  UNL     1      -2.951  48.975  10.939  1.00  0.00    -0.345 OA
ENDROOT
BRANCH   8  11
HETATM   11  C8  UNL     1      -5.871  50.981  11.789  1.00  0.00    -0.045 A 
HETATM   12  C9  UNL     1      -6.793  50.350  10.992  1.00  0.00     0.008 A 
HETATM   13  C10 UNL     1      -8.107  50.806  10.879  1.00  0.00     0.002 A 
HETATM   14  C11 UNL     1      -8.489  51.923  11.590  1.00  0.00     0.026 A 
HETATM   15  C12 UNL     1      -7.571  52.584  12.408  1.00  0.00     0.046 A 
HETATM   16  N1  UNL     1      -8.035  53.713  13.100  1.00  0.00    -0.102 NA
HETATM   17  C13 UNL     1      -6.281  52.105  12.495  1.00  0.00     0.034 A 
ENDBRANCH   8  11
BRANCH   7  18
HETATM   18  O3  UNL     1      -3.813  52.746  12.636  1.00  0.00    -0.263 OA
BRANCH  18  19
HETATM   19  C6  UNL     1      -2.905  53.733  12.960  1.00  0.00     0.335 C 
HETATM   20  O4  UNL     1      -3.350  54.919  12.971  1.00  0.00    -0.624 OA
HETATM   21  O5  UNL     1      -1.567  53.456  13.259  1.00  0.00    -0.624 OA
ENDBRANCH  18  19
ENDBRANCH   7  18
TORSDOF 3
ENDMDL
MODEL 5
REMARK VINA RESULT: -7.208856558      1.876      2.450
REMARK  3 active torsions:
REMARK  status: ('A' for Active; 'I' for Inactive)
REMARK    1  A    between atoms: C5_7  and  O3_8 
REMARK    2  A    between atoms: O3_8  and  C6_9 
REMARK    3  A    between atoms: C7_12  and  C8_13 
ROOT
HETATM    1  C1  UNL     1      -3.063  46.513  10.529  1.00  0.00     0.078 C 
HETATM    2  C2  UNL     1      -2.744  47.994  10.612  1.00  0.00     0.160 C 
HETATM    3  C3  UNL     1      -1.238  48.110  10.492  1.00  0.00     0.078 C 
HETATM    4  O1  UNL     1      -3.307  48.721   9.600  1.00  0.00    -0.323 OA
HETATM    5  C4  UNL     1      -3.878  49.869  10.188  1.00  0.00     0.296 C 
HETATM    6  O2  UNL     1      -2.980  50.894  10.309  1.00  0.00    -0.327 OA
HETATM    7  C5  UNL     1      -2.868  51.254  11.621  1.00  0.00     0.286 C 
HETATM    8  C7  UNL     1      -4.005  50.651  12.387  1.00  0.00     0.108 C 
HETATM    9  C14 UNL     1      -4.215  49.371  11.563  1.00  0.00     0.193 C 
HETATM   10  O6  UNL     1      -3.239  48.448  11.810  1.00  0.00    -0.345 OA
ENDROOT
BRANCH   8  11
HETATM   11  C8  UNL     1      -5.234  51.434  12.421  1.00  0.00    -0.045 A 
HETATM   12  C9  UNL     1      -5.389  52.560  13.190  1.00  0.00     0.008 A 
HETATM   13  C10 UNL     1      -6.575  53.295  13.193  1.00  0.00     0.002 A 
HETATM   14  C11 UNL     1      -7.621  52.877  12.399  1.00  0.00     0.026 A 
HETATM   15  C12 UNL     1      -7.490  51.735  11.607  1.00  0.00     0.046 A 
HETATM   16  N1  UNL     1      -8.598  51.374  10.827  1.00  0.00    -0.102 NA
HETATM   17  C13 UNL     1      -6.304  51.033  11.630  1.00  0.00     0.034 A 
ENDBRANCH   8  11
BRANCH   7  18
HETATM   18  O3  UNL     1      -2.732  52.641  11.827  1.00  0.00    -0.263 OA
BRANCH  18  19
HETATM   19  C6  UNL     1      -1.545  53.212  12.240  1.00  0.00     0.335 C 
HETATM   20  O4  UNL     1      -0.759  53.591  11.322  1.00  0.00    -0.624 OA
HETATM   21  O5  UNL     1      -1.214  53.369  13.590  1.00  0.00    -0.624 OA
ENDBRANCH  18  19
ENDBRANCH   7  18
TORSDOF 3
ENDMDL
