MODEL 1
REMARK VINA RESULT: -7.433446734      0.000      0.000
REMARK  3 active torsions:
REMARK  status: ('A' for Active; 'I' for Inactive)
REMARK    1  A    between atoms: C2_2  and  C3_3 
REMARK    2  A    between atoms: C3_3  and  C5_5 
REMARK    3  A    between atoms: C13_19  and  O7_20 
ROOT
HETATM    1  C5  UNL     1      -5.969  53.607  12.514  1.00  0.00     0.152 C 
HETATM    2  C6  UNL     1      -5.299  54.598  13.376  1.00  0.00     0.200 C 
HETATM    3  O1  UNL     1      -3.934  54.682  13.066  1.00  0.00    -0.376 OA
HETATM    4  C7  UNL     1      -3.346  53.456  13.196  1.00  0.00     0.213 C 
HETATM    5  C8  UNL     1      -4.038  52.558  12.152  1.00  0.00     0.298 C 
HETATM    6  O2  UNL     1      -5.301  52.350  12.621  1.00  0.00    -0.351 OA
HETATM    7  O3  UNL     1      -3.202  51.478  12.164  1.00  0.00    -0.295 OA
HETATM    8  C9  UNL     1      -1.939  52.033  11.975  1.00  0.00     0.345 C 
HETATM    9  O4  UNL     1      -0.965  51.186  12.549  1.00  0.00    -0.165 OA
HETATM   10  O5  UNL     1      -1.045  50.158  11.700  1.00  0.00    -0.196 OA
HETATM   11  C10 UNL     1      -0.952  50.825  10.478  1.00  0.00     0.196 C 
HETATM   12  C11 UNL     1       0.524  51.010  10.193  1.00  0.00     0.081 C 
HETATM   13  C12 UNL     1      -1.637  50.028   9.396  1.00  0.00     0.081 C 
HETATM   14  O6  UNL     1      -1.541  52.078  10.665  1.00  0.00    -0.290 OA
HETATM   15  C13 UNL     1      -1.946  53.382  12.658  1.00  0.00     0.247 C 
ENDROOT
BRANCH  15  16
HETATM   16  O7  UNL     1      -0.968  53.453  13.613  1.00  0.00    -0.385 OA
ATOM     17  H7  UNL     1      -1.100  52.877  14.356  1.00  0.00     0.210 HD
ENDBRANCH  15  16
BRANCH   1  18
HETATM   18  C3  UNL     1      -7.399  53.317  12.707  1.00  0.00     0.012 C 
HETATM   19  C4  UNL     1      -7.648  52.021  11.866  1.00  0.00     0.012 C 
BRANCH  18  20
HETATM   20  C2  UNL     1      -8.417  54.299  12.290  1.00  0.00     0.002 C 
HETATM   21  C1  UNL     1      -8.104  54.982  11.002  1.00  0.00     0.005 C 
ENDBRANCH  18  20
ENDBRANCH   1  18
TORSDOF 3
ENDMDL
MODEL 2
REMARK VINA RESULT: -6.851831895      1.875      3.110
REMARK  3 active torsions:
REMARK  status: ('A' for Active; 'I' for Inactive)
REMARK    1  A    between atoms: C2_2  and  C3_3 
REMARK    2  A    between atoms: C3_3  and  C5_5 
REMARK    3  A    between atoms: C13_19  and  O7_20 
ROOT
HETATM    1  C5  UNL     1      -7.790  55.106  11.309  1.00  0.00     0.152 C 
HETATM    2  C6  UNL     1      -7.955  55.475  12.727  1.00  0.00     0.200 C 
HETATM    3  O1  UNL     1      -6.781  55.212  13.447  1.00  0.00    -0.376 OA
HETATM    4  C7  UNL     1      -6.445  53.893  13.330  1.00  0.00     0.213 C 
HETATM    5  C8  UNL     1      -6.167  53.674  11.830  1.00  0.00     0.298 C 
HETATM    6  O2  UNL     1      -7.380  53.742  11.214  1.00  0.00    -0.351 OA
HETATM    7  O3  UNL     1      -5.574  52.443  11.867  1.00  0.00    -0.295 OA
HETATM    8  C9  UNL     1      -4.566  52.587  12.817  1.00  0.00     0.345 C 
HETATM    9  O4  UNL     1      -4.284  51.330  13.395  1.00  0.00    -0.165 OA
HETATM   10  O5  UNL     1      -3.716  50.732  12.344  1.00  0.00    -0.196 OA
HETATM   11  C10 UNL     1      -2.786  51.702  11.966  1.00  0.00     0.196 C 
HETATM   12  C11 UNL     1      -1.555  51.483  12.820  1.00  0.00     0.081 C 
HETATM   13  C12 UNL     1      -2.477  51.583  10.495  1.00  0.00     0.081 C 
HETATM   14  O6  UNL     1      -3.351  52.938  12.290  1.00  0.00    -0.290 OA
HETATM   15  C13 UNL     1      -5.081  53.554  13.860  1.00  0.00     0.247 C 
ENDROOT
BRANCH  15  16
HETATM   16  O7  UNL     1      -5.082  52.978  15.102  1.00  0.00    -0.385 OA
ATOM     17  H7  UNL     1      -5.769  53.289  15.680  1.00  0.00     0.210 HD
ENDBRANCH  15  16
BRANCH   1  18
HETATM   18  C3  UNL     1      -8.922  55.248  10.379  1.00  0.00     0.012 C 
HETATM   19  C4  UNL     1      -8.255  55.606   9.009  1.00  0.00     0.012 C 
BRANCH  18  20
HETATM   20  C2  UNL     1      -9.960  56.266  10.627  1.00  0.00     0.002 C 
HETATM   21  C1  UNL     1      -9.645  57.604  10.049  1.00  0.00     0.005 C 
ENDBRANCH  18  20
ENDBRANCH   1  18
TORSDOF 3
ENDMDL
MODEL 3
REMARK VINA RESULT: -6.755165653      1.880      3.025
REMARK  3 active torsions:
REMARK  status: ('A' for Active; 'I' for Inactive)
REMARK    1  A    between atoms: C2_2  and  C3_3 
REMARK    2  A    between atoms: C3_3  and  C5_5 
REMARK    3  A    between atoms: C13_19  and  O7_20 
ROOT
HETATM    1  C5  UNL     1      -7.854  55.054  11.304  1.00  0.00     0.152 C 
HETATM    2  C6  UNL     1      -7.994  55.453  12.717  1.00  0.00     0.200 C 
HETATM    3  O1  UNL     1      -6.806  55.212  13.421  1.00  0.00    -0.376 OA
HETATM    4  C7  UNL     1      -6.462  53.893  13.326  1.00  0.00     0.213 C 
HETATM    5  C8  UNL     1      -6.211  53.644  11.825  1.00  0.00     0.298 C 
HETATM    6  O2  UNL     1      -7.436  53.691  11.231  1.00  0.00    -0.351 OA
HETATM    7  O3  UNL     1      -5.609  52.419  11.878  1.00  0.00    -0.295 OA
HETATM    8  C9  UNL     1      -4.584  52.590  12.805  1.00  0.00     0.345 C 
HETATM    9  O4  UNL     1      -4.282  51.347  13.404  1.00  0.00    -0.165 OA
HETATM   10  O5  UNL     1      -3.730  50.731  12.356  1.00  0.00    -0.196 OA
HETATM   11  C10 UNL     1      -2.815  51.698  11.940  1.00  0.00     0.196 C 
HETATM   12  C11 UNL     1      -1.566  51.505  12.775  1.00  0.00     0.081 C 
HETATM   13  C12 UNL     1      -2.532  51.549  10.465  1.00  0.00     0.081 C 
HETATM   14  O6  UNL     1      -3.382  52.937  12.247  1.00  0.00    -0.290 OA
HETATM   15  C13 UNL     1      -5.087  53.575  13.837  1.00  0.00     0.247 C 
ENDROOT
BRANCH  15  16
HETATM   16  O7  UNL     1      -5.060  53.026  15.090  1.00  0.00    -0.385 OA
ATOM     17  H7  UNL     1      -5.767  53.309  15.659  1.00  0.00     0.210 HD
ENDBRANCH  15  16
BRANCH   1  18
HETATM   18  C3  UNL     1      -9.004  55.169  10.393  1.00  0.00     0.012 C 
HETATM   19  C4  UNL     1      -9.317  53.693   9.977  1.00  0.00     0.012 C 
BRANCH  18  20
HETATM   20  C2  UNL     1      -8.886  55.948   9.147  1.00  0.00     0.002 C 
HETATM   21  C1  UNL     1      -7.773  55.503   8.260  1.00  0.00     0.005 C 
ENDBRANCH  18  20
ENDBRANCH   1  18
TORSDOF 3
ENDMDL
MODEL 4
REMARK VINA RESULT: -6.623851056      1.882      3.082
REMARK  3 active torsions:
REMARK  status: ('A' for Active; 'I' for Inactive)
REMARK    1  A    between atoms: C2_2  and  C3_3 
REMARK    2  A    between atoms: C3_3  and  C5_5 
REMARK    3  A    between atoms: C13_19  and  O7_20 
ROOT
HETATM    1  C5  UNL     1      -7.714  55.116  11.215  1.00  0.00     0.152 C 
HETATM    2  C6  UNL     1      -7.833  55.567  12.614  1.00  0.00     0.200 C 
HETATM    3  O1  UNL     1      -6.649  55.310  13.321  1.00  0.00    -0.376 OA
HETATM    4  C7  UNL     1      -6.351  53.978  13.269  1.00  0.00     0.213 C 
HETATM    5  C8  UNL     1      -6.116  53.669  11.778  1.00  0.00     0.298 C 
HETATM    6  O2  UNL     1      -7.342  53.737  11.187  1.00  0.00    -0.351 OA
HETATM    7  O3  UNL     1      -5.556  52.426  11.869  1.00  0.00    -0.295 OA
HETATM    8  C9  UNL     1      -4.522  52.594  12.786  1.00  0.00     0.345 C 
HETATM    9  O4  UNL     1      -4.259  51.363  13.426  1.00  0.00    -0.165 OA
HETATM   10  O5  UNL     1      -3.733  50.692  12.397  1.00  0.00    -0.196 OA
HETATM   11  C10 UNL     1      -2.788  51.613  11.945  1.00  0.00     0.196 C 
HETATM   12  C11 UNL     1      -1.543  51.407  12.781  1.00  0.00     0.081 C 
HETATM   13  C12 UNL     1      -2.518  51.404  10.475  1.00  0.00     0.081 C 
HETATM   14  O6  UNL     1      -3.311  52.881  12.212  1.00  0.00    -0.290 OA
HETATM   15  C13 UNL     1      -4.985  53.630  13.785  1.00  0.00     0.247 C 
ENDROOT
BRANCH  15  16
HETATM   16  O7  UNL     1      -4.971  53.124  15.057  1.00  0.00    -0.385 OA
ATOM     17  H7  UNL     1      -5.553  53.566  15.664  1.00  0.00     0.210 HD
ENDBRANCH  15  16
BRANCH   1  18
HETATM   18  C3  UNL     1      -8.864  55.238  10.305  1.00  0.00     0.012 C 
HETATM   19  C4  UNL     1      -9.680  56.446  10.874  1.00  0.00     0.012 C 
BRANCH  18  20
HETATM   20  C2  UNL     1      -9.810  54.117  10.153  1.00  0.00     0.002 C 
HETATM   21  C1  UNL     1     -11.145  54.521   9.627  1.00  0.00     0.005 C 
ENDBRANCH  18  20
ENDBRANCH   1  18
TORSDOF 3
ENDMDL
MODEL 5
REMARK VINA RESULT: -6.610571491      2.796      6.504
REMARK  3 active torsions:
REMARK  status: ('A' for Active; 'I' for Inactive)
REMARK    1  A    between atoms: C2_2  and  C3_3 
REMARK    2  A    between atoms: C3_3  and  C5_5 
REMARK    3  A    between atoms: C13_19  and  O7_20 
ROOT
HETATM    1  C5  UNL     1      -4.885  52.027  12.955  1.00  0.00     0.152 C 
HETATM    2  C6  UNL     1      -5.353  52.590  14.236  1.00  0.00     0.200 C 
HETATM    3  O1  UNL     1      -6.654  53.098  14.108  1.00  0.00    -0.376 OA
HETATM    4  C7  UNL     1      -6.694  54.044  13.124  1.00  0.00     0.213 C 
HETATM    5  C8  UNL     1      -6.322  53.300  11.826  1.00  0.00     0.298 C 
HETATM    6  O2  UNL     1      -4.993  53.015  11.930  1.00  0.00    -0.351 OA
HETATM    7  O3  UNL     1      -6.668  54.240  10.896  1.00  0.00    -0.295 OA
HETATM    8  C9  UNL     1      -7.977  54.576  11.234  1.00  0.00     0.345 C 
HETATM    9  O4  UNL     1      -8.250  55.891  10.798  1.00  0.00    -0.165 OA
HETATM   10  O5  UNL     1      -8.253  55.683   9.478  1.00  0.00    -0.196 OA
HETATM   11  C10 UNL     1      -9.107  54.583   9.392  1.00  0.00     0.196 C 
HETATM   12  C11 UNL     1     -10.519  55.129   9.360  1.00  0.00     0.081 C 
HETATM   13  C12 UNL     1      -8.791  53.773   8.159  1.00  0.00     0.081 C 
HETATM   14  O6  UNL     1      -8.928  53.850  10.567  1.00  0.00    -0.290 OA
HETATM   15  C13 UNL     1      -8.079  54.479  12.740  1.00  0.00     0.247 C 
ENDROOT
BRANCH  15  16
HETATM   16  O7  UNL     1      -8.469  55.674  13.282  1.00  0.00    -0.385 OA
ATOM     17  H7  UNL     1      -9.301  55.999  12.961  1.00  0.00     0.210 HD
ENDBRANCH  15  16
BRANCH   1  18
HETATM   18  C3  UNL     1      -3.520  51.487  12.848  1.00  0.00     0.012 C 
HETATM   19  C4  UNL     1      -2.619  52.751  12.648  1.00  0.00     0.012 C 
BRANCH  18  20
HETATM   20  C2  UNL     1      -3.180  50.544  11.766  1.00  0.00     0.002 C 
HETATM   21  C1  UNL     1      -4.240  49.532  11.492  1.00  0.00     0.005 C 
ENDBRANCH  18  20
ENDBRANCH   1  18
TORSDOF 3
ENDMDL
