MODEL 1
REMARK VINA RESULT: -6.254247193      0.000      0.000
REMARK  5 active torsions:
REMARK  status: ('A' for Active; 'I' for Inactive)
REMARK    1  A    between atoms: N1_4  and  C4_5 
REMARK    2  A    between atoms: C4_5  and  C5_6 
REMARK    3  A    between atoms: C5_6  and  N2_7 
REMARK    4  A    between atoms: C6_8  and  O1_9 
REMARK    5  A    between atoms: C9_13  and  O2_14 
ROOT
HETATM    1  N2  UNL     1      -7.603  55.905  12.161  1.00  0.00    -0.306 N 
HETATM    2  C6  UNL     1      -8.768  56.290  12.716  1.00  0.00     0.152 A 
HETATM    3  C7  UNL     1      -9.557  56.789  11.714  1.00  0.00     0.013 A 
HETATM    4  C8  UNL     1      -8.833  56.693  10.542  1.00  0.00     0.031 A 
HETATM    5  C9  UNL     1      -7.600  56.133  10.838  1.00  0.00     0.153 A 
HETATM    6  C10 UNL     1      -9.701  57.235   9.452  1.00  0.00     0.087 C 
HETATM    7 CL1  UNL     1      -9.310  56.756   7.874  1.00  0.00    -0.109 Cl
HETATM    8  C11 UNL     1      -9.872  58.690   9.729  1.00  0.00     0.001 C 
HETATM    9  C12 UNL     1     -10.578  58.793  10.880  1.00  0.00    -0.019 C 
HETATM   10  C13 UNL     1     -10.858  57.397  11.344  1.00  0.00     0.048 C 
HETATM   11  C14 UNL     1     -11.069  56.736   9.969  1.00  0.00     0.048 C 
ENDROOT
BRANCH   1  12
HETATM   12  C5  UNL     1      -6.501  55.312  12.888  1.00  0.00     0.163 C 
BRANCH  12  13
HETATM   13  C4  UNL     1      -6.561  53.812  12.781  1.00  0.00     0.293 C 
BRANCH  13  14
HETATM   14  N1  UNL     1      -5.298  53.264  12.531  1.00  0.00     0.098 N 
HETATM   15  C2  UNL     1      -4.947  51.983  12.083  1.00  0.00     0.247 A 
HETATM   16  C1  UNL     1      -5.852  50.895  11.672  1.00  0.00     0.045 C 
HETATM   17  C3  UNL     1      -4.768  52.359  13.534  1.00  0.00     0.308 A 
ENDBRANCH  13  14
ENDBRANCH  12  13
ENDBRANCH   1  12
BRANCH   2  18
HETATM   18  O1  UNL     1      -9.081  56.187  14.053  1.00  0.00    -0.345 OA
ATOM     19  H1  UNL     1      -9.957  56.238  14.415  1.00  0.00     0.219 HD
ENDBRANCH   2  18
BRANCH   5  20
HETATM   20  O2  UNL     1      -6.553  55.858   9.932  1.00  0.00    -0.345 OA
ATOM     21  H2  UNL     1      -6.066  56.488   9.415  1.00  0.00     0.219 HD
ENDBRANCH   5  20
TORSDOF 5
ENDMDL
MODEL 2
REMARK VINA RESULT: -6.247611208      2.827      6.686
REMARK  5 active torsions:
REMARK  status: ('A' for Active; 'I' for Inactive)
REMARK    1  A    between atoms: N1_4  and  C4_5 
REMARK    2  A    between atoms: C4_5  and  C5_6 
REMARK    3  A    between atoms: C5_6  and  N2_7 
REMARK    4  A    between atoms: C6_8  and  O1_9 
REMARK    5  A    between atoms: C9_13  and  O2_14 
ROOT
HETATM    1  N2  UNL     1      -6.249  54.444  12.824  1.00  0.00    -0.306 N 
HETATM    2  C6  UNL     1      -6.627  53.162  12.657  1.00  0.00     0.152 A 
HETATM    3  C7  UNL     1      -5.495  52.423  12.439  1.00  0.00     0.013 A 
HETATM    4  C8  UNL     1      -4.427  53.298  12.479  1.00  0.00     0.031 A 
HETATM    5  C9  UNL     1      -4.916  54.571  12.723  1.00  0.00     0.153 A 
HETATM    6  C10 UNL     1      -3.194  52.485  12.244  1.00  0.00     0.087 C 
HETATM    7 CL1  UNL     1      -1.734  53.170  12.766  1.00  0.00    -0.109 Cl
HETATM    8  C11 UNL     1      -3.278  51.979  10.844  1.00  0.00     0.001 C 
HETATM    9  C12 UNL     1      -4.327  51.124  10.795  1.00  0.00    -0.019 C 
HETATM   10  C13 UNL     1      -4.918  51.084  12.171  1.00  0.00     0.048 C 
HETATM   11  C14 UNL     1      -3.615  51.196  12.984  1.00  0.00     0.048 C 
ENDROOT
BRANCH   1  12
HETATM   12  C5  UNL     1      -7.154  55.542  13.089  1.00  0.00     0.163 C 
BRANCH  12  13
HETATM   13  C4  UNL     1      -7.620  56.151  11.794  1.00  0.00     0.293 C 
BRANCH  13  14
HETATM   14  N1  UNL     1      -9.011  56.081  11.664  1.00  0.00     0.098 N 
HETATM   15  C2  UNL     1      -9.862  56.724  10.755  1.00  0.00     0.247 A 
HETATM   16  C1  UNL     1      -9.482  57.590   9.626  1.00  0.00     0.045 C 
HETATM   17  C3  UNL     1      -9.773  57.201  12.185  1.00  0.00     0.308 A 
ENDBRANCH  13  14
ENDBRANCH  12  13
ENDBRANCH   1  12
BRANCH   2  18
HETATM   18  O1  UNL     1      -7.925  52.707  12.705  1.00  0.00    -0.345 OA
ATOM     19  H1  UNL     1      -8.186  51.794  12.676  1.00  0.00     0.219 HD
ENDBRANCH   2  18
BRANCH   5  20
HETATM   20  O2  UNL     1      -4.166  55.761  12.840  1.00  0.00    -0.345 OA
ATOM     21  H2  UNL     1      -4.243  56.539  12.300  1.00  0.00     0.219 HD
ENDBRANCH   5  20
TORSDOF 5
ENDMDL
MODEL 3
REMARK VINA RESULT: -6.216647452      1.231      2.499
REMARK  5 active torsions:
REMARK  status: ('A' for Active; 'I' for Inactive)
REMARK    1  A    between atoms: N1_4  and  C4_5 
REMARK    2  A    between atoms: C4_5  and  C5_6 
REMARK    3  A    between atoms: C5_6  and  N2_7 
REMARK    4  A    between atoms: C6_8  and  O1_9 
REMARK    5  A    between atoms: C9_13  and  O2_14 
ROOT
HETATM    1  N2  UNL     1      -7.605  55.906  11.945  1.00  0.00    -0.306 N 
HETATM    2  C6  UNL     1      -7.540  56.071  10.610  1.00  0.00     0.152 A 
HETATM    3  C7  UNL     1      -8.727  56.621  10.204  1.00  0.00     0.013 A 
HETATM    4  C8  UNL     1      -9.506  56.780  11.334  1.00  0.00     0.031 A 
HETATM    5  C9  UNL     1      -8.786  56.325  12.427  1.00  0.00     0.153 A 
HETATM    6  C10 UNL     1     -10.798  57.384  10.885  1.00  0.00     0.087 C 
HETATM    7 CL1  UNL     1     -11.708  58.177  12.075  1.00  0.00    -0.109 Cl
HETATM    8  C11 UNL     1     -11.476  56.360  10.041  1.00  0.00     0.001 C 
HETATM    9  C12 UNL     1     -10.716  56.193   8.933  1.00  0.00    -0.019 C 
HETATM   10  C13 UNL     1      -9.543  57.116   9.070  1.00  0.00     0.048 C 
HETATM   11  C14 UNL     1     -10.257  58.293   9.759  1.00  0.00     0.048 C 
ENDROOT
BRANCH   1  12
HETATM   12  C5  UNL     1      -6.540  55.361  12.760  1.00  0.00     0.163 C 
BRANCH  12  13
HETATM   13  C4  UNL     1      -6.575  53.857  12.714  1.00  0.00     0.293 C 
BRANCH  13  14
HETATM   14  N1  UNL     1      -5.289  53.317  12.593  1.00  0.00     0.098 N 
HETATM   15  C2  UNL     1      -4.889  52.027  12.217  1.00  0.00     0.247 A 
HETATM   16  C1  UNL     1      -5.743  50.917  11.763  1.00  0.00     0.045 C 
HETATM   17  C3  UNL     1      -4.842  52.449  13.667  1.00  0.00     0.308 A 
ENDBRANCH  13  14
ENDBRANCH  12  13
ENDBRANCH   1  12
BRANCH   2  18
HETATM   18  O1  UNL     1      -6.461  55.740   9.822  1.00  0.00    -0.345 OA
ATOM     19  H1  UNL     1      -6.382  55.931   8.895  1.00  0.00     0.219 HD
ENDBRANCH   2  18
BRANCH   5  20
HETATM   20  O2  UNL     1      -9.208  56.305  13.773  1.00  0.00    -0.345 OA
ATOM     21  H2  UNL     1      -9.994  56.701  14.131  1.00  0.00     0.219 HD
ENDBRANCH   5  20
TORSDOF 5
ENDMDL
MODEL 4
REMARK VINA RESULT: -6.144843496      0.642      1.096
REMARK  5 active torsions:
REMARK  status: ('A' for Active; 'I' for Inactive)
REMARK    1  A    between atoms: N1_4  and  C4_5 
REMARK    2  A    between atoms: C4_5  and  C5_6 
REMARK    3  A    between atoms: C5_6  and  N2_7 
REMARK    4  A    between atoms: C6_8  and  O1_9 
REMARK    5  A    between atoms: C9_13  and  O2_14 
ROOT
HETATM    1  N2  UNL     1      -7.605  55.889  12.163  1.00  0.00    -0.306 N 
HETATM    2  C6  UNL     1      -8.767  56.285  12.718  1.00  0.00     0.152 A 
HETATM    3  C7  UNL     1      -9.548  56.801  11.718  1.00  0.00     0.013 A 
HETATM    4  C8  UNL     1      -8.821  56.705  10.548  1.00  0.00     0.031 A 
HETATM    5  C9  UNL     1      -7.596  56.127  10.842  1.00  0.00     0.153 A 
HETATM    6  C10 UNL     1      -9.678  57.267   9.459  1.00  0.00     0.087 C 
HETATM    7 CL1  UNL     1      -9.288  56.795   7.879  1.00  0.00    -0.109 Cl
HETATM    8  C11 UNL     1      -9.833  58.721   9.746  1.00  0.00     0.001 C 
HETATM    9  C12 UNL     1     -10.541  58.824  10.896  1.00  0.00    -0.019 C 
HETATM   10  C13 UNL     1     -10.839  57.427  11.348  1.00  0.00     0.048 C 
HETATM   11  C14 UNL     1     -11.054  56.781   9.967  1.00  0.00     0.048 C 
ENDROOT
BRANCH   1  12
HETATM   12  C5  UNL     1      -6.513  55.277  12.889  1.00  0.00     0.163 C 
BRANCH  12  13
HETATM   13  C4  UNL     1      -6.483  53.796  12.623  1.00  0.00     0.293 C 
BRANCH  13  14
HETATM   14  N1  UNL     1      -5.622  53.133  13.504  1.00  0.00     0.098 N 
HETATM   15  C2  UNL     1      -4.222  53.147  13.573  1.00  0.00     0.247 A 
HETATM   16  C1  UNL     1      -3.290  53.953  12.765  1.00  0.00     0.045 C 
HETATM   17  C3  UNL     1      -4.946  51.955  12.994  1.00  0.00     0.308 A 
ENDBRANCH  13  14
ENDBRANCH  12  13
ENDBRANCH   1  12
BRANCH   2  18
HETATM   18  O1  UNL     1      -9.086  56.175  14.053  1.00  0.00    -0.345 OA
ATOM     19  H1  UNL     1      -9.514  55.427  14.453  1.00  0.00     0.219 HD
ENDBRANCH   2  18
BRANCH   5  20
HETATM   20  O2  UNL     1      -6.550  55.847   9.938  1.00  0.00    -0.345 OA
ATOM     21  H2  UNL     1      -5.755  56.351   9.810  1.00  0.00     0.219 HD
ENDBRANCH   5  20
TORSDOF 5
ENDMDL
MODEL 5
REMARK VINA RESULT: -6.140716435      3.018      7.015
REMARK  5 active torsions:
REMARK  status: ('A' for Active; 'I' for Inactive)
REMARK    1  A    between atoms: N1_4  and  C4_5 
REMARK    2  A    between atoms: C4_5  and  C5_6 
REMARK    3  A    between atoms: C5_6  and  N2_7 
REMARK    4  A    between atoms: C6_8  and  O1_9 
REMARK    5  A    between atoms: C9_13  and  O2_14 
ROOT
HETATM    1  N2  UNL     1      -5.973  52.795  13.185  1.00  0.00    -0.306 N 
HETATM    2  C6  UNL     1      -4.750  52.808  13.751  1.00  0.00     0.152 A 
HETATM    3  C7  UNL     1      -3.920  52.061  12.958  1.00  0.00     0.013 A 
HETATM    4  C8  UNL     1      -4.679  51.600  11.901  1.00  0.00     0.031 A 
HETATM    5  C9  UNL     1      -5.974  52.070  12.055  1.00  0.00     0.153 A 
HETATM    6  C10 UNL     1      -3.768  50.788  11.037  1.00  0.00     0.087 C 
HETATM    7 CL1  UNL     1      -4.263  50.559   9.432  1.00  0.00    -0.109 Cl
HETATM    8  C11 UNL     1      -3.377  49.592  11.835  1.00  0.00     0.001 C 
HETATM    9  C12 UNL     1      -2.636  50.036  12.878  1.00  0.00    -0.019 C 
HETATM   10  C13 UNL     1      -2.554  51.527  12.746  1.00  0.00     0.048 C 
HETATM   11  C14 UNL     1      -2.475  51.618  11.211  1.00  0.00     0.048 C 
ENDROOT
BRANCH   1  12
HETATM   12  C5  UNL     1      -7.132  53.481  13.715  1.00  0.00     0.163 C 
BRANCH  12  13
HETATM   13  C4  UNL     1      -7.179  54.892  13.193  1.00  0.00     0.293 C 
BRANCH  13  14
HETATM   14  N1  UNL     1      -8.246  55.076  12.306  1.00  0.00     0.098 N 
HETATM   15  C2  UNL     1      -8.237  55.264  10.917  1.00  0.00     0.247 A 
HETATM   16  C1  UNL     1      -7.075  55.227  10.012  1.00  0.00     0.045 C 
HETATM   17  C3  UNL     1      -8.483  56.431  11.843  1.00  0.00     0.308 A 
ENDBRANCH  13  14
ENDBRANCH  12  13
ENDBRANCH   1  12
BRANCH   2  18
HETATM   18  O1  UNL     1      -4.424  53.464  14.917  1.00  0.00    -0.345 OA
ATOM     19  H1  UNL     1      -3.935  53.087  15.638  1.00  0.00     0.219 HD
ENDBRANCH   2  18
BRANCH   5  20
HETATM   20  O2  UNL     1      -7.071  51.834  11.200  1.00  0.00    -0.345 OA
ATOM     21  H2  UNL     1      -7.195  51.090  10.623  1.00  0.00     0.219 HD
ENDBRANCH   5  20
TORSDOF 5
ENDMDL
