MODEL 1
REMARK VINA RESULT: -6.472557016      0.000      0.000
REMARK  6 active torsions:
REMARK  status: ('A' for Active; 'I' for Inactive)
REMARK    1  A    between atoms: C2_2  and  C4_5 
REMARK    2  A    between atoms: C5_7  and  N1_8 
REMARK    3  A    between atoms: N1_8  and  C6_10 
REMARK    4  A    between atoms: C6_10  and  C7_11 
REMARK    5  A    between atoms: C7_11  and  O1_12 
REMARK    6  A    between atoms: C8_16  and  N3_17 
ROOT
HETATM    1  C4  UNL     1      -3.711  51.832  11.323  1.00  0.00     0.069 A 
HETATM    2  S1  UNL     1      -2.219  51.605  10.494  1.00  0.00    -0.051 SA
HETATM    3  C5  UNL     1      -1.455  53.061  10.936  1.00  0.00     0.146 A 
HETATM    4  N2  UNL     1      -2.369  53.658  11.697  1.00  0.00    -0.322 N 
ATOM      5  H2  UNL     1      -2.184  54.570  12.114  1.00  0.00     0.169 HD
HETATM    6  C8  UNL     1      -3.514  53.050  11.901  1.00  0.00     0.122 A 
ENDROOT
BRANCH   3   7
HETATM    7  N1  UNL     1      -0.258  53.473  10.600  1.00  0.00    -0.368 N 
ATOM      8  H1  UNL     1       0.473  53.576  11.305  1.00  0.00     0.161 HD
BRANCH   7   9
HETATM    9  C6  UNL     1       0.005  53.777   9.231  1.00  0.00     0.147 C 
BRANCH   9  10
HETATM   10  C7  UNL     1       1.452  53.950   8.908  1.00  0.00     0.183 C 
BRANCH  10  11
HETATM   11  O1  UNL     1       1.723  55.335   8.831  1.00  0.00    -0.399 OA
ATOM     12  H1  UNL     1       2.101  55.609   9.659  1.00  0.00     0.209 HD
ENDBRANCH  10  11
ENDBRANCH   9  10
ENDBRANCH   7   9
ENDBRANCH   3   7
BRANCH   1  13
HETATM   13  C2  UNL     1      -4.871  50.897  11.352  1.00  0.00     0.133 C 
HETATM   14  C1  UNL     1      -4.575  49.516  10.890  1.00  0.00     0.057 C 
HETATM   15  C3  UNL     1      -5.909  51.483  10.382  1.00  0.00     0.057 C 
HETATM   16  F1  UNL     1      -5.500  50.861  12.581  1.00  0.00    -0.238 F 
ENDBRANCH   1  13
BRANCH   6  17
HETATM   17  N3  UNL     1      -4.534  53.675  12.727  1.00  0.00    -0.366 N 
HETATM   18  C9  UNL     1      -5.479  54.624  12.234  1.00  0.00     0.124 C 
HETATM   19  C10 UNL     1      -6.907  54.190  12.474  1.00  0.00     0.020 C 
HETATM   20  C11 UNL     1      -6.997  53.053  13.459  1.00  0.00     0.003 C 
HETATM   21  C12 UNL     1      -6.015  53.138  14.595  1.00  0.00     0.020 C 
HETATM   22  C13 UNL     1      -4.577  53.272  14.117  1.00  0.00     0.124 C 
ENDBRANCH   6  17
TORSDOF 6
ENDMDL
MODEL 2
REMARK VINA RESULT: -6.374519927      3.056      5.730
REMARK  6 active torsions:
REMARK  status: ('A' for Active; 'I' for Inactive)
REMARK    1  A    between atoms: C2_2  and  C4_5 
REMARK    2  A    between atoms: C5_7  and  N1_8 
REMARK    3  A    between atoms: N1_8  and  C6_10 
REMARK    4  A    between atoms: C6_10  and  C7_11 
REMARK    5  A    between atoms: C7_11  and  O1_12 
REMARK    6  A    between atoms: C8_16  and  N3_17 
ROOT
HETATM    1  C4  UNL     1      -3.672  51.614  11.168  1.00  0.00     0.069 A 
HETATM    2  S1  UNL     1      -4.966  51.953  12.253  1.00  0.00    -0.051 SA
HETATM    3  C5  UNL     1      -4.093  52.819  13.430  1.00  0.00     0.146 A 
HETATM    4  N2  UNL     1      -2.853  52.814  12.947  1.00  0.00    -0.322 N 
ATOM      5  H2  UNL     1      -2.095  53.271  13.453  1.00  0.00     0.169 HD
HETATM    6  C8  UNL     1      -2.624  52.208  11.805  1.00  0.00     0.122 A 
ENDROOT
BRANCH   3   7
HETATM    7  N1  UNL     1      -4.549  53.354  14.536  1.00  0.00    -0.368 N 
ATOM      8  H1  UNL     1      -3.969  53.388  15.374  1.00  0.00     0.161 HD
BRANCH   7   9
HETATM    9  C6  UNL     1      -5.874  53.886  14.546  1.00  0.00     0.147 C 
BRANCH   9  10
HETATM   10  C7  UNL     1      -5.956  55.328  14.170  1.00  0.00     0.183 C 
BRANCH  10  11
HETATM   11  O1  UNL     1      -5.930  56.095  15.356  1.00  0.00    -0.399 OA
ATOM     12  H1  UNL     1      -6.823  56.335  15.574  1.00  0.00     0.209 HD
ENDBRANCH  10  11
ENDBRANCH   9  10
ENDBRANCH   7   9
ENDBRANCH   3   7
BRANCH   1  13
HETATM   13  C2  UNL     1      -3.751  50.859   9.885  1.00  0.00     0.133 C 
HETATM   14  C1  UNL     1      -3.616  51.690   8.660  1.00  0.00     0.057 C 
HETATM   15  C3  UNL     1      -5.155  50.234   9.851  1.00  0.00     0.057 C 
HETATM   16  F1  UNL     1      -2.876  49.794   9.834  1.00  0.00    -0.238 F 
ENDBRANCH   1  13
BRANCH   6  17
HETATM   17  N3  UNL     1      -1.281  52.184  11.250  1.00  0.00    -0.366 N 
HETATM   18  C9  UNL     1      -0.408  51.058  11.340  1.00  0.00     0.124 C 
HETATM   19  C10 UNL     1       0.051  50.579   9.982  1.00  0.00     0.020 C 
HETATM   20  C11 UNL     1      -0.234  51.585   8.897  1.00  0.00     0.003 C 
HETATM   21  C12 UNL     1      -0.043  53.018   9.315  1.00  0.00     0.020 C 
HETATM   22  C13 UNL     1      -0.847  53.377  10.555  1.00  0.00     0.124 C 
ENDBRANCH   6  17
TORSDOF 6
ENDMDL
MODEL 3
REMARK VINA RESULT: -6.364523370      3.060      5.766
REMARK  6 active torsions:
REMARK  status: ('A' for Active; 'I' for Inactive)
REMARK    1  A    between atoms: C2_2  and  C4_5 
REMARK    2  A    between atoms: C5_7  and  N1_8 
REMARK    3  A    between atoms: N1_8  and  C6_10 
REMARK    4  A    between atoms: C6_10  and  C7_11 
REMARK    5  A    between atoms: C7_11  and  O1_12 
REMARK    6  A    between atoms: C8_16  and  N3_17 
ROOT
HETATM    1  C4  UNL     1      -2.442  51.319  11.644  1.00  0.00     0.069 A 
HETATM    2  S1  UNL     1      -3.396  52.034  12.886  1.00  0.00    -0.051 SA
HETATM    3  C5  UNL     1      -3.216  53.667  12.439  1.00  0.00     0.146 A 
HETATM    4  N2  UNL     1      -2.436  53.598  11.363  1.00  0.00    -0.322 N 
ATOM      5  H2  UNL     1      -2.156  54.444  10.868  1.00  0.00     0.169 HD
HETATM    6  C8  UNL     1      -2.037  52.418  10.949  1.00  0.00     0.122 A 
ENDROOT
BRANCH   3   7
HETATM    7  N1  UNL     1      -3.728  54.721  13.025  1.00  0.00    -0.368 N 
ATOM      8  H1  UNL     1      -3.137  55.357  13.560  1.00  0.00     0.161 HD
BRANCH   7   9
HETATM    9  C6  UNL     1      -5.130  54.963  12.902  1.00  0.00     0.147 C 
BRANCH   9  10
HETATM   10  C7  UNL     1      -5.917  54.645  14.129  1.00  0.00     0.183 C 
BRANCH  10  11
HETATM   11  O1  UNL     1      -6.125  55.846  14.842  1.00  0.00    -0.399 OA
ATOM     12  H1  UNL     1      -5.279  56.250  14.997  1.00  0.00     0.209 HD
ENDBRANCH  10  11
ENDBRANCH   9  10
ENDBRANCH   7   9
ENDBRANCH   3   7
BRANCH   1  13
HETATM   13  C2  UNL     1      -2.171  49.866  11.446  1.00  0.00     0.133 C 
HETATM   14  C1  UNL     1      -3.051  49.196  10.452  1.00  0.00     0.057 C 
HETATM   15  C3  UNL     1      -2.437  49.198  12.804  1.00  0.00     0.057 C 
HETATM   16  F1  UNL     1      -0.847  49.600  11.161  1.00  0.00    -0.238 F 
ENDBRANCH   1  13
BRANCH   6  17
HETATM   17  N3  UNL     1      -1.184  52.308   9.777  1.00  0.00    -0.366 N 
HETATM   18  C9  UNL     1      -1.678  52.064   8.460  1.00  0.00     0.124 C 
HETATM   19  C10 UNL     1      -1.260  53.139   7.483  1.00  0.00     0.020 C 
HETATM   20  C11 UNL     1      -0.162  54.012   8.033  1.00  0.00     0.003 C 
HETATM   21  C12 UNL     1       0.861  53.278   8.855  1.00  0.00     0.020 C 
HETATM   22  C13 UNL     1       0.236  52.482   9.992  1.00  0.00     0.124 C 
ENDBRANCH   6  17
TORSDOF 6
ENDMDL
MODEL 4
REMARK VINA RESULT: -6.286008849      3.303      5.829
REMARK  6 active torsions:
REMARK  status: ('A' for Active; 'I' for Inactive)
REMARK    1  A    between atoms: C2_2  and  C4_5 
REMARK    2  A    between atoms: C5_7  and  N1_8 
REMARK    3  A    between atoms: N1_8  and  C6_10 
REMARK    4  A    between atoms: C6_10  and  C7_11 
REMARK    5  A    between atoms: C7_11  and  O1_12 
REMARK    6  A    between atoms: C8_16  and  N3_17 
ROOT
HETATM    1  C4  UNL     1      -2.330  52.134  11.663  1.00  0.00     0.069 A 
HETATM    2  S1  UNL     1      -2.681  53.561  12.560  1.00  0.00    -0.051 SA
HETATM    3  C5  UNL     1      -3.873  52.926  13.596  1.00  0.00     0.146 A 
HETATM    4  N2  UNL     1      -3.952  51.654  13.215  1.00  0.00    -0.322 N 
ATOM      5  H2  UNL     1      -4.601  51.013  13.673  1.00  0.00     0.169 HD
HETATM    6  C8  UNL     1      -3.180  51.238  12.239  1.00  0.00     0.122 A 
ENDROOT
BRANCH   3   7
HETATM    7  N1  UNL     1      -4.537  53.554  14.535  1.00  0.00    -0.368 N 
ATOM      8  H1  UNL     1      -4.095  53.766  15.430  1.00  0.00     0.161 HD
BRANCH   7   9
HETATM    9  C6  UNL     1      -5.889  53.935  14.283  1.00  0.00     0.147 C 
BRANCH   9  10
HETATM   10  C7  UNL     1      -6.069  55.383  13.969  1.00  0.00     0.183 C 
BRANCH  10  11
HETATM   11  O1  UNL     1      -6.085  56.099  15.186  1.00  0.00    -0.399 OA
ATOM     12  H1  UNL     1      -6.260  57.013  14.991  1.00  0.00     0.209 HD
ENDBRANCH  10  11
ENDBRANCH   9  10
ENDBRANCH   7   9
ENDBRANCH   3   7
BRANCH   1  13
HETATM   13  C2  UNL     1      -1.342  51.991  10.556  1.00  0.00     0.133 C 
HETATM   14  C1  UNL     1      -0.159  51.149  10.877  1.00  0.00     0.057 C 
HETATM   15  C3  UNL     1      -0.821  53.408  10.270  1.00  0.00     0.057 C 
HETATM   16  F1  UNL     1      -1.917  51.568   9.374  1.00  0.00    -0.238 F 
ENDBRANCH   1  13
BRANCH   6  17
HETATM   17  N3  UNL     1      -3.243  49.855  11.798  1.00  0.00    -0.366 N 
HETATM   18  C9  UNL     1      -4.099  49.396  10.753  1.00  0.00     0.124 C 
HETATM   19  C10 UNL     1      -3.333  48.715   9.642  1.00  0.00     0.020 C 
HETATM   20  C11 UNL     1      -1.920  48.381  10.046  1.00  0.00     0.003 C 
HETATM   21  C12 UNL     1      -1.775  47.928  11.473  1.00  0.00     0.020 C 
HETATM   22  C13 UNL     1      -2.358  48.923  12.466  1.00  0.00     0.124 C 
ENDBRANCH   6  17
TORSDOF 6
ENDMDL
MODEL 5
REMARK VINA RESULT: -6.285196633      0.957      1.003
REMARK  6 active torsions:
REMARK  status: ('A' for Active; 'I' for Inactive)
REMARK    1  A    between atoms: C2_2  and  C4_5 
REMARK    2  A    between atoms: C5_7  and  N1_8 
REMARK    3  A    between atoms: N1_8  and  C6_10 
REMARK    4  A    between atoms: C6_10  and  C7_11 
REMARK    5  A    between atoms: C7_11  and  O1_12 
REMARK    6  A    between atoms: C8_16  and  N3_17 
ROOT
HETATM    1  C4  UNL     1      -3.953  52.334  10.937  1.00  0.00     0.069 A 
HETATM    2  S1  UNL     1      -2.514  52.024  10.044  1.00  0.00    -0.051 SA
HETATM    3  C5  UNL     1      -1.454  53.039  10.906  1.00  0.00     0.146 A 
HETATM    4  N2  UNL     1      -2.241  53.571  11.838  1.00  0.00    -0.322 N 
ATOM      5  H2  UNL     1      -1.869  54.234  12.517  1.00  0.00     0.169 HD
HETATM    6  C8  UNL     1      -3.507  53.225  11.866  1.00  0.00     0.122 A 
ENDROOT
BRANCH   3   7
HETATM    7  N1  UNL     1      -0.176  53.235  10.690  1.00  0.00    -0.368 N 
ATOM      8  H1  UNL     1       0.425  53.598  11.429  1.00  0.00     0.161 HD
BRANCH   7   9
HETATM    9  C6  UNL     1       0.357  52.931   9.401  1.00  0.00     0.147 C 
BRANCH   9  10
HETATM   10  C7  UNL     1       0.605  54.127   8.544  1.00  0.00     0.183 C 
BRANCH  10  11
HETATM   11  O1  UNL     1       1.488  54.988   9.234  1.00  0.00    -0.399 OA
ATOM     12  H1  UNL     1       2.327  54.550   9.315  1.00  0.00     0.209 HD
ENDBRANCH  10  11
ENDBRANCH   9  10
ENDBRANCH   7   9
ENDBRANCH   3   7
BRANCH   1  13
HETATM   13  C2  UNL     1      -5.302  51.745  10.697  1.00  0.00     0.133 C 
HETATM   14  C1  UNL     1      -5.713  50.704  11.675  1.00  0.00     0.057 C 
HETATM   15  C3  UNL     1      -5.226  51.065   9.321  1.00  0.00     0.057 C 
HETATM   16  F1  UNL     1      -6.291  52.700  10.578  1.00  0.00    -0.238 F 
ENDBRANCH   1  13
BRANCH   6  17
HETATM   17  N3  UNL     1      -4.394  53.788  12.870  1.00  0.00    -0.366 N 
HETATM   18  C9  UNL     1      -5.103  55.015  12.701  1.00  0.00     0.124 C 
HETATM   19  C10 UNL     1      -6.597  54.840  12.857  1.00  0.00     0.020 C 
HETATM   20  C11 UNL     1      -6.952  53.514  13.480  1.00  0.00     0.003 C 
HETATM   21  C12 UNL     1      -6.006  53.062  14.558  1.00  0.00     0.020 C 
HETATM   22  C13 UNL     1      -4.559  53.023  14.088  1.00  0.00     0.124 C 
ENDBRANCH   6  17
TORSDOF 6
ENDMDL
