MODEL 1
REMARK VINA RESULT: -8.208906499      0.000      0.000
REMARK  2 active torsions:
REMARK  status: ('A' for Active; 'I' for Inactive)
REMARK    1  A    between atoms: C2_2  and  O1_3 
REMARK    2  A    between atoms: O1_3  and  C3_4 
ROOT
HETATM    1  C3  UNL     1     -47.204 -27.254   9.267  1.00  0.00     0.264 C 
HETATM    2  C4  UNL     1     -45.758 -27.415   9.612  1.00  0.00     0.102 C 
HETATM    3  C5  UNL     1     -45.110 -26.107   9.736  1.00  0.00    -0.018 A 
HETATM    4  C6  UNL     1     -43.931 -25.923  10.440  1.00  0.00     0.065 A 
HETATM    5 CL1  UNL     1     -43.211 -27.330  11.200  1.00  0.00    -0.082 Cl
HETATM    6  C7  UNL     1     -43.318 -24.695  10.559  1.00  0.00     0.092 A 
HETATM    7 CL2  UNL     1     -41.847 -24.527  11.450  1.00  0.00    -0.079 Cl
HETATM    8  C8  UNL     1     -43.906 -23.601   9.950  1.00  0.00     0.129 A 
HETATM    9  C9  UNL     1     -45.085 -23.760   9.242  1.00  0.00     0.116 A 
HETATM   10  C10 UNL     1     -45.683 -25.013   9.137  1.00  0.00     0.015 A 
HETATM   11  C11 UNL     1     -46.926 -25.132   8.380  1.00  0.00     0.157 C 
HETATM   12  C12 UNL     1     -46.733 -24.541   6.975  1.00  0.00     0.045 C 
HETATM   13  O2  UNL     1     -47.416 -26.393   8.201  1.00  0.00    -0.351 OA
HETATM   14  O3  UNL     1     -45.460 -22.510   8.732  1.00  0.00    -0.322 OA
HETATM   15  C13 UNL     1     -44.336 -21.657   8.819  1.00  0.00     0.352 C 
HETATM   16  O4  UNL     1     -43.570 -22.243   9.866  1.00  0.00    -0.321 OA
ENDROOT
BRANCH   1  17
HETATM   17  O1  UNL     1     -47.683 -28.510   8.884  1.00  0.00    -0.361 OA
BRANCH  17  18
HETATM   18  C2  UNL     1     -46.654 -29.417   8.680  1.00  0.00     0.166 C 
HETATM   19  C1  UNL     1     -46.886 -30.310   7.494  1.00  0.00     0.033 C 
ENDBRANCH  17  18
ENDBRANCH   1  17
TORSDOF 2
ENDMDL
MODEL 2
REMARK VINA RESULT: -8.137418498      2.091      4.909
REMARK  2 active torsions:
REMARK  status: ('A' for Active; 'I' for Inactive)
REMARK    1  A    between atoms: C2_2  and  O1_3 
REMARK    2  A    between atoms: O1_3  and  C3_4 
ROOT
HETATM    1  C3  UNL     1     -42.403 -24.623  10.719  1.00  0.00     0.264 C 
HETATM    2  C4  UNL     1     -43.261 -25.816  10.994  1.00  0.00     0.102 C 
HETATM    3  C5  UNL     1     -44.473 -25.779  10.172  1.00  0.00    -0.018 A 
HETATM    4  C6  UNL     1     -45.221 -26.912   9.897  1.00  0.00     0.065 A 
HETATM    5 CL1  UNL     1     -44.671 -28.433  10.572  1.00  0.00    -0.082 Cl
HETATM    6  C7  UNL     1     -46.362 -26.880   9.125  1.00  0.00     0.092 A 
HETATM    7 CL2  UNL     1     -47.256 -28.326   8.816  1.00  0.00    -0.079 Cl
HETATM    8  C8  UNL     1     -46.775 -25.667   8.604  1.00  0.00     0.129 A 
HETATM    9  C9  UNL     1     -46.043 -24.522   8.865  1.00  0.00     0.116 A 
HETATM   10  C10 UNL     1     -44.893 -24.582   9.649  1.00  0.00     0.015 A 
HETATM   11  C11 UNL     1     -44.153 -23.348   9.897  1.00  0.00     0.157 C 
HETATM   12  C12 UNL     1     -45.103 -22.282  10.466  1.00  0.00     0.045 C 
HETATM   13  O2  UNL     1     -43.103 -23.427  10.764  1.00  0.00    -0.351 OA
HETATM   14  O3  UNL     1     -46.672 -23.446   8.227  1.00  0.00    -0.322 OA
HETATM   15  C13 UNL     1     -47.978 -23.859   7.877  1.00  0.00     0.352 C 
HETATM   16  O4  UNL     1     -47.855 -25.276   7.800  1.00  0.00    -0.321 OA
ENDROOT
BRANCH   1  17
HETATM   17  O1  UNL     1     -41.430 -24.569  11.721  1.00  0.00    -0.361 OA
BRANCH  17  18
HETATM   18  C2  UNL     1     -40.793 -25.789  11.890  1.00  0.00     0.166 C 
HETATM   19  C1  UNL     1     -39.644 -25.988  10.942  1.00  0.00     0.033 C 
ENDBRANCH  17  18
ENDBRANCH   1  17
TORSDOF 2
ENDMDL
MODEL 3
REMARK VINA RESULT: -7.984298552      2.781      4.895
REMARK  2 active torsions:
REMARK  status: ('A' for Active; 'I' for Inactive)
REMARK    1  A    between atoms: C2_2  and  O1_3 
REMARK    2  A    between atoms: O1_3  and  C3_4 
ROOT
HETATM    1  C3  UNL     1     -46.190 -22.591   9.351  1.00  0.00     0.264 C 
HETATM    2  C4  UNL     1     -46.467 -24.003   8.942  1.00  0.00     0.102 C 
HETATM    3  C5  UNL     1     -45.499 -24.915   9.556  1.00  0.00    -0.018 A 
HETATM    4  C6  UNL     1     -45.745 -26.270   9.707  1.00  0.00     0.065 A 
HETATM    5 CL1  UNL     1     -47.283 -26.886   9.132  1.00  0.00    -0.082 Cl
HETATM    6  C7  UNL     1     -44.837 -27.131  10.283  1.00  0.00     0.092 A 
HETATM    7 CL2  UNL     1     -45.200 -28.813  10.446  1.00  0.00    -0.079 Cl
HETATM    8  C8  UNL     1     -43.632 -26.621  10.729  1.00  0.00     0.129 A 
HETATM    9  C9  UNL     1     -43.364 -25.270  10.589  1.00  0.00     0.116 A 
HETATM   10  C10 UNL     1     -44.299 -24.422  10.002  1.00  0.00     0.015 A 
HETATM   11  C11 UNL     1     -43.972 -23.004   9.876  1.00  0.00     0.157 C 
HETATM   12  C12 UNL     1     -42.622 -22.847   9.159  1.00  0.00     0.045 C 
HETATM   13  O2  UNL     1     -44.862 -22.229   9.191  1.00  0.00    -0.351 OA
HETATM   14  O3  UNL     1     -42.090 -25.020  11.115  1.00  0.00    -0.322 OA
HETATM   15  C13 UNL     1     -41.430 -26.264  11.249  1.00  0.00     0.352 C 
HETATM   16  O4  UNL     1     -42.508 -27.188  11.346  1.00  0.00    -0.321 OA
ENDROOT
BRANCH   1  17
HETATM   17  O1  UNL     1     -46.948 -21.761   8.520  1.00  0.00    -0.361 OA
BRANCH  17  18
HETATM   18  C2  UNL     1     -47.042 -22.264   7.231  1.00  0.00     0.166 C 
HETATM   19  C1  UNL     1     -46.603 -21.281   6.184  1.00  0.00     0.033 C 
ENDBRANCH  17  18
ENDBRANCH   1  17
TORSDOF 2
ENDMDL
MODEL 4
REMARK VINA RESULT: -7.939600709      1.237      1.559
REMARK  2 active torsions:
REMARK  status: ('A' for Active; 'I' for Inactive)
REMARK    1  A    between atoms: C2_2  and  O1_3 
REMARK    2  A    between atoms: O1_3  and  C3_4 
ROOT
HETATM    1  C3  UNL     1     -46.578 -28.811   9.984  1.00  0.00     0.264 C 
HETATM    2  C4  UNL     1     -45.156 -28.369  10.123  1.00  0.00     0.102 C 
HETATM    3  C5  UNL     1     -45.053 -26.915   9.977  1.00  0.00    -0.018 A 
HETATM    4  C6  UNL     1     -43.975 -26.193  10.463  1.00  0.00     0.065 A 
HETATM    5 CL1  UNL     1     -42.703 -27.081  11.279  1.00  0.00    -0.082 Cl
HETATM    6  C7  UNL     1     -43.874 -24.826  10.327  1.00  0.00     0.092 A 
HETATM    7 CL2  UNL     1     -42.505 -23.978  10.954  1.00  0.00    -0.079 Cl
HETATM    8  C8  UNL     1     -44.891 -24.149   9.679  1.00  0.00     0.129 A 
HETATM    9  C9  UNL     1     -45.978 -24.849   9.185  1.00  0.00     0.116 A 
HETATM   10  C10 UNL     1     -46.054 -26.231   9.336  1.00  0.00     0.015 A 
HETATM   11  C11 UNL     1     -47.221 -26.927   8.800  1.00  0.00     0.157 C 
HETATM   12  C12 UNL     1     -47.400 -26.566   7.316  1.00  0.00     0.045 C 
HETATM   13  O2  UNL     1     -47.203 -28.291   8.862  1.00  0.00    -0.351 OA
HETATM   14  O3  UNL     1     -46.850 -23.934   8.582  1.00  0.00    -0.322 OA
HETATM   15  C13 UNL     1     -46.138 -22.729   8.385  1.00  0.00     0.352 C 
HETATM   16  O4  UNL     1     -45.112 -22.799   9.370  1.00  0.00    -0.321 OA
ENDROOT
BRANCH   1  17
HETATM   17  O1  UNL     1     -46.571 -30.202   9.845  1.00  0.00    -0.361 OA
BRANCH  17  18
HETATM   18  C2  UNL     1     -46.602 -30.589   8.514  1.00  0.00     0.166 C 
HETATM   19  C1  UNL     1     -46.979 -32.032   8.332  1.00  0.00     0.033 C 
ENDBRANCH  17  18
ENDBRANCH   1  17
TORSDOF 2
ENDMDL
MODEL 5
REMARK VINA RESULT: -7.786677004      2.607      4.623
REMARK  2 active torsions:
REMARK  status: ('A' for Active; 'I' for Inactive)
REMARK    1  A    between atoms: C2_2  and  O1_3 
REMARK    2  A    between atoms: O1_3  and  C3_4 
ROOT
HETATM    1  C3  UNL     1     -47.017 -23.077   9.218  1.00  0.00     0.264 C 
HETATM    2  C4  UNL     1     -46.860 -24.539   8.940  1.00  0.00     0.102 C 
HETATM    3  C5  UNL     1     -45.644 -25.054   9.572  1.00  0.00    -0.018 A 
HETATM    4  C6  UNL     1     -45.460 -26.400   9.845  1.00  0.00     0.065 A 
HETATM    5 CL1  UNL     1     -46.751 -27.502   9.407  1.00  0.00    -0.082 Cl
HETATM    6  C7  UNL     1     -44.316 -26.889  10.438  1.00  0.00     0.092 A 
HETATM    7 CL2  UNL     1     -44.143 -28.579  10.755  1.00  0.00    -0.079 Cl
HETATM    8  C8  UNL     1     -43.313 -25.999  10.774  1.00  0.00     0.129 A 
HETATM    9  C9  UNL     1     -43.474 -24.649  10.511  1.00  0.00     0.116 A 
HETATM   10  C10 UNL     1     -44.640 -24.182   9.910  1.00  0.00     0.015 A 
HETATM   11  C11 UNL     1     -44.765 -22.751   9.652  1.00  0.00     0.157 C 
HETATM   12  C12 UNL     1     -43.548 -22.261   8.852  1.00  0.00     0.045 C 
HETATM   13  O2  UNL     1     -45.868 -22.348   8.957  1.00  0.00    -0.351 OA
HETATM   14  O3  UNL     1     -42.323 -23.979  10.944  1.00  0.00    -0.322 OA
HETATM   15  C13 UNL     1     -41.312 -24.947  11.142  1.00  0.00     0.352 C 
HETATM   16  O4  UNL     1     -42.053 -26.141  11.373  1.00  0.00    -0.321 OA
ENDROOT
BRANCH   1  17
HETATM   17  O1  UNL     1     -48.015 -22.596   8.366  1.00  0.00    -0.361 OA
BRANCH  17  18
HETATM   18  C2  UNL     1     -48.166 -21.222   8.469  1.00  0.00     0.166 C 
HETATM   19  C1  UNL     1     -48.996 -20.811   9.653  1.00  0.00     0.033 C 
ENDBRANCH  17  18
ENDBRANCH   1  17
TORSDOF 2
ENDMDL
