MODEL 1
REMARK VINA RESULT: -6.338886983      0.000      0.000
REMARK  3 active torsions:
REMARK  status: ('A' for Active; 'I' for Inactive)
REMARK    1  A    between atoms: C1_2  and  O2_3 
REMARK    2  A    between atoms: C1_2  and  C6_8 
REMARK    3  A    between atoms: O2_3  and  C2_4 
ROOT
HETATM    1  C6  UNL     1     -44.620 -24.450   9.690  1.00  0.00     0.083 A 
HETATM    2  C7  UNL     1     -44.917 -25.753   9.994  1.00  0.00     0.050 A 
HETATM    3  C8  UNL     1     -45.938 -26.318   9.340  1.00  0.00     0.059 A 
HETATM    4 CL1  UNL     1     -46.469 -28.007   9.605  1.00  0.00    -0.082 Cl
HETATM    5  C9  UNL     1     -46.605 -25.554   8.424  1.00  0.00     0.074 A 
HETATM    6 BR1  UNL     1     -48.092 -25.984   7.303  1.00  0.00    -0.041 Br
HETATM    7  S1  UNL     1     -45.791 -24.067   8.495  1.00  0.00    -0.075 SA
ENDROOT
BRANCH   1   8
HETATM    8  C1  UNL     1     -43.556 -23.596  10.255  1.00  0.00     0.300 C 
HETATM    9  O1  UNL     1     -43.372 -22.495   9.696  1.00  0.00    -0.259 OA
BRANCH   8  10
HETATM   10  O2  UNL     1     -42.802 -23.974  11.332  1.00  0.00    -0.312 OA
BRANCH  10  11
HETATM   11  C2  UNL     1     -41.576 -24.604  11.129  1.00  0.00     0.132 C 
HETATM   12  C3  UNL     1     -41.585 -26.119  11.197  1.00  0.00     0.032 C 
HETATM   13  C4  UNL     1     -40.161 -25.988  11.763  1.00  0.00     0.005 C 
HETATM   14  C5  UNL     1     -40.673 -24.673  12.370  1.00  0.00     0.032 C 
ENDBRANCH  10  11
ENDBRANCH   8  10
ENDBRANCH   1   8
TORSDOF 3
ENDMDL
MODEL 2
REMARK VINA RESULT: -6.323064338      3.418      5.422
REMARK  3 active torsions:
REMARK  status: ('A' for Active; 'I' for Inactive)
REMARK    1  A    between atoms: C1_2  and  O2_3 
REMARK    2  A    between atoms: C1_2  and  C6_8 
REMARK    3  A    between atoms: O2_3  and  C2_4 
ROOT
HETATM    1  C6  UNL     1     -44.287 -23.459  10.040  1.00  0.00     0.083 A 
HETATM    2  C7  UNL     1     -43.078 -23.939  10.472  1.00  0.00     0.050 A 
HETATM    3  C8  UNL     1     -42.993 -25.251  10.725  1.00  0.00     0.059 A 
HETATM    4 CL1  UNL     1     -41.498 -26.054  11.295  1.00  0.00    -0.082 Cl
HETATM    5  C9  UNL     1     -44.116 -26.007  10.534  1.00  0.00     0.074 A 
HETATM    6 BR1  UNL     1     -44.400 -27.880  10.779  1.00  0.00    -0.041 Br
HETATM    7  S1  UNL     1     -45.261 -24.872  10.006  1.00  0.00    -0.075 SA
ENDROOT
BRANCH   1   8
HETATM    8  C1  UNL     1     -44.651 -22.071   9.693  1.00  0.00     0.300 C 
HETATM    9  O1  UNL     1     -43.704 -21.285   9.482  1.00  0.00    -0.259 OA
BRANCH   8  10
HETATM   10  O2  UNL     1     -45.949 -21.651   9.602  1.00  0.00    -0.312 OA
BRANCH  10  11
HETATM   11  C2  UNL     1     -46.371 -20.948   8.475  1.00  0.00     0.132 C 
HETATM   12  C3  UNL     1     -47.870 -20.842   8.277  1.00  0.00     0.032 C 
HETATM   13  C4  UNL     1     -47.557 -20.866   6.772  1.00  0.00     0.005 C 
HETATM   14  C5  UNL     1     -46.376 -21.762   7.172  1.00  0.00     0.032 C 
ENDBRANCH  10  11
ENDBRANCH   8  10
ENDBRANCH   1   8
TORSDOF 3
ENDMDL
MODEL 3
REMARK VINA RESULT: -6.196779336      3.136      3.856
REMARK  3 active torsions:
REMARK  status: ('A' for Active; 'I' for Inactive)
REMARK    1  A    between atoms: C1_2  and  O2_3 
REMARK    2  A    between atoms: C1_2  and  C6_8 
REMARK    3  A    between atoms: O2_3  and  C2_4 
ROOT
HETATM    1  C6  UNL     1     -44.491 -23.105   9.678  1.00  0.00     0.083 A 
HETATM    2  C7  UNL     1     -44.764 -22.782   8.375  1.00  0.00     0.050 A 
HETATM    3  C8  UNL     1     -45.904 -22.125   8.131  1.00  0.00     0.059 A 
HETATM    4 CL1  UNL     1     -46.425 -21.622   6.494  1.00  0.00    -0.082 Cl
HETATM    5  C9  UNL     1     -46.706 -21.829   9.198  1.00  0.00     0.074 A 
HETATM    6 BR1  UNL     1     -48.385 -20.920   9.267  1.00  0.00    -0.041 Br
HETATM    7  S1  UNL     1     -45.851 -22.472  10.514  1.00  0.00    -0.075 SA
ENDROOT
BRANCH   1   8
HETATM    8  C1  UNL     1     -43.318 -23.819  10.220  1.00  0.00     0.300 C 
HETATM    9  O1  UNL     1     -42.202 -23.307   9.990  1.00  0.00    -0.259 OA
BRANCH   8  10
HETATM   10  O2  UNL     1     -43.427 -24.978  10.936  1.00  0.00    -0.312 OA
BRANCH  10  11
HETATM   11  C2  UNL     1     -43.827 -26.150  10.297  1.00  0.00     0.132 C 
HETATM   12  C3  UNL     1     -45.323 -26.378  10.198  1.00  0.00     0.032 C 
HETATM   13  C4  UNL     1     -44.985 -27.874  10.307  1.00  0.00     0.005 C 
HETATM   14  C5  UNL     1     -43.814 -27.405  11.183  1.00  0.00     0.032 C 
ENDBRANCH  10  11
ENDBRANCH   8  10
ENDBRANCH   1   8
TORSDOF 3
ENDMDL
MODEL 4
REMARK VINA RESULT: -6.161602573      2.926      4.961
REMARK  3 active torsions:
REMARK  status: ('A' for Active; 'I' for Inactive)
REMARK    1  A    between atoms: C1_2  and  O2_3 
REMARK    2  A    between atoms: C1_2  and  C6_8 
REMARK    3  A    between atoms: O2_3  and  C2_4 
ROOT
HETATM    1  C6  UNL     1     -44.847 -24.146   9.734  1.00  0.00     0.083 A 
HETATM    2  C7  UNL     1     -43.975 -25.008  10.347  1.00  0.00     0.050 A 
HETATM    3  C8  UNL     1     -44.304 -26.305  10.364  1.00  0.00     0.059 A 
HETATM    4 CL1  UNL     1     -43.290 -27.572  11.118  1.00  0.00    -0.082 Cl
HETATM    5  C9  UNL     1     -45.481 -26.668   9.771  1.00  0.00     0.074 A 
HETATM    6 BR1  UNL     1     -46.292 -28.388   9.588  1.00  0.00    -0.041 Br
HETATM    7  S1  UNL     1     -46.099 -25.194   9.203  1.00  0.00    -0.075 SA
ENDROOT
BRANCH   1   8
HETATM    8  C1  UNL     1     -44.730 -22.683   9.573  1.00  0.00     0.300 C 
HETATM    9  O1  UNL     1     -43.573 -22.213   9.596  1.00  0.00    -0.259 OA
BRANCH   8  10
HETATM   10  O2  UNL     1     -45.817 -21.871   9.409  1.00  0.00    -0.312 OA
BRANCH  10  11
HETATM   11  C2  UNL     1     -46.023 -21.230   8.188  1.00  0.00     0.132 C 
HETATM   12  C3  UNL     1     -47.358 -20.534   8.017  1.00  0.00     0.032 C 
HETATM   13  C4  UNL     1     -47.232 -20.907   6.530  1.00  0.00     0.005 C 
HETATM   14  C5  UNL     1     -46.488 -22.147   7.048  1.00  0.00     0.032 C 
ENDBRANCH  10  11
ENDBRANCH   8  10
ENDBRANCH   1   8
TORSDOF 3
ENDMDL
MODEL 5
REMARK VINA RESULT: -6.145370257      3.500      5.480
REMARK  3 active torsions:
REMARK  status: ('A' for Active; 'I' for Inactive)
REMARK    1  A    between atoms: C1_2  and  O2_3 
REMARK    2  A    between atoms: C1_2  and  C6_8 
REMARK    3  A    between atoms: O2_3  and  C2_4 
ROOT
HETATM    1  C6  UNL     1     -44.348 -23.423  10.183  1.00  0.00     0.083 A 
HETATM    2  C7  UNL     1     -43.138 -23.941  10.562  1.00  0.00     0.050 A 
HETATM    3  C8  UNL     1     -43.064 -25.265  10.740  1.00  0.00     0.059 A 
HETATM    4 CL1  UNL     1     -41.569 -26.116  11.234  1.00  0.00    -0.082 Cl
HETATM    5  C9  UNL     1     -44.200 -25.996  10.531  1.00  0.00     0.074 A 
HETATM    6 BR1  UNL     1     -44.503 -27.877  10.679  1.00  0.00    -0.041 Br
HETATM    7  S1  UNL     1     -45.341 -24.821  10.091  1.00  0.00    -0.075 SA
ENDROOT
BRANCH   1   8
HETATM    8  C1  UNL     1     -44.702 -22.014   9.920  1.00  0.00     0.300 C 
HETATM    9  O1  UNL     1     -43.801 -21.296   9.440  1.00  0.00    -0.259 OA
BRANCH   8  10
HETATM   10  O2  UNL     1     -45.944 -21.505  10.183  1.00  0.00    -0.312 OA
BRANCH  10  11
HETATM   11  C2  UNL     1     -46.889 -21.428   9.162  1.00  0.00     0.132 C 
HETATM   12  C3  UNL     1     -47.205 -20.037   8.648  1.00  0.00     0.032 C 
HETATM   13  C4  UNL     1     -48.625 -20.575   8.407  1.00  0.00     0.005 C 
HETATM   14  C5  UNL     1     -48.350 -21.458   9.632  1.00  0.00     0.032 C 
ENDBRANCH  10  11
ENDBRANCH   8  10
ENDBRANCH   1   8
TORSDOF 3
ENDMDL
