MODEL 1
REMARK VINA RESULT: -6.540121147      0.000      0.000
REMARK  3 active torsions:
REMARK  status: ('A' for Active; 'I' for Inactive)
REMARK    1  A    between atoms: C3_6  and  C4_7 
REMARK    2  A    between atoms: C4_7  and  S1_8 
REMARK    3  A    between atoms: S1_8  and  C5_9 
ROOT
HETATM    1  C1  UNL     1     -40.543 -25.787  11.670  1.00  0.00     0.081 C 
HETATM    2  C2  UNL     1     -41.670 -24.992  11.076  1.00  0.00     0.095 A 
HETATM    3  O1  UNL     1     -41.800 -23.772  10.732  1.00  0.00    -0.241 OA
HETATM    4  N1  UNL     1     -42.975 -23.517  10.278  1.00  0.00    -0.263 N 
ATOM      5  H1  UNL     1     -43.290 -22.604   9.951  1.00  0.00     0.194 HD
HETATM    6  C3  UNL     1     -43.712 -24.604  10.296  1.00  0.00     0.065 A 
HETATM    7  C7  UNL     1     -42.881 -25.617  10.817  1.00  0.00     0.101 A 
HETATM    8  C8  UNL     1     -43.305 -26.965  11.042  1.00  0.00     0.104 C 
HETATM    9  N2  UNL     1     -43.629 -28.066  11.248  1.00  0.00    -0.191 NA
ENDROOT
BRANCH   6  10
HETATM   10  C4  UNL     1     -45.107 -24.919   9.853  1.00  0.00     0.140 C 
BRANCH  10  11
HETATM   11  S1  UNL     1     -46.213 -23.516  10.073  1.00  0.00    -0.115 SA
BRANCH  11  12
HETATM   12  C5  UNL     1     -46.001 -22.258   8.895  1.00  0.00     0.058 C 
HETATM   13 BR1  UNL     1     -45.103 -20.647   9.211  1.00  0.00    -0.043 Br
HETATM   14  C6  UNL     1     -46.547 -22.491   7.688  1.00  0.00     0.110 C 
HETATM   15 CL1  UNL     1     -46.543 -21.454   6.319  1.00  0.00    -0.095 Cl
ENDBRANCH  11  12
ENDBRANCH  10  11
ENDBRANCH   6  10
TORSDOF 3
ENDMDL
MODEL 2
REMARK VINA RESULT: -6.422531732      3.940      5.880
REMARK  3 active torsions:
REMARK  status: ('A' for Active; 'I' for Inactive)
REMARK    1  A    between atoms: C3_6  and  C4_7 
REMARK    2  A    between atoms: C4_7  and  S1_8 
REMARK    3  A    between atoms: S1_8  and  C5_9 
ROOT
HETATM    1  C1  UNL     1     -47.392 -19.407   8.743  1.00  0.00     0.081 C 
HETATM    2  C2  UNL     1     -46.020 -19.953   9.017  1.00  0.00     0.095 A 
HETATM    3  O1  UNL     1     -44.973 -19.468   9.558  1.00  0.00    -0.241 OA
HETATM    4  N1  UNL     1     -43.996 -20.303   9.562  1.00  0.00    -0.263 N 
ATOM      5  H1  UNL     1     -43.069 -20.117   9.944  1.00  0.00     0.194 HD
HETATM    6  C3  UNL     1     -44.366 -21.433   9.003  1.00  0.00     0.065 A 
HETATM    7  C7  UNL     1     -45.713 -21.248   8.628  1.00  0.00     0.101 A 
HETATM    8  C8  UNL     1     -46.497 -22.231   7.946  1.00  0.00     0.104 C 
HETATM    9  N2  UNL     1     -47.154 -23.010   7.378  1.00  0.00    -0.191 NA
ENDROOT
BRANCH   6  10
HETATM   10  C4  UNL     1     -43.689 -22.749   8.778  1.00  0.00     0.140 C 
BRANCH  10  11
HETATM   11  S1  UNL     1     -43.532 -23.690  10.305  1.00  0.00    -0.115 SA
BRANCH  11  12
HETATM   12  C5  UNL     1     -44.230 -25.278  10.231  1.00  0.00     0.058 C 
HETATM   13 BR1  UNL     1     -45.883 -25.677   9.450  1.00  0.00    -0.043 Br
HETATM   14  C6  UNL     1     -43.508 -26.261  10.798  1.00  0.00     0.110 C 
HETATM   15 CL1  UNL     1     -43.915 -27.925  10.921  1.00  0.00    -0.095 Cl
ENDBRANCH  11  12
ENDBRANCH  10  11
ENDBRANCH   6  10
TORSDOF 3
ENDMDL
MODEL 3
REMARK VINA RESULT: -6.388641551      1.251      1.293
REMARK  3 active torsions:
REMARK  status: ('A' for Active; 'I' for Inactive)
REMARK    1  A    between atoms: C3_6  and  C4_7 
REMARK    2  A    between atoms: C4_7  and  S1_8 
REMARK    3  A    between atoms: S1_8  and  C5_9 
ROOT
HETATM    1  C1  UNL     1     -40.652 -25.709  11.555  1.00  0.00     0.081 C 
HETATM    2  C2  UNL     1     -41.804 -24.922  11.002  1.00  0.00     0.095 A 
HETATM    3  O1  UNL     1     -41.955 -23.703  10.664  1.00  0.00    -0.241 OA
HETATM    4  N1  UNL     1     -43.146 -23.456  10.251  1.00  0.00    -0.263 N 
ATOM      5  H1  UNL     1     -43.479 -22.545   9.936  1.00  0.00     0.194 HD
HETATM    6  C3  UNL     1     -43.875 -24.548  10.294  1.00  0.00     0.065 A 
HETATM    7  C7  UNL     1     -43.019 -25.556  10.784  1.00  0.00     0.101 A 
HETATM    8  C8  UNL     1     -43.425 -26.907  11.022  1.00  0.00     0.104 C 
HETATM    9  N2  UNL     1     -43.734 -28.011  11.237  1.00  0.00    -0.191 NA
ENDROOT
BRANCH   6  10
HETATM   10  C4  UNL     1     -45.282 -24.873   9.898  1.00  0.00     0.140 C 
BRANCH  10  11
HETATM   11  S1  UNL     1     -46.413 -23.526  10.281  1.00  0.00    -0.115 SA
BRANCH  11  12
HETATM   12  C5  UNL     1     -46.785 -22.509   8.923  1.00  0.00     0.058 C 
HETATM   13 BR1  UNL     1     -46.417 -22.940   7.141  1.00  0.00    -0.043 Br
HETATM   14  C6  UNL     1     -47.366 -21.332   9.218  1.00  0.00     0.110 C 
HETATM   15 CL1  UNL     1     -47.837 -20.094   8.125  1.00  0.00    -0.095 Cl
ENDBRANCH  11  12
ENDBRANCH  10  11
ENDBRANCH   6  10
TORSDOF 3
ENDMDL
MODEL 4
REMARK VINA RESULT: -6.288151543      1.189      1.201
REMARK  3 active torsions:
REMARK  status: ('A' for Active; 'I' for Inactive)
REMARK    1  A    between atoms: C3_6  and  C4_7 
REMARK    2  A    between atoms: C4_7  and  S1_8 
REMARK    3  A    between atoms: S1_8  and  C5_9 
ROOT
HETATM    1  C1  UNL     1     -40.576 -25.778  11.689  1.00  0.00     0.081 C 
HETATM    2  C2  UNL     1     -41.678 -24.967  11.073  1.00  0.00     0.095 A 
HETATM    3  O1  UNL     1     -41.781 -23.746  10.721  1.00  0.00    -0.241 OA
HETATM    4  N1  UNL     1     -42.944 -23.472  10.247  1.00  0.00    -0.263 N 
ATOM      5  H1  UNL     1     -43.237 -22.556   9.910  1.00  0.00     0.194 HD
HETATM    6  C3  UNL     1     -43.701 -24.546  10.260  1.00  0.00     0.065 A 
HETATM    7  C7  UNL     1     -42.896 -25.571  10.798  1.00  0.00     0.101 A 
HETATM    8  C8  UNL     1     -43.349 -26.910  11.024  1.00  0.00     0.104 C 
HETATM    9  N2  UNL     1     -43.696 -28.004  11.231  1.00  0.00    -0.191 NA
ENDROOT
BRANCH   6  10
HETATM   10  C4  UNL     1     -45.094 -24.838   9.796  1.00  0.00     0.140 C 
BRANCH  10  11
HETATM   11  S1  UNL     1     -45.568 -23.800   8.404  1.00  0.00    -0.115 SA
BRANCH  11  12
HETATM   12  C5  UNL     1     -46.206 -22.251   8.863  1.00  0.00     0.058 C 
HETATM   13 BR1  UNL     1     -45.168 -20.729   9.189  1.00  0.00    -0.043 Br
HETATM   14  C6  UNL     1     -47.543 -22.187   8.996  1.00  0.00     0.110 C 
HETATM   15 CL1  UNL     1     -48.486 -20.828   9.459  1.00  0.00    -0.095 Cl
ENDBRANCH  11  12
ENDBRANCH  10  11
ENDBRANCH   6  10
TORSDOF 3
ENDMDL
MODEL 5
REMARK VINA RESULT: -6.253120110      2.010      2.062
REMARK  3 active torsions:
REMARK  status: ('A' for Active; 'I' for Inactive)
REMARK    1  A    between atoms: C3_6  and  C4_7 
REMARK    2  A    between atoms: C4_7  and  S1_8 
REMARK    3  A    between atoms: S1_8  and  C5_9 
ROOT
HETATM    1  C1  UNL     1     -40.640 -25.662  11.647  1.00  0.00     0.081 C 
HETATM    2  C2  UNL     1     -41.804 -24.919  11.056  1.00  0.00     0.095 A 
HETATM    3  O1  UNL     1     -41.993 -23.705  10.719  1.00  0.00    -0.241 OA
HETATM    4  N1  UNL     1     -43.179 -23.505  10.266  1.00  0.00    -0.263 N 
ATOM      5  H1  UNL     1     -43.538 -22.606   9.944  1.00  0.00     0.194 HD
HETATM    6  C3  UNL     1     -43.863 -24.626  10.278  1.00  0.00     0.065 A 
HETATM    7  C7  UNL     1     -42.983 -25.601  10.793  1.00  0.00     0.101 A 
HETATM    8  C8  UNL     1     -43.342 -26.969  11.011  1.00  0.00     0.104 C 
HETATM    9  N2  UNL     1     -43.612 -28.086  11.211  1.00  0.00    -0.191 NA
ENDROOT
BRANCH   6  10
HETATM   10  C4  UNL     1     -45.240 -25.007   9.833  1.00  0.00     0.140 C 
BRANCH  10  11
HETATM   11  S1  UNL     1     -45.888 -23.858   8.607  1.00  0.00    -0.115 SA
BRANCH  11  12
HETATM   12  C5  UNL     1     -47.350 -23.058   9.092  1.00  0.00     0.058 C 
HETATM   13 BR1  UNL     1     -48.374 -21.952   7.984  1.00  0.00    -0.043 Br
HETATM   14  C6  UNL     1     -47.733 -23.262  10.366  1.00  0.00     0.110 C 
HETATM   15 CL1  UNL     1     -49.102 -22.606  11.167  1.00  0.00    -0.095 Cl
ENDBRANCH  11  12
ENDBRANCH  10  11
ENDBRANCH   6  10
TORSDOF 3
ENDMDL
