MODEL 1
REMARK VINA RESULT: -9.065351761      0.000      0.000
REMARK  2 active torsions:
REMARK  status: ('A' for Active; 'I' for Inactive)
REMARK    1  A    between atoms: C2_2  and  C6_8 
REMARK    2  A    between atoms: C3_3  and  C4_4 
ROOT
HETATM    1  C6  UNL     1     -45.585 -26.741   9.854  1.00  0.00     0.002 A 
HETATM    2  C7  UNL     1     -45.521 -28.000  10.305  1.00  0.00    -0.005 A 
HETATM    3  C8  UNL     1     -44.243 -28.285  10.948  1.00  0.00     0.095 A 
HETATM    4  C9  UNL     1     -43.511 -27.003  10.829  1.00  0.00     0.084 A 
HETATM    5  C10 UNL     1     -44.302 -26.141  10.201  1.00  0.00     0.112 A 
HETATM    6  O1  UNL     1     -43.893 -24.829   9.933  1.00  0.00    -0.314 OA
HETATM    7  C11 UNL     1     -43.192 -23.958  10.781  1.00  0.00     0.298 A 
HETATM    8  O2  UNL     1     -42.027 -23.358  10.318  1.00  0.00    -0.345 OA
HETATM    9  C12 UNL     1     -42.010 -24.372  11.396  1.00  0.00     0.209 A 
HETATM   10  C13 UNL     1     -41.361 -25.657  11.065  1.00  0.00     0.158 C 
HETATM   11  C14 UNL     1     -40.138 -25.892  11.960  1.00  0.00     0.043 C 
HETATM   12  O3  UNL     1     -42.204 -26.791  11.317  1.00  0.00    -0.345 OA
ENDROOT
BRANCH   1  13
HETATM   13  C2  UNL     1     -46.702 -26.113   9.165  1.00  0.00    -0.049 C 
HETATM   14  C1  UNL     1     -47.315 -26.822   7.986  1.00  0.00     0.049 C 
HETATM   15  C3  UNL     1     -47.243 -24.958   9.480  1.00  0.00     0.010 C 
BRANCH  15  16
HETATM   16  C4  UNL     1     -48.352 -24.433   8.722  1.00  0.00     0.037 C 
HETATM   17  C5  UNL     1     -49.112 -23.491   9.255  1.00  0.00     0.103 C 
HETATM   18 CL1  UNL     1     -48.784 -22.881  10.862  1.00  0.00    -0.071 Cl
HETATM   19 CL2  UNL     1     -50.458 -22.854   8.333  1.00  0.00    -0.071 Cl
ENDBRANCH  15  16
ENDBRANCH   1  13
TORSDOF 2
ENDMDL
MODEL 2
REMARK VINA RESULT: -8.825371168      3.432      5.773
REMARK  2 active torsions:
REMARK  status: ('A' for Active; 'I' for Inactive)
REMARK    1  A    between atoms: C2_2  and  C6_8 
REMARK    2  A    between atoms: C3_3  and  C4_4 
ROOT
HETATM    1  C6  UNL     1     -44.665 -25.353  10.115  1.00  0.00     0.002 A 
HETATM    2  C7  UNL     1     -43.533 -24.665  10.311  1.00  0.00    -0.005 A 
HETATM    3  C8  UNL     1     -43.714 -23.238  10.066  1.00  0.00     0.095 A 
HETATM    4  C9  UNL     1     -45.142 -23.137   9.684  1.00  0.00     0.084 A 
HETATM    5  C10 UNL     1     -45.658 -24.360   9.721  1.00  0.00     0.112 A 
HETATM    6  O1  UNL     1     -47.002 -24.600   9.408  1.00  0.00    -0.314 OA
HETATM    7  C11 UNL     1     -48.120 -23.840   9.784  1.00  0.00     0.298 A 
HETATM    8  O2  UNL     1     -49.002 -23.406   8.801  1.00  0.00    -0.345 OA
HETATM    9  C12 UNL     1     -48.146 -22.464   9.558  1.00  0.00     0.209 A 
HETATM   10  C13 UNL     1     -47.096 -21.776   8.780  1.00  0.00     0.158 C 
HETATM   11  C14 UNL     1     -47.330 -20.260   8.776  1.00  0.00     0.043 C 
HETATM   12  O3  UNL     1     -45.787 -21.928   9.349  1.00  0.00    -0.345 OA
ENDROOT
BRANCH   1  13
HETATM   13  C2  UNL     1     -44.855 -26.787  10.266  1.00  0.00    -0.049 C 
HETATM   14  C1  UNL     1     -43.876 -27.562  11.110  1.00  0.00     0.049 C 
HETATM   15  C3  UNL     1     -45.823 -27.492   9.725  1.00  0.00     0.010 C 
BRANCH  15  16
HETATM   16  C4  UNL     1     -45.912 -28.914   9.945  1.00  0.00     0.037 C 
HETATM   17  C5  UNL     1     -46.530 -29.670   9.055  1.00  0.00     0.103 C 
HETATM   18 CL1  UNL     1     -47.239 -28.963   7.620  1.00  0.00    -0.071 Cl
HETATM   19 CL2  UNL     1     -46.637 -31.398   9.325  1.00  0.00    -0.071 Cl
ENDBRANCH  15  16
ENDBRANCH   1  13
TORSDOF 2
ENDMDL
MODEL 3
REMARK VINA RESULT: -8.704092984      1.530      1.566
REMARK  2 active torsions:
REMARK  status: ('A' for Active; 'I' for Inactive)
REMARK    1  A    between atoms: C2_2  and  C6_8 
REMARK    2  A    between atoms: C3_3  and  C4_4 
ROOT
HETATM    1  C6  UNL     1     -45.947 -26.888   9.593  1.00  0.00     0.002 A 
HETATM    2  C7  UNL     1     -45.769 -28.115  10.097  1.00  0.00    -0.005 A 
HETATM    3  C8  UNL     1     -44.488 -28.242  10.783  1.00  0.00     0.095 A 
HETATM    4  C9  UNL     1     -43.886 -26.897  10.629  1.00  0.00     0.084 A 
HETATM    5  C10 UNL     1     -44.742 -26.146   9.946  1.00  0.00     0.112 A 
HETATM    6  O1  UNL     1     -44.461 -24.810   9.634  1.00  0.00    -0.314 OA
HETATM    7  C11 UNL     1     -43.876 -23.840  10.462  1.00  0.00     0.298 A 
HETATM    8  O2  UNL     1     -42.765 -23.142  10.003  1.00  0.00    -0.345 OA
HETATM    9  C12 UNL     1     -42.676 -24.106  11.123  1.00  0.00     0.209 A 
HETATM   10  C13 UNL     1     -41.891 -25.330  10.863  1.00  0.00     0.158 C 
HETATM   11  C14 UNL     1     -40.677 -25.404  11.797  1.00  0.00     0.043 C 
HETATM   12  O3  UNL     1     -42.622 -26.534  11.140  1.00  0.00    -0.345 OA
ENDROOT
BRANCH   1  13
HETATM   13  C2  UNL     1     -47.101 -26.405   8.850  1.00  0.00    -0.049 C 
HETATM   14  C1  UNL     1     -46.873 -25.675   7.552  1.00  0.00     0.049 C 
HETATM   15  C3  UNL     1     -48.356 -26.548   9.211  1.00  0.00     0.010 C 
BRANCH  15  16
HETATM   16  C4  UNL     1     -49.423 -26.027   8.391  1.00  0.00     0.037 C 
HETATM   17  C5  UNL     1     -50.627 -25.876   8.914  1.00  0.00     0.103 C 
HETATM   18 CL1  UNL     1     -50.937 -26.302  10.583  1.00  0.00    -0.071 Cl
HETATM   19 CL2  UNL     1     -51.921 -25.243   7.916  1.00  0.00    -0.071 Cl
ENDBRANCH  15  16
ENDBRANCH   1  13
TORSDOF 2
ENDMDL
MODEL 4
REMARK VINA RESULT: -8.698772022      2.071      2.583
REMARK  2 active torsions:
REMARK  status: ('A' for Active; 'I' for Inactive)
REMARK    1  A    between atoms: C2_2  and  C6_8 
REMARK    2  A    between atoms: C3_3  and  C4_4 
ROOT
HETATM    1  C6  UNL     1     -45.742 -27.035   9.653  1.00  0.00     0.002 A 
HETATM    2  C7  UNL     1     -45.562 -28.229  10.231  1.00  0.00    -0.005 A 
HETATM    3  C8  UNL     1     -44.305 -28.293  10.968  1.00  0.00     0.095 A 
HETATM    4  C9  UNL     1     -43.720 -26.947  10.761  1.00  0.00     0.084 A 
HETATM    5  C10 UNL     1     -44.563 -26.252  10.006  1.00  0.00     0.112 A 
HETATM    6  O1  UNL     1     -44.294 -24.930   9.630  1.00  0.00    -0.314 OA
HETATM    7  C11 UNL     1     -43.756 -23.905  10.423  1.00  0.00     0.298 A 
HETATM    8  O2  UNL     1     -42.641 -23.212   9.966  1.00  0.00    -0.345 OA
HETATM    9  C12 UNL     1     -42.577 -24.111  11.140  1.00  0.00     0.209 A 
HETATM   10  C13 UNL     1     -41.763 -25.333  10.977  1.00  0.00     0.158 C 
HETATM   11  C14 UNL     1     -40.582 -25.332  11.956  1.00  0.00     0.043 C 
HETATM   12  O3  UNL     1     -42.482 -26.533  11.295  1.00  0.00    -0.345 OA
ENDROOT
BRANCH   1  13
HETATM   13  C2  UNL     1     -46.876 -26.616   8.843  1.00  0.00    -0.049 C 
HETATM   14  C1  UNL     1     -47.631 -25.375   9.243  1.00  0.00     0.049 C 
HETATM   15  C3  UNL     1     -47.318 -27.230   7.769  1.00  0.00     0.010 C 
BRANCH  15  16
HETATM   16  C4  UNL     1     -48.455 -26.721   7.043  1.00  0.00     0.037 C 
HETATM   17  C5  UNL     1     -49.387 -27.560   6.627  1.00  0.00     0.103 C 
HETATM   18 CL1  UNL     1     -49.252 -29.276   6.946  1.00  0.00    -0.071 Cl
HETATM   19 CL2  UNL     1     -50.767 -26.939   5.745  1.00  0.00    -0.071 Cl
ENDBRANCH  15  16
ENDBRANCH   1  13
TORSDOF 2
ENDMDL
MODEL 5
REMARK VINA RESULT: -8.645221664      4.071      7.063
REMARK  2 active torsions:
REMARK  status: ('A' for Active; 'I' for Inactive)
REMARK    1  A    between atoms: C2_2  and  C6_8 
REMARK    2  A    between atoms: C3_3  and  C4_4 
ROOT
HETATM    1  C6  UNL     1     -45.823 -23.742   8.746  1.00  0.00     0.002 A 
HETATM    2  C7  UNL     1     -46.453 -24.759   8.144  1.00  0.00    -0.005 A 
HETATM    3  C8  UNL     1     -47.784 -24.380   7.683  1.00  0.00     0.095 A 
HETATM    4  C9  UNL     1     -47.893 -22.959   8.092  1.00  0.00     0.084 A 
HETATM    5  C10 UNL     1     -46.758 -22.624   8.696  1.00  0.00     0.112 A 
HETATM    6  O1  UNL     1     -46.548 -21.336   9.203  1.00  0.00    -0.314 OA
HETATM    7  C11 UNL     1     -46.890 -20.113   8.605  1.00  0.00     0.298 A 
HETATM    8  O2  UNL     1     -47.646 -19.196   9.328  1.00  0.00    -0.345 OA
HETATM    9  C12 UNL     1     -48.186 -19.893   8.139  1.00  0.00     0.209 A 
HETATM   10  C13 UNL     1     -49.285 -20.848   8.392  1.00  0.00     0.158 C 
HETATM   11  C14 UNL     1     -50.568 -20.398   7.683  1.00  0.00     0.043 C 
HETATM   12  O3  UNL     1     -49.026 -22.154   7.856  1.00  0.00    -0.345 OA
ENDROOT
BRANCH   1  13
HETATM   13  C2  UNL     1     -44.489 -23.759   9.325  1.00  0.00    -0.049 C 
HETATM   14  C1  UNL     1     -43.484 -22.738   8.858  1.00  0.00     0.049 C 
HETATM   15  C3  UNL     1     -44.063 -24.599  10.242  1.00  0.00     0.010 C 
BRANCH  15  16
HETATM   16  C4  UNL     1     -42.714 -24.520  10.745  1.00  0.00     0.037 C 
HETATM   17  C5  UNL     1     -42.118 -25.618  11.177  1.00  0.00     0.103 C 
HETATM   18 CL1  UNL     1     -42.950 -27.157  11.146  1.00  0.00    -0.071 Cl
HETATM   19 CL2  UNL     1     -40.479 -25.519  11.788  1.00  0.00    -0.071 Cl
ENDBRANCH  15  16
ENDBRANCH   1  13
TORSDOF 2
ENDMDL
