MODEL 1
REMARK VINA RESULT: -5.588950308      0.000      0.000
REMARK  7 active torsions:
REMARK  status: ('A' for Active; 'I' for Inactive)
REMARK    1  A    between atoms: N1_1  and  C1_4 
REMARK    2  A    between atoms: C3_7  and  N3_8 
REMARK    3  A    between atoms: N3_8  and  C4_10 
REMARK    4  A    between atoms: C4_10  and  C5_11 
REMARK    5  A    between atoms: C5_11  and  O1_12 
REMARK    6  A    between atoms: C7_18  and  N6_19 
REMARK    7  A    between atoms: N6_19  and  C8_21 
ROOT
HETATM    1  C1  UNL     1      14.997  11.019  12.459  1.00  0.00     0.084 A 
HETATM    2  C2  UNL     1      16.167  11.645  12.756  1.00  0.00     0.118 A 
HETATM    3  N2  UNL     1      16.122  13.056  13.016  1.00  0.00    -0.096 NA
HETATM    4  C3  UNL     1      17.410  11.006  12.826  1.00  0.00     0.129 A 
HETATM    5  N4  UNL     1      17.432   9.693  12.581  1.00  0.00    -0.328 N 
ATOM      6  H4  UNL     1      18.311   9.178  12.618  1.00  0.00     0.168 HD
HETATM    7  C6  UNL     1      16.273   9.053  12.283  1.00  0.00     0.147 A 
HETATM    8  N5  UNL     1      16.307   7.639  12.021  1.00  0.00    -0.080 NA
HETATM    9  C7  UNL     1      15.052   9.661  12.211  1.00  0.00     0.105 A 
ENDROOT
BRANCH   9  10
HETATM   10  N6  UNL     1      13.848   8.988  11.900  1.00  0.00    -0.323 N 
ATOM     11  H6  UNL     1      13.244   8.699  12.670  1.00  0.00     0.169 HD
BRANCH  10  12
HETATM   12  C8  UNL     1      13.436   8.694  10.578  1.00  0.00     0.193 C 
HETATM   13  N7  UNL     1      12.599   9.264   9.810  1.00  0.00    -0.346 N 
HETATM   14  C9  UNL     1      12.497   8.612   8.529  1.00  0.00     0.259 C 
ATOM     15  H7  UNL     1      12.061  10.090  10.071  1.00  0.00     0.163 HD
HETATM   16  N8  UNL     1      13.696   7.840   8.453  1.00  0.00    -0.119 NA
HETATM   17  N9  UNL     1      13.959   7.592   9.825  1.00  0.00    -0.274 N 
ATOM     18  H9  UNL     1      14.436   6.776  10.208  1.00  0.00     0.185 HD
ENDBRANCH  10  12
ENDBRANCH   9  10
BRANCH   1  19
HETATM   19  N1  UNL     1      13.869  11.668  12.409  1.00  0.00    -0.396 N 
ATOM     20  H12 UNL     1      13.590  12.301  13.157  1.00  0.00     0.156 HD
ATOM     21  H11 UNL     1      13.228  11.566  11.622  1.00  0.00     0.156 HD
ENDBRANCH   1  19
BRANCH   4  22
HETATM   22  N3  UNL     1      18.590  11.719  13.122  1.00  0.00    -0.373 N 
ATOM     23  H3  UNL     1      19.037  12.211  12.348  1.00  0.00     0.161 HD
BRANCH  22  24
HETATM   24  C4  UNL     1      19.220  11.819  14.394  1.00  0.00     0.147 C 
BRANCH  24  25
HETATM   25  C5  UNL     1      20.416  10.945  14.607  1.00  0.00     0.183 C 
BRANCH  25  26
HETATM   26  O1  UNL     1      20.500  10.103  13.481  1.00  0.00    -0.399 OA
ATOM     27  H1  UNL     1      21.259  10.391  12.987  1.00  0.00     0.209 HD
ENDBRANCH  25  26
ENDBRANCH  24  25
ENDBRANCH  22  24
ENDBRANCH   4  22
TORSDOF 7
ENDMDL
MODEL 2
REMARK VINA RESULT: -5.554477528      7.919      9.516
REMARK  7 active torsions:
REMARK  status: ('A' for Active; 'I' for Inactive)
REMARK    1  A    between atoms: N1_1  and  C1_4 
REMARK    2  A    between atoms: C3_7  and  N3_8 
REMARK    3  A    between atoms: N3_8  and  C4_10 
REMARK    4  A    between atoms: C4_10  and  C5_11 
REMARK    5  A    between atoms: C5_11  and  O1_12 
REMARK    6  A    between atoms: C7_18  and  N6_19 
REMARK    7  A    between atoms: N6_19  and  C8_21 
ROOT
HETATM    1  C1  UNL     1      13.778  17.132  18.537  1.00  0.00     0.084 A 
HETATM    2  C2  UNL     1      15.073  17.332  18.899  1.00  0.00     0.118 A 
HETATM    3  N2  UNL     1      15.444  17.026  20.251  1.00  0.00    -0.096 NA
HETATM    4  C3  UNL     1      16.068  17.816  18.042  1.00  0.00     0.129 A 
HETATM    5  N4  UNL     1      15.704  18.095  16.788  1.00  0.00    -0.328 N 
ATOM      6  H4  UNL     1      16.389  18.452  16.120  1.00  0.00     0.168 HD
HETATM    7  C6  UNL     1      14.415  17.901  16.409  1.00  0.00     0.147 A 
HETATM    8  N5  UNL     1      14.034  18.205  15.057  1.00  0.00    -0.080 NA
HETATM    9  C7  UNL     1      13.433  17.430  17.233  1.00  0.00     0.105 A 
ENDROOT
BRANCH   9  10
HETATM   10  N6  UNL     1      12.092  17.229  16.833  1.00  0.00    -0.323 N 
ATOM     11  H6  UNL     1      11.380  17.865  17.191  1.00  0.00     0.169 HD
BRANCH  10  12
HETATM   12  C8  UNL     1      11.685  16.190  15.961  1.00  0.00     0.193 C 
HETATM   13  N7  UNL     1      12.329  15.510  15.102  1.00  0.00    -0.346 N 
HETATM   14  C9  UNL     1      11.497  14.542  14.433  1.00  0.00     0.259 C 
ATOM     15  H7  UNL     1      13.322  15.635  14.909  1.00  0.00     0.163 HD
HETATM   16  N8  UNL     1      10.370  14.415  15.300  1.00  0.00    -0.119 NA
HETATM   17  N9  UNL     1      10.340  15.695  15.912  1.00  0.00    -0.274 N 
ATOM     18  H9  UNL     1       9.510  16.177  16.256  1.00  0.00     0.185 HD
ENDBRANCH  10  12
ENDBRANCH   9  10
BRANCH   1  19
HETATM   19  N1  UNL     1      12.896  16.678  19.381  1.00  0.00    -0.396 N 
ATOM     20  H12 UNL     1      11.927  16.528  19.102  1.00  0.00     0.156 HD
ATOM     21  H11 UNL     1      13.143  16.458  20.345  1.00  0.00     0.156 HD
ENDBRANCH   1  19
BRANCH   4  22
HETATM   22  N3  UNL     1      17.391  18.019  18.487  1.00  0.00    -0.373 N 
ATOM     23  H3  UNL     1      17.925  17.187  18.739  1.00  0.00     0.161 HD
BRANCH  22  24
HETATM   24  C4  UNL     1      18.054  19.271  18.619  1.00  0.00     0.147 C 
BRANCH  24  25
HETATM   25  C5  UNL     1      18.188  19.802  20.011  1.00  0.00     0.183 C 
BRANCH  25  26
HETATM   26  O1  UNL     1      16.929  19.637  20.622  1.00  0.00    -0.399 OA
ATOM     27  H1  UNL     1      16.860  18.716  20.849  1.00  0.00     0.209 HD
ENDBRANCH  25  26
ENDBRANCH  24  25
ENDBRANCH  22  24
ENDBRANCH   4  22
TORSDOF 7
ENDMDL
MODEL 3
REMARK VINA RESULT: -5.389136709      2.559      6.060
REMARK  7 active torsions:
REMARK  status: ('A' for Active; 'I' for Inactive)
REMARK    1  A    between atoms: N1_1  and  C1_4 
REMARK    2  A    between atoms: C3_7  and  N3_8 
REMARK    3  A    between atoms: N3_8  and  C4_10 
REMARK    4  A    between atoms: C4_10  and  C5_11 
REMARK    5  A    between atoms: C5_11  and  O1_12 
REMARK    6  A    between atoms: C7_18  and  N6_19 
REMARK    7  A    between atoms: N6_19  and  C8_21 
ROOT
HETATM    1  C1  UNL     1      15.046  10.758  12.252  1.00  0.00     0.084 A 
HETATM    2  C2  UNL     1      14.198  10.265  11.311  1.00  0.00     0.118 A 
HETATM    3  N2  UNL     1      13.754  11.156  10.277  1.00  0.00    -0.096 NA
HETATM    4  C3  UNL     1      13.730   8.946  11.282  1.00  0.00     0.129 A 
HETATM    5  N4  UNL     1      14.154   8.131  12.251  1.00  0.00    -0.328 N 
ATOM      6  H4  UNL     1      13.844   7.159  12.278  1.00  0.00     0.168 HD
HETATM    7  C6  UNL     1      15.001   8.607  13.198  1.00  0.00     0.147 A 
HETATM    8  N5  UNL     1      15.451   7.721  14.237  1.00  0.00    -0.080 NA
HETATM    9  C7  UNL     1      15.466   9.890  13.241  1.00  0.00     0.105 A 
ENDROOT
BRANCH   9  10
HETATM   10  N6  UNL     1      16.350  10.381  14.230  1.00  0.00    -0.323 N 
ATOM     11  H6  UNL     1      15.953  10.859  15.039  1.00  0.00     0.169 HD
BRANCH  10  12
HETATM   12  C8  UNL     1      17.757  10.243  14.158  1.00  0.00     0.193 C 
HETATM   13  N7  UNL     1      18.687  11.108  14.108  1.00  0.00    -0.346 N 
HETATM   14  C9  UNL     1      19.994  10.505  14.042  1.00  0.00     0.259 C 
ATOM     15  H7  UNL     1      18.526  12.115  14.113  1.00  0.00     0.163 HD
HETATM   16  N8  UNL     1      19.769   9.172  14.503  1.00  0.00    -0.119 NA
HETATM   17  N9  UNL     1      18.415   8.970  14.130  1.00  0.00    -0.274 N 
ATOM     18  H9  UNL     1      17.986   8.078  13.885  1.00  0.00     0.185 HD
ENDBRANCH  10  12
ENDBRANCH   9  10
BRANCH   1  19
HETATM   19  N1  UNL     1      15.447  11.997  12.227  1.00  0.00    -0.396 N 
ATOM     20  H12 UNL     1      15.502  12.516  11.351  1.00  0.00     0.156 HD
ATOM     21  H11 UNL     1      15.719  12.488  13.078  1.00  0.00     0.156 HD
ENDBRANCH   1  19
BRANCH   4  22
HETATM   22  N3  UNL     1      12.835   8.502  10.286  1.00  0.00    -0.373 N 
ATOM     23  H3  UNL     1      12.034   9.102  10.086  1.00  0.00     0.161 HD
BRANCH  22  24
HETATM   24  C4  UNL     1      12.940   7.300   9.532  1.00  0.00     0.147 C 
BRANCH  24  25
HETATM   25  C5  UNL     1      13.391   7.449   8.113  1.00  0.00     0.183 C 
BRANCH  25  26
HETATM   26  O1  UNL     1      14.591   6.720   7.999  1.00  0.00    -0.399 OA
ATOM     27  H1  UNL     1      14.876   6.813   7.097  1.00  0.00     0.209 HD
ENDBRANCH  25  26
ENDBRANCH  24  25
ENDBRANCH  22  24
ENDBRANCH   4  22
TORSDOF 7
ENDMDL
MODEL 4
REMARK VINA RESULT: -5.385082475      2.249      3.558
REMARK  7 active torsions:
REMARK  status: ('A' for Active; 'I' for Inactive)
REMARK    1  A    between atoms: N1_1  and  C1_4 
REMARK    2  A    between atoms: C3_7  and  N3_8 
REMARK    3  A    between atoms: N3_8  and  C4_10 
REMARK    4  A    between atoms: C4_10  and  C5_11 
REMARK    5  A    between atoms: C5_11  and  O1_12 
REMARK    6  A    between atoms: C7_18  and  N6_19 
REMARK    7  A    between atoms: N6_19  and  C8_21 
ROOT
HETATM    1  C1  UNL     1      17.589  10.166  13.358  1.00  0.00     0.084 A 
HETATM    2  C2  UNL     1      18.625  10.968  13.722  1.00  0.00     0.118 A 
HETATM    3  N2  UNL     1      19.957  10.494  13.471  1.00  0.00    -0.096 NA
HETATM    4  C3  UNL     1      18.481  12.224  14.321  1.00  0.00     0.129 A 
HETATM    5  N4  UNL     1      17.235  12.649  14.546  1.00  0.00    -0.328 N 
ATOM      6  H4  UNL     1      17.072  13.557  14.982  1.00  0.00     0.168 HD
HETATM    7  C6  UNL     1      16.189  11.861  14.190  1.00  0.00     0.147 A 
HETATM    8  N5  UNL     1      14.851  12.328  14.437  1.00  0.00    -0.080 NA
HETATM    9  C7  UNL     1      16.312  10.634  13.604  1.00  0.00     0.105 A 
ENDROOT
BRANCH   9  10
HETATM   10  N6  UNL     1      15.218   9.818  13.234  1.00  0.00    -0.323 N 
ATOM     11  H6  UNL     1      14.902   9.106  13.892  1.00  0.00     0.169 HD
BRANCH  10  12
HETATM   12  C8  UNL     1      14.540   9.936  11.997  1.00  0.00     0.193 C 
HETATM   13  N7  UNL     1      13.835   9.108  11.340  1.00  0.00    -0.346 N 
HETATM   14  C9  UNL     1      13.331   9.669  10.112  1.00  0.00     0.259 C 
ATOM     15  H7  UNL     1      13.648   8.153  11.646  1.00  0.00     0.163 HD
HETATM   16  N8  UNL     1      13.449  11.077  10.316  1.00  0.00    -0.119 NA
HETATM   17  N9  UNL     1      14.543  11.140  11.218  1.00  0.00    -0.274 N 
ATOM     18  H9  UNL     1      15.213  11.905  11.298  1.00  0.00     0.185 HD
ENDBRANCH  10  12
ENDBRANCH   9  10
BRANCH   1  19
HETATM   19  N1  UNL     1      17.787   9.005  12.802  1.00  0.00    -0.396 N 
ATOM     20  H12 UNL     1      17.462   8.146  13.244  1.00  0.00     0.156 HD
ATOM     21  H11 UNL     1      18.270   8.916  11.909  1.00  0.00     0.156 HD
ENDBRANCH   1  19
BRANCH   4  22
HETATM   22  N3  UNL     1      19.600  12.999  14.691  1.00  0.00    -0.373 N 
ATOM     23  H3  UNL     1      20.461  12.493  14.903  1.00  0.00     0.161 HD
BRANCH  22  24
HETATM   24  C4  UNL     1      19.647  14.417  14.798  1.00  0.00     0.147 C 
BRANCH  24  25
HETATM   25  C5  UNL     1      19.278  14.990  16.130  1.00  0.00     0.183 C 
BRANCH  25  26
HETATM   26  O1  UNL     1      17.874  15.103  16.139  1.00  0.00    -0.399 OA
ATOM     27  H1  UNL     1      17.638  15.442  16.995  1.00  0.00     0.209 HD
ENDBRANCH  25  26
ENDBRANCH  24  25
ENDBRANCH  22  24
ENDBRANCH   4  22
TORSDOF 7
ENDMDL
MODEL 5
REMARK VINA RESULT: -5.369953740      3.268      6.180
REMARK  7 active torsions:
REMARK  status: ('A' for Active; 'I' for Inactive)
REMARK    1  A    between atoms: N1_1  and  C1_4 
REMARK    2  A    between atoms: C3_7  and  N3_8 
REMARK    3  A    between atoms: N3_8  and  C4_10 
REMARK    4  A    between atoms: C4_10  and  C5_11 
REMARK    5  A    between atoms: C5_11  and  O1_12 
REMARK    6  A    between atoms: C7_18  and  N6_19 
REMARK    7  A    between atoms: N6_19  and  C8_21 
ROOT
HETATM    1  C1  UNL     1      14.698   9.794  13.089  1.00  0.00     0.084 A 
HETATM    2  C2  UNL     1      13.545  10.404  13.473  1.00  0.00     0.118 A 
HETATM    3  N2  UNL     1      12.387   9.580  13.670  1.00  0.00    -0.096 NA
HETATM    4  C3  UNL     1      13.413  11.780  13.689  1.00  0.00     0.129 A 
HETATM    5  N4  UNL     1      14.501  12.531  13.501  1.00  0.00    -0.328 N 
ATOM      6  H4  UNL     1      14.461  13.541  13.644  1.00  0.00     0.168 HD
HETATM    7  C6  UNL     1      15.661  11.939  13.118  1.00  0.00     0.147 A 
HETATM    8  N5  UNL     1      16.826  12.756  12.918  1.00  0.00    -0.080 NA
HETATM    9  C7  UNL     1      15.807  10.598  12.903  1.00  0.00     0.105 A 
ENDROOT
BRANCH   9  10
HETATM   10  N6  UNL     1      17.018   9.986  12.505  1.00  0.00    -0.323 N 
ATOM     11  H6  UNL     1      17.056   9.541  11.588  1.00  0.00     0.169 HD
BRANCH  10  12
HETATM   12  C8  UNL     1      18.180   9.958  13.312  1.00  0.00     0.193 C 
HETATM   13  N7  UNL     1      18.476   9.272  14.341  1.00  0.00    -0.346 N 
HETATM   14  C9  UNL     1      19.791   9.577  14.845  1.00  0.00     0.259 C 
ATOM     15  H7  UNL     1      17.852   8.584  14.762  1.00  0.00     0.163 HD
HETATM   16  N8  UNL     1      20.432  10.213  13.738  1.00  0.00    -0.119 NA
HETATM   17  N9  UNL     1      19.323  10.786  13.062  1.00  0.00    -0.274 N 
ATOM     18  H9  UNL     1      19.337  11.636  12.498  1.00  0.00     0.185 HD
ENDBRANCH  10  12
ENDBRANCH   9  10
BRANCH   1  19
HETATM   19  N1  UNL     1      14.761   8.507  12.904  1.00  0.00    -0.396 N 
ATOM     20  H12 UNL     1      13.951   7.910  13.070  1.00  0.00     0.156 HD
ATOM     21  H11 UNL     1      15.617   8.053  12.586  1.00  0.00     0.156 HD
ENDBRANCH   1  19
BRANCH   4  22
HETATM   22  N3  UNL     1      12.181  12.353  14.069  1.00  0.00    -0.373 N 
ATOM     23  H3  UNL     1      11.356  12.059  13.546  1.00  0.00     0.161 HD
BRANCH  22  24
HETATM   24  C4  UNL     1      11.976  13.300  15.111  1.00  0.00     0.147 C 
BRANCH  24  25
HETATM   25  C5  UNL     1      11.570  14.674  14.681  1.00  0.00     0.183 C 
BRANCH  25  26
HETATM   26  O1  UNL     1      12.057  14.841  13.370  1.00  0.00    -0.399 OA
ATOM     27  H1  UNL     1      12.828  15.391  13.439  1.00  0.00     0.209 HD
ENDBRANCH  25  26
ENDBRANCH  24  25
ENDBRANCH  22  24
ENDBRANCH   4  22
TORSDOF 7
ENDMDL
