MODEL 1
REMARK VINA RESULT: -6.624969180      0.000      0.000
REMARK  6 active torsions:
REMARK  status: ('A' for Active; 'I' for Inactive)
REMARK    1  A    between atoms: O1_2  and  C2_3 
REMARK    2  A    between atoms: C4_9  and  N3_10 
REMARK    3  A    between atoms: C5_15  and  N5_16 
REMARK    4  A    between atoms: N5_16  and  C6_18 
REMARK    5  A    between atoms: C7_21  and  N8_22 
REMARK    6  A    between atoms: N8_22  and  N9_23 
ROOT
HETATM    1  C2  UNL     1      14.936  17.222  18.838  1.00  0.00     0.187 A 
HETATM    2  N1  UNL     1      15.952  17.995  18.429  1.00  0.00    -0.277 N 
ATOM      3  H1  UNL     1      16.758  18.273  18.990  1.00  0.00     0.189 HD
HETATM    4  N2  UNL     1      15.725  18.334  17.172  1.00  0.00    -0.293 N 
ATOM      5  H2  UNL     1      16.344  18.923  16.614  1.00  0.00     0.187 HD
HETATM    6  C3  UNL     1      14.570  17.803  16.722  1.00  0.00     0.124 A 
HETATM    7  C4  UNL     1      13.892  17.849  15.513  1.00  0.00     0.145 A 
HETATM    8  N4  UNL     1      12.716  17.171  15.416  1.00  0.00    -0.175 N 
ATOM      9  H4  UNL     1      12.205  17.195  14.534  1.00  0.00     0.186 HD
HETATM   10  C5  UNL     1      12.206  16.470  16.442  1.00  0.00     0.681 A 
HETATM   11  N10 UNL     1      12.895  16.441  17.621  1.00  0.00    -0.185 N 
ATOM     12  H10 UNL     1      12.511  15.911  18.403  1.00  0.00     0.184 HD
HETATM   13  C8  UNL     1      14.060  17.088  17.786  1.00  0.00     0.133 A 
ENDROOT
BRANCH  10  14
HETATM   14  N5  UNL     1      10.985  15.793  16.289  1.00  0.00    -0.203 N 
ATOM     15  H5  UNL     1      10.221  16.065  16.907  1.00  0.00     0.179 HD
BRANCH  14  16
HETATM   16  C6  UNL     1      10.722  14.757  15.347  1.00  0.00     0.247 A 
HETATM   17  N6  UNL     1      10.791  15.063  13.954  1.00  0.00    -0.117 NA
HETATM   18  N7  UNL     1      11.862  14.213  13.649  1.00  0.00    -0.119 NA
HETATM   19  C7  UNL     1      11.917  13.876  15.060  1.00  0.00     0.247 A 
BRANCH  19  20
HETATM   20  N8  UNL     1      11.591  12.476  15.259  1.00  0.00    -0.122 NA
BRANCH  20  21
HETATM   21  N9  UNL     1      12.691  11.725  14.897  1.00  0.00    -0.347 N 
ATOM     22  H92 UNL     1      12.901  10.787  15.238  1.00  0.00     0.172 HD
ATOM     23  H91 UNL     1      13.245  12.273  14.239  1.00  0.00     0.172 HD
ENDBRANCH  20  21
ENDBRANCH  19  20
ENDBRANCH  14  16
ENDBRANCH  10  14
BRANCH   7  24
HETATM   24  N3  UNL     1      14.371  18.517  14.521  1.00  0.00    -0.383 N 
ATOM     25  H32 UNL     1      15.261  19.011  14.588  1.00  0.00     0.157 HD
ATOM     26  H31 UNL     1      13.863  18.566  13.637  1.00  0.00     0.157 HD
ENDBRANCH   7  24
BRANCH   1  27
HETATM   27  O1  UNL     1      14.842  16.683  20.108  1.00  0.00    -0.338 OA
HETATM   28  C1  UNL     1      14.081  17.260  21.120  1.00  0.00     0.211 C 
ENDBRANCH   1  27
TORSDOF 6
ENDMDL
MODEL 2
REMARK VINA RESULT: -6.411001981      5.776      7.414
REMARK  6 active torsions:
REMARK  status: ('A' for Active; 'I' for Inactive)
REMARK    1  A    between atoms: O1_2  and  C2_3 
REMARK    2  A    between atoms: C4_9  and  N3_10 
REMARK    3  A    between atoms: C5_15  and  N5_16 
REMARK    4  A    between atoms: N5_16  and  C6_18 
REMARK    5  A    between atoms: C7_21  and  N8_22 
REMARK    6  A    between atoms: N8_22  and  N9_23 
ROOT
HETATM    1  C2  UNL     1      18.690   9.730  13.118  1.00  0.00     0.187 A 
HETATM    2  N1  UNL     1      19.843  10.284  13.518  1.00  0.00    -0.277 N 
ATOM      3  H1  UNL     1      20.738   9.802  13.615  1.00  0.00     0.189 HD
HETATM    4  N2  UNL     1      19.617  11.562  13.766  1.00  0.00    -0.293 N 
ATOM      5  H2  UNL     1      20.327  12.221  14.087  1.00  0.00     0.187 HD
HETATM    6  C3  UNL     1      18.327  11.884  13.539  1.00  0.00     0.124 A 
HETATM    7  C4  UNL     1      17.592  13.056  13.642  1.00  0.00     0.145 A 
HETATM    8  N4  UNL     1      16.270  13.009  13.321  1.00  0.00    -0.175 N 
ATOM      9  H4  UNL     1      15.715  13.861  13.392  1.00  0.00     0.186 HD
HETATM   10  C5  UNL     1      15.671  11.878  12.914  1.00  0.00     0.681 A 
HETATM   11  N10 UNL     1      16.420  10.738  12.821  1.00  0.00    -0.185 N 
ATOM     12  H10 UNL     1      15.969   9.876  12.512  1.00  0.00     0.184 HD
HETATM   13  C8  UNL     1      17.728  10.714  13.123  1.00  0.00     0.133 A 
ENDROOT
BRANCH  10  14
HETATM   14  N5  UNL     1      14.303  11.883  12.600  1.00  0.00    -0.203 N 
ATOM     15  H5  UNL     1      14.042  12.185  11.661  1.00  0.00     0.179 HD
BRANCH  14  16
HETATM   16  C6  UNL     1      13.248  11.503  13.478  1.00  0.00     0.247 A 
HETATM   17  N6  UNL     1      13.578  10.865  14.712  1.00  0.00    -0.117 NA
HETATM   18  N7  UNL     1      13.081  11.866  15.556  1.00  0.00    -0.119 NA
HETATM   19  C7  UNL     1      12.757  12.627  14.363  1.00  0.00     0.247 A 
BRANCH  19  20
HETATM   20  N8  UNL     1      11.320  12.793  14.244  1.00  0.00    -0.122 NA
BRANCH  20  21
HETATM   21  N9  UNL     1      11.024  14.124  14.458  1.00  0.00    -0.347 N 
ATOM     22  H92 UNL     1      11.145  14.618  15.341  1.00  0.00     0.172 HD
ATOM     23  H91 UNL     1      10.670  14.513  13.584  1.00  0.00     0.172 HD
ENDBRANCH  20  21
ENDBRANCH  19  20
ENDBRANCH  14  16
ENDBRANCH  10  14
BRANCH   7  24
HETATM   24  N3  UNL     1      18.154  14.147  14.031  1.00  0.00    -0.383 N 
ATOM     25  H32 UNL     1      18.434  14.289  15.001  1.00  0.00     0.157 HD
ATOM     26  H31 UNL     1      18.333  14.902  13.368  1.00  0.00     0.157 HD
ENDBRANCH   7  24
BRANCH   1  27
HETATM   27  O1  UNL     1      18.554   8.399  12.772  1.00  0.00    -0.338 OA
HETATM   28  C1  UNL     1      17.938   7.463  13.597  1.00  0.00     0.211 C 
ENDBRANCH   1  27
TORSDOF 6
ENDMDL
MODEL 3
REMARK VINA RESULT: -6.311529272      7.291      8.206
REMARK  6 active torsions:
REMARK  status: ('A' for Active; 'I' for Inactive)
REMARK    1  A    between atoms: O1_2  and  C2_3 
REMARK    2  A    between atoms: C4_9  and  N3_10 
REMARK    3  A    between atoms: C5_15  and  N5_16 
REMARK    4  A    between atoms: N5_16  and  C6_18 
REMARK    5  A    between atoms: C7_21  and  N8_22 
REMARK    6  A    between atoms: N8_22  and  N9_23 
ROOT
HETATM    1  C2  UNL     1      19.366  10.067  14.016  1.00  0.00     0.187 A 
HETATM    2  N1  UNL     1      19.982  11.233  14.254  1.00  0.00    -0.277 N 
ATOM      3  H1  UNL     1      20.871  11.355  14.740  1.00  0.00     0.189 HD
HETATM    4  N2  UNL     1      19.234  12.198  13.748  1.00  0.00    -0.293 N 
ATOM      5  H2  UNL     1      19.469  13.191  13.788  1.00  0.00     0.187 HD
HETATM    6  C3  UNL     1      18.120  11.704  13.170  1.00  0.00     0.124 A 
HETATM    7  C4  UNL     1      17.040  12.272  12.513  1.00  0.00     0.145 A 
HETATM    8  N4  UNL     1      16.068  11.440  12.046  1.00  0.00    -0.175 N 
ATOM      9  H4  UNL     1      15.266  11.842  11.561  1.00  0.00     0.186 HD
HETATM   10  C5  UNL     1      16.131  10.107  12.201  1.00  0.00     0.681 A 
HETATM   11  N10 UNL     1      17.208   9.574  12.852  1.00  0.00    -0.185 N 
ATOM     12  H10 UNL     1      17.259   8.563  12.973  1.00  0.00     0.184 HD
HETATM   13  C8  UNL     1      18.200  10.337  13.338  1.00  0.00     0.133 A 
ENDROOT
BRANCH  10  14
HETATM   14  N5  UNL     1      15.099   9.295  11.705  1.00  0.00    -0.203 N 
ATOM     15  H5  UNL     1      15.310   8.306  11.568  1.00  0.00     0.179 HD
BRANCH  14  16
HETATM   16  C6  UNL     1      13.784   9.731  11.375  1.00  0.00     0.247 A 
HETATM   17  N6  UNL     1      13.621  10.694  10.334  1.00  0.00    -0.117 NA
HETATM   18  N7  UNL     1      12.894   9.875   9.461  1.00  0.00    -0.119 NA
HETATM   19  C7  UNL     1      13.053   8.805  10.429  1.00  0.00     0.247 A 
BRANCH  19  20
HETATM   20  N8  UNL     1      11.764   8.418  10.971  1.00  0.00    -0.122 NA
BRANCH  20  21
HETATM   21  N9  UNL     1      11.162   7.561  10.073  1.00  0.00    -0.347 N 
ATOM     22  H92 UNL     1      10.981   7.770   9.092  1.00  0.00     0.172 HD
ATOM     23  H91 UNL     1      10.937   6.696  10.564  1.00  0.00     0.172 HD
ENDBRANCH  20  21
ENDBRANCH  19  20
ENDBRANCH  14  16
ENDBRANCH  10  14
BRANCH   7  24
HETATM   24  N3  UNL     1      16.968  13.548  12.356  1.00  0.00    -0.383 N 
ATOM     25  H32 UNL     1      17.510  14.190  12.935  1.00  0.00     0.157 HD
ATOM     26  H31 UNL     1      16.359  13.949  11.642  1.00  0.00     0.157 HD
ENDBRANCH   7  24
BRANCH   1  27
HETATM   27  O1  UNL     1      19.867   8.839  14.408  1.00  0.00    -0.338 OA
HETATM   28  C1  UNL     1      19.502   8.219  15.599  1.00  0.00     0.211 C 
ENDBRANCH   1  27
TORSDOF 6
ENDMDL
MODEL 4
REMARK VINA RESULT: -6.273010992      4.891      6.839
REMARK  6 active torsions:
REMARK  status: ('A' for Active; 'I' for Inactive)
REMARK    1  A    between atoms: O1_2  and  C2_3 
REMARK    2  A    between atoms: C4_9  and  N3_10 
REMARK    3  A    between atoms: C5_15  and  N5_16 
REMARK    4  A    between atoms: N5_16  and  C6_18 
REMARK    5  A    between atoms: C7_21  and  N8_22 
REMARK    6  A    between atoms: N8_22  and  N9_23 
ROOT
HETATM    1  C2  UNL     1      18.552  12.627  14.001  1.00  0.00     0.187 A 
HETATM    2  N1  UNL     1      19.575  11.775  13.846  1.00  0.00    -0.277 N 
ATOM      3  H1  UNL     1      20.550  11.959  14.081  1.00  0.00     0.189 HD
HETATM    4  N2  UNL     1      19.096  10.654  13.333  1.00  0.00    -0.293 N 
ATOM      5  H2  UNL     1      19.662   9.834  13.113  1.00  0.00     0.187 HD
HETATM    6  C3  UNL     1      17.764  10.734  13.139  1.00  0.00     0.124 A 
HETATM    7  C4  UNL     1      16.807   9.862  12.642  1.00  0.00     0.145 A 
HETATM    8  N4  UNL     1      15.517  10.294  12.590  1.00  0.00    -0.175 N 
ATOM      9  H4  UNL     1      14.801   9.665  12.227  1.00  0.00     0.186 HD
HETATM   10  C5  UNL     1      15.155  11.520  13.002  1.00  0.00     0.681 A 
HETATM   11  N10 UNL     1      16.119  12.358  13.488  1.00  0.00    -0.185 N 
ATOM     12  H10 UNL     1      15.849  13.291  13.801  1.00  0.00     0.184 HD
HETATM   13  C8  UNL     1      17.410  11.996  13.566  1.00  0.00     0.133 A 
ENDROOT
BRANCH  10  14
HETATM   14  N5  UNL     1      13.811  11.917  12.922  1.00  0.00    -0.203 N 
ATOM     15  H5  UNL     1      13.494  12.309  12.035  1.00  0.00     0.179 HD
BRANCH  14  16
HETATM   16  C6  UNL     1      12.853  11.821  13.971  1.00  0.00     0.247 A 
HETATM   17  N6  UNL     1      13.309  11.536  15.294  1.00  0.00    -0.117 NA
HETATM   18  N7  UNL     1      12.901  12.743  15.876  1.00  0.00    -0.119 NA
HETATM   19  C7  UNL     1      12.455  13.157  14.558  1.00  0.00     0.247 A 
BRANCH  19  20
HETATM   20  N8  UNL     1      11.013  13.324  14.542  1.00  0.00    -0.122 NA
BRANCH  20  21
HETATM   21  N9  UNL     1      10.737  14.671  14.661  1.00  0.00    -0.347 N 
ATOM     22  H92 UNL     1      11.335  15.354  15.125  1.00  0.00     0.172 HD
ATOM     23  H91 UNL     1       9.842  14.852  14.208  1.00  0.00     0.172 HD
ENDBRANCH  20  21
ENDBRANCH  19  20
ENDBRANCH  14  16
ENDBRANCH  10  14
BRANCH   7  24
HETATM   24  N3  UNL     1      17.141   8.683  12.244  1.00  0.00    -0.383 N 
ATOM     25  H32 UNL     1      17.878   8.540  11.554  1.00  0.00     0.157 HD
ATOM     26  H31 UNL     1      16.670   7.858  12.617  1.00  0.00     0.157 HD
ENDBRANCH   7  24
BRANCH   1  27
HETATM   27  O1  UNL     1      18.685  13.904  14.515  1.00  0.00    -0.338 OA
HETATM   28  C1  UNL     1      18.375  14.223  15.833  1.00  0.00     0.211 C 
ENDBRANCH   1  27
TORSDOF 6
ENDMDL
MODEL 5
REMARK VINA RESULT: -6.170954755      4.779      6.067
REMARK  6 active torsions:
REMARK  status: ('A' for Active; 'I' for Inactive)
REMARK    1  A    between atoms: O1_2  and  C2_3 
REMARK    2  A    between atoms: C4_9  and  N3_10 
REMARK    3  A    between atoms: C5_15  and  N5_16 
REMARK    4  A    between atoms: N5_16  and  C6_18 
REMARK    5  A    between atoms: C7_21  and  N8_22 
REMARK    6  A    between atoms: N8_22  and  N9_23 
ROOT
HETATM    1  C2  UNL     1      18.353  14.007  15.339  1.00  0.00     0.187 A 
HETATM    2  N1  UNL     1      19.635  13.619  15.357  1.00  0.00    -0.277 N 
ATOM      3  H1  UNL     1      20.387  14.054  15.894  1.00  0.00     0.189 HD
HETATM    4  N2  UNL     1      19.756  12.574  14.557  1.00  0.00    -0.293 N 
ATOM      5  H2  UNL     1      20.631  12.078  14.385  1.00  0.00     0.187 HD
HETATM    6  C3  UNL     1      18.573  12.247  13.997  1.00  0.00     0.124 A 
HETATM    7  C4  UNL     1      18.164  11.262  13.111  1.00  0.00     0.145 A 
HETATM    8  N4  UNL     1      16.851  11.232  12.753  1.00  0.00    -0.175 N 
ATOM      9  H4  UNL     1      16.534  10.515  12.101  1.00  0.00     0.186 HD
HETATM   10  C5  UNL     1      15.959  12.116  13.229  1.00  0.00     0.681 A 
HETATM   11  N10 UNL     1      16.389  13.076  14.101  1.00  0.00    -0.185 N 
ATOM     12  H10 UNL     1      15.715  13.749  14.465  1.00  0.00     0.184 HD
HETATM   13  C8  UNL     1      17.670  13.162  14.495  1.00  0.00     0.133 A 
ENDROOT
BRANCH  10  14
HETATM   14  N5  UNL     1      14.616  12.044  12.823  1.00  0.00    -0.203 N 
ATOM     15  H5  UNL     1      14.401  12.343  11.873  1.00  0.00     0.179 HD
BRANCH  14  16
HETATM   16  C6  UNL     1      13.530  11.589  13.625  1.00  0.00     0.247 A 
HETATM   17  N6  UNL     1      13.813  10.985  14.887  1.00  0.00    -0.117 NA
HETATM   18  N7  UNL     1      13.180  11.950  15.680  1.00  0.00    -0.119 NA
HETATM   19  C7  UNL     1      12.890  12.677  14.457  1.00  0.00     0.247 A 
BRANCH  19  20
HETATM   20  N8  UNL     1      11.458  12.732  14.230  1.00  0.00    -0.122 NA
BRANCH  20  21
HETATM   21  N9  UNL     1      11.042  14.031  14.436  1.00  0.00    -0.347 N 
ATOM     22  H92 UNL     1      11.519  14.863  14.090  1.00  0.00     0.172 HD
ATOM     23  H91 UNL     1      10.184  14.005  14.987  1.00  0.00     0.172 HD
ENDBRANCH  20  21
ENDBRANCH  19  20
ENDBRANCH  14  16
ENDBRANCH  10  14
BRANCH   7  24
HETATM   24  N3  UNL     1      19.010  10.409  12.647  1.00  0.00    -0.383 N 
ATOM     25  H32 UNL     1      19.239   9.554  13.153  1.00  0.00     0.157 HD
ATOM     26  H31 UNL     1      19.473  10.573  11.752  1.00  0.00     0.157 HD
ENDBRANCH   7  24
BRANCH   1  27
HETATM   27  O1  UNL     1      17.862  15.077  16.065  1.00  0.00    -0.338 OA
HETATM   28  C1  UNL     1      18.532  15.622  17.156  1.00  0.00     0.211 C 
ENDBRANCH   1  27
TORSDOF 6
ENDMDL
