MODEL 1
REMARK VINA RESULT: -6.243612852      0.000      0.000
REMARK  4 active torsions:
REMARK  status: ('A' for Active; 'I' for Inactive)
REMARK    1  A    between atoms: C5_14  and  N6_15 
REMARK    2  A    between atoms: N6_15  and  C6_17 
REMARK    3  A    between atoms: C6_17  and  O2_18 
REMARK    4  A    between atoms: C6_17  and  N7_20 
REMARK       I    between atoms: N7_20  and  C7_22 
REMARK       I    between atoms: C7_22  and  N8_23 
REMARK       I    between atoms: C7_22  and  N9_27 
ROOT
HETATM    1  N6  UNL     1      14.851  17.961  18.052  1.00  0.00    -0.343 N 
ATOM      2  H6  UNL     1      14.487  18.647  18.712  1.00  0.00     0.164 HD
ENDROOT
BRANCH   1   3
HETATM    3  C5  UNL     1      13.934  17.350  17.154  1.00  0.00     0.103 A 
HETATM    4  C1  UNL     1      13.089  16.356  17.594  1.00  0.00     0.148 A 
HETATM    5  N1  UNL     1      13.149  15.961  18.959  1.00  0.00    -0.080 NA
HETATM    6  N2  UNL     1      12.199  15.744  16.773  1.00  0.00    -0.308 N 
HETATM    7  C2  UNL     1      12.114  16.093  15.483  1.00  0.00     0.277 A 
ATOM      8  H2  UNL     1      11.589  15.014  17.141  1.00  0.00     0.170 HD
HETATM    9  O1  UNL     1      11.293  15.531  14.712  1.00  0.00    -0.266 OA
HETATM   10  C3  UNL     1      12.948  17.089  14.999  1.00  0.00     0.144 A 
HETATM   11  N3  UNL     1      13.103  17.657  13.773  1.00  0.00    -0.277 N 
HETATM   12  C4  UNL     1      13.857  17.723  15.816  1.00  0.00     0.109 A 
HETATM   13  N4  UNL     1      14.058  18.578  13.871  1.00  0.00    -0.021 NA
ATOM     14  H3  UNL     1      12.581  17.420  12.929  1.00  0.00     0.184 HD
HETATM   15  N5  UNL     1      14.525  18.628  15.109  1.00  0.00    -0.280 N 
ATOM     16  H5  UNL     1      15.259  19.245  15.454  1.00  0.00     0.184 HD
ENDBRANCH   1   3
BRANCH   1  17
HETATM   17  C6  UNL     1      16.270  17.671  18.089  1.00  0.00     0.325 C 
BRANCH  17  18
HETATM   18  O2  UNL     1      16.488  16.364  18.455  1.00  0.00    -0.360 OA
ATOM     19  H2  UNL     1      16.692  15.833  17.695  1.00  0.00     0.214 HD
ENDBRANCH  17  18
BRANCH  17  20
HETATM   20  N7  UNL     1      16.929  18.650  18.859  1.00  0.00    -0.332 N 
HETATM   21  C7  UNL     1      18.226  19.055  18.477  1.00  0.00     0.479 C 
HETATM   22  N8  UNL     1      18.319  19.622  17.155  1.00  0.00    -0.033 N 
HETATM   23  N9  UNL     1      19.214  18.041  18.613  1.00  0.00    -0.033 N 
ATOM     24  H83 UNL     1      17.934  18.977  16.467  1.00  0.00     0.278 HD
ATOM     25  H82 UNL     1      17.664  20.398  17.057  1.00  0.00     0.278 HD
ATOM     26  H81 UNL     1      19.256  19.915  16.879  1.00  0.00     0.278 HD
ATOM     27  H93 UNL     1      19.219  17.673  19.565  1.00  0.00     0.278 HD
ATOM     28  H92 UNL     1      18.937  17.201  18.105  1.00  0.00     0.278 HD
ATOM     29  H91 UNL     1      20.150  18.333  18.337  1.00  0.00     0.278 HD
ATOM     30  H7  UNL     1      16.478  19.058  19.678  1.00  0.00     0.161 HD
ENDBRANCH  17  20
ENDBRANCH   1  17
TORSDOF 4
ENDMDL
MODEL 2
REMARK VINA RESULT: -6.014489733      7.994      8.622
REMARK  4 active torsions:
REMARK  status: ('A' for Active; 'I' for Inactive)
REMARK    1  A    between atoms: C5_14  and  N6_15 
REMARK    2  A    between atoms: N6_15  and  C6_17 
REMARK    3  A    between atoms: C6_17  and  O2_18 
REMARK    4  A    between atoms: C6_17  and  N7_20 
REMARK       I    between atoms: N7_20  and  C7_22 
REMARK       I    between atoms: C7_22  and  N8_23 
REMARK       I    between atoms: C7_22  and  N9_27 
ROOT
HETATM    1  N6  UNL     1      18.359  11.595  12.751  1.00  0.00    -0.343 N 
ATOM      2  H6  UNL     1      18.698  12.218  12.018  1.00  0.00     0.164 HD
ENDROOT
BRANCH   1   3
HETATM    3  C5  UNL     1      16.977  11.263  12.756  1.00  0.00     0.103 A 
HETATM    4  C1  UNL     1      16.036  12.211  13.088  1.00  0.00     0.148 A 
HETATM    5  N1  UNL     1      16.474  13.523  13.420  1.00  0.00    -0.080 NA
HETATM    6  N2  UNL     1      14.707  11.939  13.107  1.00  0.00    -0.308 N 
HETATM    7  C2  UNL     1      14.260  10.715  12.798  1.00  0.00     0.277 A 
ATOM      8  H2  UNL     1      14.043  12.671  13.358  1.00  0.00     0.170 HD
HETATM    9  O1  UNL     1      13.030  10.450  12.813  1.00  0.00    -0.266 OA
HETATM   10  C3  UNL     1      15.176   9.730  12.458  1.00  0.00     0.144 A 
HETATM   11  N3  UNL     1      15.046   8.423  12.102  1.00  0.00    -0.277 N 
HETATM   12  C4  UNL     1      16.529   9.987  12.432  1.00  0.00     0.109 A 
HETATM   13  N4  UNL     1      16.266   7.942  11.880  1.00  0.00    -0.021 NA
ATOM     14  H3  UNL     1      14.171   7.906  12.020  1.00  0.00     0.184 HD
HETATM   15  N5  UNL     1      17.176   8.883  12.077  1.00  0.00    -0.280 N 
ATOM     16  H5  UNL     1      18.186   8.779  11.976  1.00  0.00     0.184 HD
ENDBRANCH   1   3
BRANCH   1  17
HETATM   17  C6  UNL     1      19.317  11.107  13.721  1.00  0.00     0.325 C 
BRANCH  17  18
HETATM   18  O2  UNL     1      19.921   9.957  13.269  1.00  0.00    -0.360 OA
ATOM     19  H2  UNL     1      19.525   9.668  12.456  1.00  0.00     0.214 HD
ENDBRANCH  17  18
BRANCH  17  20
HETATM   20  N7  UNL     1      18.705  11.030  14.989  1.00  0.00    -0.332 N 
HETATM   21  C7  UNL     1      18.966   9.906  15.801  1.00  0.00     0.479 C 
HETATM   22  N8  UNL     1      20.354   9.714  16.143  1.00  0.00    -0.033 N 
HETATM   23  N9  UNL     1      18.445   8.686  15.288  1.00  0.00    -0.033 N 
ATOM     24  H83 UNL     1      20.923   9.678  15.298  1.00  0.00     0.278 HD
ATOM     25  H82 UNL     1      20.731  10.557  16.576  1.00  0.00     0.278 HD
ATOM     26  H81 UNL     1      20.542   8.902  16.730  1.00  0.00     0.278 HD
ATOM     27  H93 UNL     1      17.445   8.773  15.107  1.00  0.00     0.278 HD
ATOM     28  H92 UNL     1      18.779   8.526  14.338  1.00  0.00     0.278 HD
ATOM     29  H91 UNL     1      18.634   7.874  15.875  1.00  0.00     0.278 HD
ATOM     30  H7  UNL     1      18.085  11.772  15.312  1.00  0.00     0.161 HD
ENDBRANCH  17  20
ENDBRANCH   1  17
TORSDOF 4
ENDMDL
MODEL 3
REMARK VINA RESULT: -5.956998207      8.526     10.509
REMARK  4 active torsions:
REMARK  status: ('A' for Active; 'I' for Inactive)
REMARK    1  A    between atoms: C5_14  and  N6_15 
REMARK    2  A    between atoms: N6_15  and  C6_17 
REMARK    3  A    between atoms: C6_17  and  O2_18 
REMARK    4  A    between atoms: C6_17  and  N7_20 
REMARK       I    between atoms: N7_20  and  C7_22 
REMARK       I    between atoms: C7_22  and  N8_23 
REMARK       I    between atoms: C7_22  and  N9_27 
ROOT
HETATM    1  N6  UNL     1      14.771  10.252  12.355  1.00  0.00    -0.343 N 
ATOM      2  H6  UNL     1      14.148  10.431  13.142  1.00  0.00     0.164 HD
ENDROOT
BRANCH   1   3
HETATM    3  C5  UNL     1      16.169  10.212  12.609  1.00  0.00     0.103 A 
HETATM    4  C1  UNL     1      16.879   9.051  12.404  1.00  0.00     0.148 A 
HETATM    5  N1  UNL     1      16.189   7.901  11.929  1.00  0.00    -0.080 NA
HETATM    6  N2  UNL     1      18.214   8.966  12.634  1.00  0.00    -0.308 N 
HETATM    7  C2  UNL     1      18.895  10.029  13.079  1.00  0.00     0.277 A 
ATOM      8  H2  UNL     1      18.702   8.086  12.466  1.00  0.00     0.170 HD
HETATM    9  O1  UNL     1      20.132   9.962  13.297  1.00  0.00    -0.266 OA
HETATM   10  C3  UNL     1      18.217  11.218  13.300  1.00  0.00     0.144 A 
HETATM   11  N3  UNL     1      18.610  12.445  13.737  1.00  0.00    -0.277 N 
HETATM   12  C4  UNL     1      16.863  11.325  13.071  1.00  0.00     0.109 A 
HETATM   13  N4  UNL     1      17.535  13.229  13.762  1.00  0.00    -0.021 NA
ATOM     14  H3  UNL     1      19.558  12.716  13.999  1.00  0.00     0.184 HD
HETATM   15  N5  UNL     1      16.467  12.560  13.360  1.00  0.00    -0.280 N 
ATOM     16  H5  UNL     1      15.517  12.924  13.285  1.00  0.00     0.184 HD
ENDBRANCH   1   3
BRANCH   1  17
HETATM   17  C6  UNL     1      14.175  10.054  11.050  1.00  0.00     0.325 C 
BRANCH  17  18
HETATM   18  O2  UNL     1      13.754  11.252  10.523  1.00  0.00    -0.360 OA
ATOM     19  H2  UNL     1      13.183  11.108   9.778  1.00  0.00     0.214 HD
ENDBRANCH  17  18
BRANCH  17  20
HETATM   20  N7  UNL     1      13.204   9.034  11.126  1.00  0.00    -0.332 N 
HETATM   21  C7  UNL     1      12.925   8.275   9.971  1.00  0.00     0.479 C 
HETATM   22  N8  UNL     1      14.052   7.556   9.431  1.00  0.00    -0.033 N 
HETATM   23  N9  UNL     1      12.308   9.016   8.925  1.00  0.00    -0.033 N 
ATOM     24  H83 UNL     1      14.826   8.195   9.254  1.00  0.00     0.278 HD
ATOM     25  H82 UNL     1      14.470   6.964  10.149  1.00  0.00     0.278 HD
ATOM     26  H81 UNL     1      13.850   7.007   8.595  1.00  0.00     0.278 HD
ATOM     27  H93 UNL     1      11.463   9.476   9.264  1.00  0.00     0.278 HD
ATOM     28  H92 UNL     1      12.868   9.835   8.688  1.00  0.00     0.278 HD
ATOM     29  H91 UNL     1      12.107   8.467   8.090  1.00  0.00     0.278 HD
ATOM     30  H7  UNL     1      12.713   8.850  12.001  1.00  0.00     0.161 HD
ENDBRANCH  17  20
ENDBRANCH   1  17
TORSDOF 4
ENDMDL
MODEL 4
REMARK VINA RESULT: -5.935499521      7.940      8.678
REMARK  4 active torsions:
REMARK  status: ('A' for Active; 'I' for Inactive)
REMARK    1  A    between atoms: C5_14  and  N6_15 
REMARK    2  A    between atoms: N6_15  and  C6_17 
REMARK    3  A    between atoms: C6_17  and  O2_18 
REMARK    4  A    between atoms: C6_17  and  N7_20 
REMARK       I    between atoms: N7_20  and  C7_22 
REMARK       I    between atoms: C7_22  and  N8_23 
REMARK       I    between atoms: C7_22  and  N9_27 
ROOT
HETATM    1  N6  UNL     1      16.445   8.796  14.396  1.00  0.00    -0.343 N 
ATOM      2  H6  UNL     1      16.038   8.090  15.009  1.00  0.00     0.164 HD
ENDROOT
BRANCH   1   3
HETATM    3  C5  UNL     1      15.642   9.300  13.337  1.00  0.00     0.103 A 
HETATM    4  C1  UNL     1      15.499   8.583  12.171  1.00  0.00     0.148 A 
HETATM    5  N1  UNL     1      16.164   7.331  12.052  1.00  0.00    -0.080 NA
HETATM    6  N2  UNL     1      14.743   9.025  11.135  1.00  0.00    -0.308 N 
HETATM    7  C2  UNL     1      14.102  10.198  11.214  1.00  0.00     0.277 A 
ATOM      8  H2  UNL     1      14.663   8.461  10.289  1.00  0.00     0.170 HD
HETATM    9  O1  UNL     1      13.400  10.619  10.259  1.00  0.00    -0.266 OA
HETATM   10  C3  UNL     1      14.221  10.953  12.372  1.00  0.00     0.144 A 
HETATM   11  N3  UNL     1      13.708  12.153  12.755  1.00  0.00    -0.277 N 
HETATM   12  C4  UNL     1      14.981  10.520  13.435  1.00  0.00     0.109 A 
HETATM   13  N4  UNL     1      14.150  12.408  13.983  1.00  0.00    -0.021 NA
ATOM     14  H3  UNL     1      13.095  12.750  12.200  1.00  0.00     0.184 HD
HETATM   15  N5  UNL     1      14.925  11.423  14.408  1.00  0.00    -0.280 N 
ATOM     16  H5  UNL     1      15.392  11.367  15.313  1.00  0.00     0.184 HD
ENDBRANCH   1   3
BRANCH   1  17
HETATM   17  C6  UNL     1      17.805   9.220  14.660  1.00  0.00     0.325 C 
BRANCH  17  18
HETATM   18  O2  UNL     1      17.816  10.409  15.350  1.00  0.00    -0.360 OA
ATOM     19  H2  UNL     1      16.939  10.770  15.409  1.00  0.00     0.214 HD
ENDBRANCH  17  18
BRANCH  17  20
HETATM   20  N7  UNL     1      18.547   9.190  13.462  1.00  0.00    -0.332 N 
HETATM   21  C7  UNL     1      19.297  10.328  13.100  1.00  0.00     0.479 C 
HETATM   22  N8  UNL     1      20.308  10.718  14.051  1.00  0.00    -0.033 N 
HETATM   23  N9  UNL     1      18.505  11.466  12.778  1.00  0.00    -0.033 N 
ATOM     24  H83 UNL     1      19.892  10.848  14.973  1.00  0.00     0.278 HD
ATOM     25  H82 UNL     1      20.930   9.933  14.246  1.00  0.00     0.278 HD
ATOM     26  H81 UNL     1      20.850  11.541  13.789  1.00  0.00     0.278 HD
ATOM     27  H93 UNL     1      17.829  11.236  12.050  1.00  0.00     0.278 HD
ATOM     28  H92 UNL     1      17.868  11.686  13.543  1.00  0.00     0.278 HD
ATOM     29  H91 UNL     1      19.047  12.289  12.516  1.00  0.00     0.278 HD
ATOM     30  H7  UNL     1      18.542   8.360  12.868  1.00  0.00     0.161 HD
ENDBRANCH  17  20
ENDBRANCH   1  17
TORSDOF 4
ENDMDL
MODEL 5
REMARK VINA RESULT: -5.875470920      7.359      7.980
REMARK  4 active torsions:
REMARK  status: ('A' for Active; 'I' for Inactive)
REMARK    1  A    between atoms: C5_14  and  N6_15 
REMARK    2  A    between atoms: N6_15  and  C6_17 
REMARK    3  A    between atoms: C6_17  and  O2_18 
REMARK    4  A    between atoms: C6_17  and  N7_20 
REMARK       I    between atoms: N7_20  and  C7_22 
REMARK       I    between atoms: C7_22  and  N8_23 
REMARK       I    between atoms: C7_22  and  N9_27 
ROOT
HETATM    1  N6  UNL     1      16.548  10.476  14.870  1.00  0.00    -0.343 N 
ATOM      2  H6  UNL     1      16.092  10.138  15.716  1.00  0.00     0.164 HD
ENDROOT
BRANCH   1   3
HETATM    3  C5  UNL     1      15.776  10.534  13.677  1.00  0.00     0.103 A 
HETATM    4  C1  UNL     1      15.066  11.671  13.365  1.00  0.00     0.148 A 
HETATM    5  N1  UNL     1      15.124  12.780  14.253  1.00  0.00    -0.080 NA
HETATM    6  N2  UNL     1      14.315  11.772  12.239  1.00  0.00    -0.308 N 
HETATM    7  C2  UNL     1      14.239  10.748  11.380  1.00  0.00     0.277 A 
ATOM      8  H2  UNL     1      13.805  12.634  12.045  1.00  0.00     0.170 HD
HETATM    9  O1  UNL     1      13.545  10.829  10.334  1.00  0.00    -0.266 OA
HETATM   10  C3  UNL     1      14.940   9.583  11.658  1.00  0.00     0.144 A 
HETATM   11  N3  UNL     1      15.067   8.397  11.004  1.00  0.00    -0.277 N 
HETATM   12  C4  UNL     1      15.708   9.462  12.794  1.00  0.00     0.109 A 
HETATM   13  N4  UNL     1      15.871   7.622  11.726  1.00  0.00    -0.021 NA
ATOM     14  H3  UNL     1      14.626   8.147  10.119  1.00  0.00     0.184 HD
HETATM   15  N5  UNL     1      16.267   8.257  12.817  1.00  0.00    -0.280 N 
ATOM     16  H5  UNL     1      16.886   7.891  13.540  1.00  0.00     0.184 HD
ENDBRANCH   1   3
BRANCH   1  17
HETATM   17  C6  UNL     1      17.940  10.865  14.959  1.00  0.00     0.325 C 
BRANCH  17  18
HETATM   18  O2  UNL     1      18.253  11.256  16.239  1.00  0.00    -0.360 OA
ATOM     19  H2  UNL     1      17.720  10.788  16.872  1.00  0.00     0.214 HD
ENDBRANCH  17  18
BRANCH  17  20
HETATM   20  N7  UNL     1      18.235  11.791  13.938  1.00  0.00    -0.332 N 
HETATM   21  C7  UNL     1      18.836  13.019  14.288  1.00  0.00     0.479 C 
HETATM   22  N8  UNL     1      20.113  12.904  14.946  1.00  0.00    -0.033 N 
HETATM   23  N9  UNL     1      17.999  13.876  15.054  1.00  0.00    -0.033 N 
ATOM     24  H83 UNL     1      20.034  12.304  15.766  1.00  0.00     0.278 HD
ATOM     25  H82 UNL     1      20.754  12.347  14.379  1.00  0.00     0.278 HD
ATOM     26  H81 UNL     1      20.547  13.791  15.199  1.00  0.00     0.278 HD
ATOM     27  H93 UNL     1      17.113  14.034  14.573  1.00  0.00     0.278 HD
ATOM     28  H92 UNL     1      17.659  13.394  15.887  1.00  0.00     0.278 HD
ATOM     29  H91 UNL     1      18.432  14.763  15.307  1.00  0.00     0.278 HD
ATOM     30  H7  UNL     1      18.019  11.578  12.964  1.00  0.00     0.161 HD
ENDBRANCH  17  20
ENDBRANCH   1  17
TORSDOF 4
ENDMDL
