MODEL 1
REMARK VINA RESULT: -5.294821974      0.000      0.000
REMARK  8 active torsions:
REMARK  status: ('A' for Active; 'I' for Inactive)
REMARK    1  A    between atoms: N3_6  and  N4_8 
REMARK    2  A    between atoms: N4_8  and  N5_10 
REMARK       I    between atoms: N5_10  and  C3_12 
REMARK       I    between atoms: C3_12  and  N7_16 
REMARK    3  A    between atoms: N7_16  and  N8_18 
REMARK    4  A    between atoms: C4_21  and  N9_22 
REMARK    5  A    between atoms: N9_22  and  O1_24 
REMARK    6  A    between atoms: C5_26  and  C6_27 
REMARK    7  A    between atoms: C6_27  and  N10_28 
REMARK    8  A    between atoms: C6_27  and  O2_32 
ROOT
HETATM    1  C1  UNL     1      18.809   9.797  13.315  1.00  0.00     0.178 C 
HETATM    2  N1  UNL     1      17.481   9.774  12.730  1.00  0.00    -0.292 N 
HETATM    3  N2  UNL     1      16.841   8.714  12.317  1.00  0.00    -0.280 N 
ATOM      4  H2  UNL     1      17.208   7.763  12.359  1.00  0.00     0.189 HD
HETATM    5  C2  UNL     1      15.636   9.046  11.831  1.00  0.00     0.167 A 
HETATM    6  N3  UNL     1      14.719   8.307  11.337  1.00  0.00    -0.267 N 
ATOM      7  H3  UNL     1      14.896   7.304  11.289  1.00  0.00     0.190 HD
HETATM    8  C4  UNL     1      15.547  10.415  11.964  1.00  0.00     0.129 A 
HETATM    9  C5  UNL     1      16.724  10.847  12.532  1.00  0.00     0.116 A 
ENDROOT
BRANCH   6  10
HETATM   10  N4  UNL     1      13.505   8.768  10.863  1.00  0.00    -0.227 N 
ATOM     11  H4  UNL     1      13.374   9.776  10.777  1.00  0.00     0.209 HD
BRANCH  10  12
HETATM   12  N5  UNL     1      12.448   7.933  10.496  1.00  0.00    -0.117 N 
HETATM   13  C3  UNL     1      11.996   7.826   9.155  1.00  0.00     0.705 C 
HETATM   14  N6  UNL     1      12.110   8.815   8.346  1.00  0.00    -0.232 N 
HETATM   15  N7  UNL     1      11.411   6.611   8.702  1.00  0.00    -0.138 N 
ATOM     16  H62 UNL     1      12.529   9.687   8.672  1.00  0.00     0.174 HD
ATOM     17  H61 UNL     1      11.785   8.738   7.383  1.00  0.00     0.174 HD
ATOM     18  H7  UNL     1      10.467   6.642   8.316  1.00  0.00     0.205 HD
ATOM     19  H5  UNL     1      11.985   7.380  11.217  1.00  0.00     0.207 HD
BRANCH  15  20
HETATM   20  N8  UNL     1      12.065   5.376   8.758  1.00  0.00    -0.331 N 
ATOM     21  H82 UNL     1      13.082   5.388   8.834  1.00  0.00     0.177 HD
ATOM     22  H81 UNL     1      11.576   4.481   8.726  1.00  0.00     0.177 HD
ENDBRANCH  15  20
ENDBRANCH  10  12
ENDBRANCH   6  10
BRANCH   8  23
HETATM   23  N9  UNL     1      14.418  11.225  11.570  1.00  0.00    -0.263 N 
ATOM     24  H9  UNL     1      13.789  11.581  12.290  1.00  0.00     0.194 HD
BRANCH  23  25
HETATM   25  O1  UNL     1      14.192  11.498  10.386  1.00  0.00    -0.289 OA
ATOM     26  H1  UNL     1      13.672  12.253  10.136  1.00  0.00     0.244 HD
ENDBRANCH  23  25
ENDBRANCH   8  23
BRANCH   9  27
HETATM   27  C6  UNL     1      17.006  12.267  12.834  1.00  0.00     0.371 C 
BRANCH  27  28
HETATM   28  N10 UNL     1      16.333  12.747  14.004  1.00  0.00    -0.047 N 
ATOM     29 3H10 UNL     1      16.681  12.276  14.839  1.00  0.00     0.277 HD
ATOM     30 2H10 UNL     1      16.618  13.703  14.217  1.00  0.00     0.277 HD
ATOM     31 1H10 UNL     1      15.318  12.678  13.946  1.00  0.00     0.277 HD
ENDBRANCH  27  28
BRANCH  27  32
HETATM   32  O2  UNL     1      16.652  13.012  11.711  1.00  0.00    -0.365 OA
ATOM     33  H2  UNL     1      17.165  12.688  10.980  1.00  0.00     0.212 HD
ENDBRANCH  27  32
ENDBRANCH   9  27
TORSDOF 8
ENDMDL
MODEL 2
REMARK VINA RESULT: -5.210720838      1.128      1.212
REMARK  8 active torsions:
REMARK  status: ('A' for Active; 'I' for Inactive)
REMARK    1  A    between atoms: N3_6  and  N4_8 
REMARK    2  A    between atoms: N4_8  and  N5_10 
REMARK       I    between atoms: N5_10  and  C3_12 
REMARK       I    between atoms: C3_12  and  N7_16 
REMARK    3  A    between atoms: N7_16  and  N8_18 
REMARK    4  A    between atoms: C4_21  and  N9_22 
REMARK    5  A    between atoms: N9_22  and  O1_24 
REMARK    6  A    between atoms: C5_26  and  C6_27 
REMARK    7  A    between atoms: C6_27  and  N10_28 
REMARK    8  A    between atoms: C6_27  and  O2_32 
ROOT
HETATM    1  C1  UNL     1      19.472  10.510  13.643  1.00  0.00     0.178 C 
HETATM    2  N1  UNL     1      18.142  10.260  13.119  1.00  0.00    -0.292 N 
HETATM    3  N2  UNL     1      17.641   9.093  12.818  1.00  0.00    -0.280 N 
ATOM      4  H2  UNL     1      18.137   8.207  12.918  1.00  0.00     0.189 HD
HETATM    5  C2  UNL     1      16.387   9.218  12.359  1.00  0.00     0.167 A 
HETATM    6  N3  UNL     1      15.566   8.323  11.963  1.00  0.00    -0.267 N 
ATOM      7  H3  UNL     1      15.878   7.353  11.986  1.00  0.00     0.190 HD
HETATM    8  C4  UNL     1      16.115  10.568  12.388  1.00  0.00     0.129 A 
HETATM    9  C5  UNL     1      17.238  11.201  12.870  1.00  0.00     0.116 A 
ENDROOT
BRANCH   6  10
HETATM   10  N4  UNL     1      14.285   8.576  11.507  1.00  0.00    -0.227 N 
ATOM     11  H4  UNL     1      13.774   9.358  11.916  1.00  0.00     0.209 HD
BRANCH  10  12
HETATM   12  N5  UNL     1      13.652   7.820  10.518  1.00  0.00    -0.117 N 
HETATM   13  C3  UNL     1      13.094   8.409   9.354  1.00  0.00     0.705 C 
HETATM   14  N6  UNL     1      12.644   9.611   9.381  1.00  0.00    -0.232 N 
HETATM   15  N7  UNL     1      13.032   7.662   8.145  1.00  0.00    -0.138 N 
ATOM     16  H62 UNL     1      12.689  10.146  10.248  1.00  0.00     0.174 HD
ATOM     17  H61 UNL     1      12.243  10.034   8.544  1.00  0.00     0.174 HD
ATOM     18  H7  UNL     1      12.121   7.528   7.706  1.00  0.00     0.205 HD
ATOM     19  H5  UNL     1      13.589   6.809  10.636  1.00  0.00     0.207 HD
BRANCH  15  20
HETATM   20  N8  UNL     1      14.155   7.103   7.528  1.00  0.00    -0.331 N 
ATOM     21  H82 UNL     1      14.973   6.932   8.112  1.00  0.00     0.177 HD
ATOM     22  H81 UNL     1      14.190   6.864   6.537  1.00  0.00     0.177 HD
ENDBRANCH  15  20
ENDBRANCH  10  12
ENDBRANCH   6  10
BRANCH   8  23
HETATM   23  N9  UNL     1      14.873  11.183  11.980  1.00  0.00    -0.263 N 
ATOM     24  H9  UNL     1      14.222  11.507  12.697  1.00  0.00     0.194 HD
BRANCH  23  25
HETATM   25  O1  UNL     1      14.576  11.326  10.789  1.00  0.00    -0.289 OA
ATOM     26  H1  UNL     1      13.685  11.217  10.478  1.00  0.00     0.244 HD
ENDBRANCH  23  25
ENDBRANCH   8  23
BRANCH   9  27
HETATM   27  C6  UNL     1      17.331  12.667  13.048  1.00  0.00     0.371 C 
BRANCH  27  28
HETATM   28  N10 UNL     1      16.723  13.135  14.257  1.00  0.00    -0.047 N 
ATOM     29 3H10 UNL     1      15.825  13.578  14.061  1.00  0.00     0.277 HD
ATOM     30 2H10 UNL     1      16.404  12.352  14.828  1.00  0.00     0.277 HD
ATOM     31 1H10 UNL     1      17.321  13.757  14.799  1.00  0.00     0.277 HD
ENDBRANCH  27  28
BRANCH  27  32
HETATM   32  O2  UNL     1      16.749  13.262  11.930  1.00  0.00    -0.365 OA
ATOM     33  H2  UNL     1      16.761  14.201  12.068  1.00  0.00     0.212 HD
ENDBRANCH  27  32
ENDBRANCH   9  27
TORSDOF 8
ENDMDL
MODEL 3
REMARK VINA RESULT: -5.205225420      7.087     10.946
REMARK  8 active torsions:
REMARK  status: ('A' for Active; 'I' for Inactive)
REMARK    1  A    between atoms: N3_6  and  N4_8 
REMARK    2  A    between atoms: N4_8  and  N5_10 
REMARK       I    between atoms: N5_10  and  C3_12 
REMARK       I    between atoms: C3_12  and  N7_16 
REMARK    3  A    between atoms: N7_16  and  N8_18 
REMARK    4  A    between atoms: C4_21  and  N9_22 
REMARK    5  A    between atoms: N9_22  and  O1_24 
REMARK    6  A    between atoms: C5_26  and  C6_27 
REMARK    7  A    between atoms: C6_27  and  N10_28 
REMARK    8  A    between atoms: C6_27  and  O2_32 
ROOT
HETATM    1  C1  UNL     1       9.198  15.899  16.202  1.00  0.00     0.178 C 
HETATM    2  N1  UNL     1      10.616  16.199  16.268  1.00  0.00    -0.292 N 
HETATM    3  N2  UNL     1      11.184  17.052  17.076  1.00  0.00    -0.280 N 
ATOM      4  H2  UNL     1      10.688  17.617  17.765  1.00  0.00     0.189 HD
HETATM    5  C2  UNL     1      12.511  17.085  16.876  1.00  0.00     0.167 A 
HETATM    6  N3  UNL     1      13.410  17.781  17.457  1.00  0.00    -0.267 N 
ATOM      7  H3  UNL     1      13.111  18.421  18.192  1.00  0.00     0.190 HD
HETATM    8  C4  UNL     1      12.756  16.179  15.867  1.00  0.00     0.129 A 
HETATM    9  C5  UNL     1      11.544  15.636  15.502  1.00  0.00     0.116 A 
ENDROOT
BRANCH   6  10
HETATM   10  N4  UNL     1      14.760  17.729  17.161  1.00  0.00    -0.227 N 
ATOM     11  H4  UNL     1      15.047  17.254  16.305  1.00  0.00     0.209 HD
BRANCH  10  12
HETATM   12  N5  UNL     1      15.752  18.290  17.967  1.00  0.00    -0.117 N 
HETATM   13  C3  UNL     1      17.082  17.796  17.989  1.00  0.00     0.705 C 
HETATM   14  N6  UNL     1      17.323  16.559  17.746  1.00  0.00    -0.232 N 
HETATM   15  N7  UNL     1      18.159  18.678  18.282  1.00  0.00    -0.138 N 
ATOM     16  H62 UNL     1      16.551  15.926  17.537  1.00  0.00     0.174 HD
ATOM     17  H61 UNL     1      18.279  16.204  17.762  1.00  0.00     0.174 HD
ATOM     18  H7  UNL     1      18.769  18.453  19.068  1.00  0.00     0.205 HD
ATOM     19  H5  UNL     1      15.512  19.083  18.561  1.00  0.00     0.207 HD
BRANCH  15  20
HETATM   20  N8  UNL     1      18.423  19.839  17.548  1.00  0.00    -0.331 N 
ATOM     21  H82 UNL     1      17.933  20.689  17.825  1.00  0.00     0.177 HD
ATOM     22  H81 UNL     1      19.073  19.870  16.762  1.00  0.00     0.177 HD
ENDBRANCH  15  20
ENDBRANCH  10  12
ENDBRANCH   6  10
BRANCH   8  23
HETATM   23  N9  UNL     1      14.053  15.874  15.310  1.00  0.00    -0.263 N 
ATOM     24  H9  UNL     1      14.565  15.065  15.663  1.00  0.00     0.194 HD
BRANCH  23  25
HETATM   25  O1  UNL     1      14.559  16.564  14.418  1.00  0.00    -0.289 OA
ATOM     26  H1  UNL     1      14.062  17.226  13.954  1.00  0.00     0.244 HD
ENDBRANCH  23  25
ENDBRANCH   8  23
BRANCH   9  27
HETATM   27  C6  UNL     1      11.398  14.616  14.442  1.00  0.00     0.371 C 
BRANCH  27  28
HETATM   28  N10 UNL     1      11.845  13.314  14.837  1.00  0.00    -0.047 N 
ATOM     29 3H10 UNL     1      12.363  12.865  14.081  1.00  0.00     0.277 HD
ATOM     30 2H10 UNL     1      12.586  13.382  15.534  1.00  0.00     0.277 HD
ATOM     31 1H10 UNL     1      11.094  12.708  15.168  1.00  0.00     0.277 HD
ENDBRANCH  27  28
BRANCH  27  32
HETATM   32  O2  UNL     1      12.098  15.069  13.325  1.00  0.00    -0.365 OA
ATOM     33  H2  UNL     1      11.473  15.167  12.617  1.00  0.00     0.212 HD
ENDBRANCH  27  32
ENDBRANCH   9  27
TORSDOF 8
ENDMDL
MODEL 4
REMARK VINA RESULT: -5.150500058      3.085      7.492
REMARK  8 active torsions:
REMARK  status: ('A' for Active; 'I' for Inactive)
REMARK    1  A    between atoms: N3_6  and  N4_8 
REMARK    2  A    between atoms: N4_8  and  N5_10 
REMARK       I    between atoms: N5_10  and  C3_12 
REMARK       I    between atoms: C3_12  and  N7_16 
REMARK    3  A    between atoms: N7_16  and  N8_18 
REMARK    4  A    between atoms: C4_21  and  N9_22 
REMARK    5  A    between atoms: N9_22  and  O1_24 
REMARK    6  A    between atoms: C5_26  and  C6_27 
REMARK    7  A    between atoms: C6_27  and  N10_28 
REMARK    8  A    between atoms: C6_27  and  O2_32 
ROOT
HETATM    1  C1  UNL     1      15.805   8.398  11.869  1.00  0.00     0.178 C 
HETATM    2  N1  UNL     1      16.378   9.647  12.335  1.00  0.00    -0.292 N 
HETATM    3  N2  UNL     1      17.603   9.822  12.751  1.00  0.00    -0.280 N 
ATOM      4  H2  UNL     1      18.309   9.087  12.799  1.00  0.00     0.189 HD
HETATM    5  C2  UNL     1      17.805  11.099  13.109  1.00  0.00     0.167 A 
HETATM    6  N3  UNL     1      18.854  11.667  13.563  1.00  0.00    -0.267 N 
ATOM      7  H3  UNL     1      19.687  11.091  13.686  1.00  0.00     0.190 HD
HETATM    8  C4  UNL     1      16.605  11.740  12.888  1.00  0.00     0.129 A 
HETATM    9  C5  UNL     1      15.724  10.800  12.401  1.00  0.00     0.116 A 
ENDROOT
BRANCH   6  10
HETATM   10  N4  UNL     1      18.943  13.005  13.900  1.00  0.00    -0.227 N 
ATOM     11  H4  UNL     1      18.738  13.697  13.179  1.00  0.00     0.209 HD
BRANCH  10  12
HETATM   12  N5  UNL     1      19.298  13.462  15.170  1.00  0.00    -0.117 N 
HETATM   13  C3  UNL     1      19.784  14.776  15.396  1.00  0.00     0.705 C 
HETATM   14  N6  UNL     1      20.431  15.400  14.480  1.00  0.00    -0.232 N 
HETATM   15  N7  UNL     1      19.553  15.409  16.649  1.00  0.00    -0.138 N 
ATOM     16  H62 UNL     1      20.597  14.945  13.582  1.00  0.00     0.174 HD
ATOM     17  H61 UNL     1      20.780  16.344  14.642  1.00  0.00     0.174 HD
ATOM     18  H7  UNL     1      20.359  15.735  17.182  1.00  0.00     0.205 HD
ATOM     19  H5  UNL     1      19.204  12.829  15.964  1.00  0.00     0.207 HD
BRANCH  15  20
HETATM   20  N8  UNL     1      18.277  15.608  17.186  1.00  0.00    -0.331 N 
ATOM     21  H82 UNL     1      17.481  15.331  16.613  1.00  0.00     0.177 HD
ATOM     22  H81 UNL     1      18.114  16.011  18.109  1.00  0.00     0.177 HD
ENDBRANCH  15  20
ENDBRANCH  10  12
ENDBRANCH   6  10
BRANCH   8  23
HETATM   23  N9  UNL     1      16.344  13.139  13.132  1.00  0.00    -0.263 N 
ATOM     24  H9  UNL     1      16.258  13.773  12.337  1.00  0.00     0.194 HD
BRANCH  23  25
HETATM   25  O1  UNL     1      16.221  13.590  14.276  1.00  0.00    -0.289 OA
ATOM     26  H1  UNL     1      16.462  13.084  15.043  1.00  0.00     0.244 HD
ENDBRANCH  23  25
ENDBRANCH   8  23
BRANCH   9  27
HETATM   27  C6  UNL     1      14.323  11.111  12.042  1.00  0.00     0.371 C 
BRANCH  27  28
HETATM   28  N10 UNL     1      14.158  11.509  10.676  1.00  0.00    -0.047 N 
ATOM     29 3H10 UNL     1      14.019  12.517  10.608  1.00  0.00     0.277 HD
ATOM     30 2H10 UNL     1      15.038  11.424  10.167  1.00  0.00     0.277 HD
ATOM     31 1H10 UNL     1      13.413  11.008  10.193  1.00  0.00     0.277 HD
ENDBRANCH  27  28
BRANCH  27  32
HETATM   32  O2  UNL     1      13.878  12.105  12.911  1.00  0.00    -0.365 OA
ATOM     33  H2  UNL     1      13.065  12.448  12.561  1.00  0.00     0.212 HD
ENDBRANCH  27  32
ENDBRANCH   9  27
TORSDOF 8
ENDMDL
MODEL 5
REMARK VINA RESULT: -5.000540327      2.734      6.662
REMARK  8 active torsions:
REMARK  status: ('A' for Active; 'I' for Inactive)
REMARK    1  A    between atoms: N3_6  and  N4_8 
REMARK    2  A    between atoms: N4_8  and  N5_10 
REMARK       I    between atoms: N5_10  and  C3_12 
REMARK       I    between atoms: C3_12  and  N7_16 
REMARK    3  A    between atoms: N7_16  and  N8_18 
REMARK    4  A    between atoms: C4_21  and  N9_22 
REMARK    5  A    between atoms: N9_22  and  O1_24 
REMARK    6  A    between atoms: C5_26  and  C6_27 
REMARK    7  A    between atoms: C6_27  and  N10_28 
REMARK    8  A    between atoms: C6_27  and  O2_32 
ROOT
HETATM    1  C1  UNL     1      12.992   9.249   9.931  1.00  0.00     0.178 C 
HETATM    2  N1  UNL     1      13.920   9.794  10.904  1.00  0.00    -0.292 N 
HETATM    3  N2  UNL     1      14.198  11.058  11.076  1.00  0.00    -0.280 N 
ATOM      4  H2  UNL     1      13.789  11.820  10.537  1.00  0.00     0.189 HD
HETATM    5  C2  UNL     1      15.098  11.216  12.059  1.00  0.00     0.167 A 
HETATM    6  N3  UNL     1      15.622  12.282  12.527  1.00  0.00    -0.267 N 
ATOM      7  H3  UNL     1      15.336  13.170  12.113  1.00  0.00     0.190 HD
HETATM    8  C4  UNL     1      15.380   9.945  12.512  1.00  0.00     0.129 A 
HETATM    9  C5  UNL     1      14.625   9.069  11.765  1.00  0.00     0.116 A 
ENDROOT
BRANCH   6  10
HETATM   10  N4  UNL     1      16.548  12.321  13.553  1.00  0.00    -0.227 N 
ATOM     11  H4  UNL     1      16.208  12.247  14.511  1.00  0.00     0.209 HD
BRANCH  10  12
HETATM   12  N5  UNL     1      17.923  12.456  13.351  1.00  0.00    -0.117 N 
HETATM   13  C3  UNL     1      18.846  12.521  14.427  1.00  0.00     0.705 C 
HETATM   14  N6  UNL     1      18.492  13.005  15.562  1.00  0.00    -0.232 N 
HETATM   15  N7  UNL     1      20.174  12.046  14.248  1.00  0.00    -0.138 N 
ATOM     16  H62 UNL     1      17.539  13.346  15.690  1.00  0.00     0.174 HD
ATOM     17  H61 UNL     1      19.155  13.052  16.335  1.00  0.00     0.174 HD
ATOM     18  H7  UNL     1      20.946  12.691  14.421  1.00  0.00     0.205 HD
ATOM     19  H5  UNL     1      18.277  12.509  12.396  1.00  0.00     0.207 HD
BRANCH  15  20
HETATM   20  N8  UNL     1      20.477  10.741  13.847  1.00  0.00    -0.331 N 
ATOM     21  H82 UNL     1      21.419  10.400  14.039  1.00  0.00     0.177 HD
ATOM     22  H81 UNL     1      19.809  10.128  13.380  1.00  0.00     0.177 HD
ENDBRANCH  15  20
ENDBRANCH  10  12
ENDBRANCH   6  10
BRANCH   8  23
HETATM   23  N9  UNL     1      16.303   9.618  13.573  1.00  0.00    -0.263 N 
ATOM     24  H9  UNL     1      15.941   9.462  14.514  1.00  0.00     0.194 HD
BRANCH  23  25
HETATM   25  O1  UNL     1      17.519   9.522  13.374  1.00  0.00    -0.289 OA
ATOM     26  H1  UNL     1      18.143   9.494  14.089  1.00  0.00     0.244 HD
ENDBRANCH  23  25
ENDBRANCH   8  23
BRANCH   9  27
HETATM   27  C6  UNL     1      14.655   7.603  11.958  1.00  0.00     0.371 C 
BRANCH  27  28
HETATM   28  N10 UNL     1      13.906   7.161  13.097  1.00  0.00    -0.047 N 
ATOM     29 3H10 UNL     1      14.261   7.592  13.951  1.00  0.00     0.277 HD
ATOM     30 2H10 UNL     1      12.966   7.555  13.085  1.00  0.00     0.277 HD
ATOM     31 1H10 UNL     1      13.871   6.147  13.192  1.00  0.00     0.277 HD
ENDBRANCH  27  28
BRANCH  27  32
HETATM   32  O2  UNL     1      15.992   7.221  12.058  1.00  0.00    -0.365 OA
ATOM     33  H2  UNL     1      16.441   7.885  12.567  1.00  0.00     0.212 HD
ENDBRANCH  27  32
ENDBRANCH   9  27
TORSDOF 8
ENDMDL
