MODEL 1
REMARK VINA RESULT: -5.957732408      0.000      0.000
REMARK  7 active torsions:
REMARK  status: ('A' for Active; 'I' for Inactive)
REMARK    1  A    between atoms: N1_1  and  C1_4 
REMARK    2  A    between atoms: C3_11  and  N4_12 
REMARK    3  A    between atoms: N5_14  and  N6_16 
REMARK    4  A    between atoms: N6_16  and  N7_18 
REMARK    5  A    between atoms: N7_18  and  C4_20 
REMARK    6  A    between atoms: C6_25  and  N11_26 
REMARK    7  A    between atoms: N11_26  and  N12_28 
ROOT
HETATM    1  C1  UNL     1      17.314  11.953  12.613  1.00  0.00     0.135 A 
HETATM    2  N2  UNL     1      18.599  11.624  12.833  1.00  0.00    -0.293 N 
ATOM      3  H2  UNL     1      19.318  12.347  12.790  1.00  0.00     0.172 HD
HETATM    4  C2  UNL     1      18.949  10.354  13.109  1.00  0.00     0.327 A 
HETATM    5  O1  UNL     1      20.173  10.105  13.308  1.00  0.00    -0.247 OA
HETATM    6  N3  UNL     1      18.003   9.421  13.162  1.00  0.00    -0.291 N 
ATOM      7  H3  UNL     1      18.270   8.459  13.371  1.00  0.00     0.172 HD
HETATM    8  C3  UNL     1      16.706   9.705  12.950  1.00  0.00     0.157 A 
HETATM    9  C6  UNL     1      16.325  10.994  12.666  1.00  0.00     0.137 A 
ENDROOT
BRANCH   8  10
HETATM   10  N4  UNL     1      15.702   8.696  13.009  1.00  0.00    -0.268 N 
HETATM   11  N5  UNL     1      15.462   7.910  12.068  1.00  0.00    -0.227 N 
ATOM     12  H5  UNL     1      15.994   7.967  11.200  1.00  0.00     0.210 HD
ATOM     13  H4  UNL     1      15.152   8.611  13.863  1.00  0.00     0.190 HD
BRANCH  11  14
HETATM   14  N6  UNL     1      14.462   6.955  12.217  1.00  0.00    -0.231 N 
ATOM     15  H6  UNL     1      14.697   6.008  12.512  1.00  0.00     0.209 HD
BRANCH  14  16
HETATM   16  N7  UNL     1      13.163   7.290  11.966  1.00  0.00    -0.298 N 
ATOM     17  H7  UNL     1      12.734   7.117  11.057  1.00  0.00     0.183 HD
BRANCH  16  18
HETATM   18  C4  UNL     1      12.441   7.889  13.025  1.00  0.00     0.227 C 
HETATM   19  C5  UNL     1      10.943   7.885  12.802  1.00  0.00     0.177 C 
HETATM   20  N8  UNL     1      10.520   8.955  13.677  1.00  0.00    -0.127 NA
HETATM   21  N9  UNL     1      11.636   9.678  14.041  1.00  0.00    -0.038 NA
HETATM   22  N10 UNL     1      12.683   9.311  13.182  1.00  0.00    -0.102 NA
ENDBRANCH  16  18
ENDBRANCH  14  16
ENDBRANCH  11  14
ENDBRANCH   8  10
BRANCH   9  23
HETATM   23  N11 UNL     1      14.964  11.356  12.430  1.00  0.00    -0.300 N 
ATOM     24  H11 UNL     1      14.405  11.730  13.198  1.00  0.00     0.186 HD
BRANCH  23  25
HETATM   25  N12 UNL     1      14.382  11.207  11.171  1.00  0.00    -0.344 N 
ATOM     26 2H12 UNL     1      13.892  10.337  10.964  1.00  0.00     0.176 HD
ATOM     27 1H12 UNL     1      14.443  11.944  10.470  1.00  0.00     0.176 HD
ENDBRANCH  23  25
ENDBRANCH   9  23
BRANCH   1  28
HETATM   28  N1  UNL     1      16.945  13.162  12.346  1.00  0.00    -0.383 N 
ATOM     29  H12 UNL     1      17.272  13.896  12.975  1.00  0.00     0.157 HD
ATOM     30  H11 UNL     1      16.354  13.388  11.546  1.00  0.00     0.157 HD
ENDBRANCH   1  28
TORSDOF 7
ENDMDL
MODEL 2
REMARK VINA RESULT: -5.927349647      1.484      2.073
REMARK  7 active torsions:
REMARK  status: ('A' for Active; 'I' for Inactive)
REMARK    1  A    between atoms: N1_1  and  C1_4 
REMARK    2  A    between atoms: C3_11  and  N4_12 
REMARK    3  A    between atoms: N5_14  and  N6_16 
REMARK    4  A    between atoms: N6_16  and  N7_18 
REMARK    5  A    between atoms: N7_18  and  C4_20 
REMARK    6  A    between atoms: C6_25  and  N11_26 
REMARK    7  A    between atoms: N11_26  and  N12_28 
ROOT
HETATM    1  C1  UNL     1      17.437  12.080  12.682  1.00  0.00     0.135 A 
HETATM    2  N2  UNL     1      18.651  11.705  13.121  1.00  0.00    -0.293 N 
ATOM      3  H2  UNL     1      19.328  12.416  13.398  1.00  0.00     0.172 HD
HETATM    4  C2  UNL     1      18.985  10.403  13.200  1.00  0.00     0.327 A 
HETATM    5  O1  UNL     1      20.142  10.111  13.622  1.00  0.00    -0.247 OA
HETATM    6  N3  UNL     1      18.094   9.485  12.837  1.00  0.00    -0.291 N 
ATOM      7  H3  UNL     1      18.348   8.500  12.897  1.00  0.00     0.172 HD
HETATM    8  C3  UNL     1      16.869   9.815  12.392  1.00  0.00     0.157 A 
HETATM    9  C6  UNL     1      16.506  11.137  12.302  1.00  0.00     0.137 A 
ENDROOT
BRANCH   8  10
HETATM   10  N4  UNL     1      15.923   8.822  12.006  1.00  0.00    -0.268 N 
HETATM   11  N5  UNL     1      15.243   8.166  12.823  1.00  0.00    -0.227 N 
ATOM     12  H5  UNL     1      15.347   8.325  13.825  1.00  0.00     0.210 HD
ATOM     13  H4  UNL     1      15.795   8.638  11.011  1.00  0.00     0.190 HD
BRANCH  11  14
HETATM   14  N6  UNL     1      14.344   7.215  12.353  1.00  0.00    -0.231 N 
ATOM     15  H6  UNL     1      14.669   6.282  12.103  1.00  0.00     0.209 HD
BRANCH  14  16
HETATM   16  N7  UNL     1      13.024   7.537  12.227  1.00  0.00    -0.298 N 
ATOM     17  H7  UNL     1      12.346   7.304  12.953  1.00  0.00     0.183 HD
BRANCH  16  18
HETATM   18  C4  UNL     1      12.639   8.209  11.043  1.00  0.00     0.227 C 
HETATM   19  C5  UNL     1      13.225   7.591   9.789  1.00  0.00     0.177 C 
HETATM   20  N8  UNL     1      13.145   8.696   8.861  1.00  0.00    -0.127 NA
HETATM   21  N9  UNL     1      12.902   9.845   9.583  1.00  0.00    -0.038 NA
HETATM   22  N10 UNL     1      13.148   9.563  10.934  1.00  0.00    -0.102 NA
ENDBRANCH  16  18
ENDBRANCH  14  16
ENDBRANCH  11  14
ENDBRANCH   8  10
BRANCH   9  23
HETATM   23  N11 UNL     1      15.220  11.548  11.837  1.00  0.00    -0.300 N 
ATOM     24  H11 UNL     1      15.072  11.695  10.838  1.00  0.00     0.186 HD
BRANCH  23  25
HETATM   25  N12 UNL     1      14.161  11.752  12.722  1.00  0.00    -0.344 N 
ATOM     26 2H12 UNL     1      14.291  12.411  13.489  1.00  0.00     0.176 HD
ATOM     27 1H12 UNL     1      13.277  11.257  12.612  1.00  0.00     0.176 HD
ENDBRANCH  23  25
ENDBRANCH   9  23
BRANCH   1  28
HETATM   28  N1  UNL     1      17.086  13.320  12.594  1.00  0.00    -0.383 N 
ATOM     29  H12 UNL     1      17.217  13.899  13.423  1.00  0.00     0.157 HD
ATOM     30  H11 UNL     1      16.694  13.717  11.740  1.00  0.00     0.157 HD
ENDBRANCH   1  28
TORSDOF 7
ENDMDL
MODEL 3
REMARK VINA RESULT: -5.790719765      8.986     11.266
REMARK  7 active torsions:
REMARK  status: ('A' for Active; 'I' for Inactive)
REMARK    1  A    between atoms: N1_1  and  C1_4 
REMARK    2  A    between atoms: C3_11  and  N4_12 
REMARK    3  A    between atoms: N5_14  and  N6_16 
REMARK    4  A    between atoms: N6_16  and  N7_18 
REMARK    5  A    between atoms: N7_18  and  C4_20 
REMARK    6  A    between atoms: C6_25  and  N11_26 
REMARK    7  A    between atoms: N11_26  and  N12_28 
ROOT
HETATM    1  C1  UNL     1      13.009  17.030  17.637  1.00  0.00     0.135 A 
HETATM    2  N2  UNL     1      12.836  17.052  18.970  1.00  0.00    -0.293 N 
ATOM      3  H2  UNL     1      11.917  16.844  19.362  1.00  0.00     0.172 HD
HETATM    4  C2  UNL     1      13.859  17.343  19.795  1.00  0.00     0.327 A 
HETATM    5  O1  UNL     1      13.636  17.347  21.040  1.00  0.00    -0.247 OA
HETATM    6  N3  UNL     1      15.052  17.612  19.273  1.00  0.00    -0.291 N 
ATOM      7  H3  UNL     1      15.826  17.834  19.898  1.00  0.00     0.172 HD
HETATM    8  C3  UNL     1      15.270  17.602  17.946  1.00  0.00     0.157 A 
HETATM    9  C6  UNL     1      14.241  17.308  17.085  1.00  0.00     0.137 A 
ENDROOT
BRANCH   8  10
HETATM   10  N4  UNL     1      16.553  17.892  17.399  1.00  0.00    -0.268 N 
HETATM   11  N5  UNL     1      17.470  18.438  18.049  1.00  0.00    -0.227 N 
ATOM     12  H5  UNL     1      17.323  18.702  19.024  1.00  0.00     0.210 HD
ATOM     13  H4  UNL     1      16.733  17.642  16.427  1.00  0.00     0.190 HD
BRANCH  11  14
HETATM   14  N6  UNL     1      18.691  18.683  17.431  1.00  0.00    -0.231 N 
ATOM     15  H6  UNL     1      18.894  19.605  17.046  1.00  0.00     0.209 HD
BRANCH  14  16
HETATM   16  N7  UNL     1      19.617  17.685  17.343  1.00  0.00    -0.298 N 
ATOM     17  H7  UNL     1      19.787  17.190  16.467  1.00  0.00     0.183 HD
BRANCH  16  18
HETATM   18  C4  UNL     1      20.331  17.369  18.522  1.00  0.00     0.227 C 
HETATM   19  C5  UNL     1      20.159  15.928  18.957  1.00  0.00     0.177 C 
HETATM   20  N8  UNL     1      20.499  16.008  20.358  1.00  0.00    -0.127 NA
HETATM   21  N9  UNL     1      20.500  17.337  20.725  1.00  0.00    -0.038 NA
HETATM   22  N10 UNL     1      19.862  18.061  19.708  1.00  0.00    -0.102 NA
ENDBRANCH  16  18
ENDBRANCH  14  16
ENDBRANCH  11  14
ENDBRANCH   8  10
BRANCH   9  23
HETATM   23  N11 UNL     1      14.412  17.282  15.667  1.00  0.00    -0.300 N 
ATOM     24  H11 UNL     1      14.764  16.435  15.221  1.00  0.00     0.186 HD
BRANCH  23  25
HETATM   25  N12 UNL     1      14.108  18.393  14.881  1.00  0.00    -0.344 N 
ATOM     26 2H12 UNL     1      14.313  19.320  15.253  1.00  0.00     0.176 HD
ATOM     27 1H12 UNL     1      13.690  18.289  13.957  1.00  0.00     0.176 HD
ENDBRANCH  23  25
ENDBRANCH   9  23
BRANCH   1  28
HETATM   28  N1  UNL     1      12.048  16.755  16.819  1.00  0.00    -0.383 N 
ATOM     29  H12 UNL     1      11.362  16.065  17.126  1.00  0.00     0.157 HD
ATOM     30  H11 UNL     1      11.966  17.197  15.904  1.00  0.00     0.157 HD
ENDBRANCH   1  28
TORSDOF 7
ENDMDL
MODEL 4
REMARK VINA RESULT: -5.785158643      2.765      5.838
REMARK  7 active torsions:
REMARK  status: ('A' for Active; 'I' for Inactive)
REMARK    1  A    between atoms: N1_1  and  C1_4 
REMARK    2  A    between atoms: C3_11  and  N4_12 
REMARK    3  A    between atoms: N5_14  and  N6_16 
REMARK    4  A    between atoms: N6_16  and  N7_18 
REMARK    5  A    between atoms: N7_18  and  C4_20 
REMARK    6  A    between atoms: C6_25  and  N11_26 
REMARK    7  A    between atoms: N11_26  and  N12_28 
ROOT
HETATM    1  C1  UNL     1      14.689  10.594  11.486  1.00  0.00     0.135 A 
HETATM    2  N2  UNL     1      14.471   9.301  11.189  1.00  0.00    -0.293 N 
ATOM      3  H2  UNL     1      13.658   9.044  10.628  1.00  0.00     0.172 HD
HETATM    4  C2  UNL     1      15.311   8.342  11.622  1.00  0.00     0.327 A 
HETATM    5  O1  UNL     1      15.054   7.143  11.310  1.00  0.00    -0.247 OA
HETATM    6  N3  UNL     1      16.366   8.690  12.352  1.00  0.00    -0.291 N 
ATOM      7  H3  UNL     1      17.001   7.963  12.679  1.00  0.00     0.172 HD
HETATM    8  C3  UNL     1      16.623   9.971  12.672  1.00  0.00     0.157 A 
HETATM    9  C6  UNL     1      15.780  10.966  12.242  1.00  0.00     0.137 A 
ENDROOT
BRANCH   8  10
HETATM   10  N4  UNL     1      17.757  10.331  13.455  1.00  0.00    -0.268 N 
HETATM   11  N5  UNL     1      18.845  10.696  12.961  1.00  0.00    -0.227 N 
ATOM     12  H5  UNL     1      18.959  10.750  11.948  1.00  0.00     0.210 HD
ATOM     13  H4  UNL     1      17.678  10.288  14.471  1.00  0.00     0.190 HD
BRANCH  11  14
HETATM   14  N6  UNL     1      19.899  11.029  13.805  1.00  0.00    -0.231 N 
ATOM     15  H6  UNL     1      20.839  10.683  13.611  1.00  0.00     0.209 HD
BRANCH  14  16
HETATM   16  N7  UNL     1      19.672  11.819  14.893  1.00  0.00    -0.298 N 
ATOM     17  H7  UNL     1      20.023  11.569  15.817  1.00  0.00     0.183 HD
BRANCH  16  18
HETATM   18  C4  UNL     1      18.927  13.003  14.679  1.00  0.00     0.227 C 
HETATM   19  C5  UNL     1      19.312  14.128  15.616  1.00  0.00     0.177 C 
HETATM   20  N8  UNL     1      18.129  14.957  15.571  1.00  0.00    -0.127 NA
HETATM   21  N9  UNL     1      17.113  14.223  14.997  1.00  0.00    -0.038 NA
HETATM   22  N10 UNL     1      17.512  12.879  14.979  1.00  0.00    -0.102 NA
ENDBRANCH  16  18
ENDBRANCH  14  16
ENDBRANCH  11  14
ENDBRANCH   8  10
BRANCH   9  23
HETATM   23  N11 UNL     1      16.000  12.343  12.551  1.00  0.00    -0.300 N 
ATOM     24  H11 UNL     1      15.504  12.766  13.336  1.00  0.00     0.186 HD
BRANCH  23  25
HETATM   25  N12 UNL     1      16.882  13.121  11.801  1.00  0.00    -0.344 N 
ATOM     26 2H12 UNL     1      16.971  12.926  10.804  1.00  0.00     0.176 HD
ATOM     27 1H12 UNL     1      17.427  13.867  12.231  1.00  0.00     0.176 HD
ENDBRANCH  23  25
ENDBRANCH   9  23
BRANCH   1  28
HETATM   28  N1  UNL     1      13.902  11.538  11.086  1.00  0.00    -0.383 N 
ATOM     29  H12 UNL     1      13.774  11.639  10.080  1.00  0.00     0.157 HD
ATOM     30  H11 UNL     1      13.425  12.162  11.736  1.00  0.00     0.157 HD
ENDBRANCH   1  28
TORSDOF 7
ENDMDL
MODEL 5
REMARK VINA RESULT: -5.630843758      2.989      6.134
REMARK  7 active torsions:
REMARK  status: ('A' for Active; 'I' for Inactive)
REMARK    1  A    between atoms: N1_1  and  C1_4 
REMARK    2  A    between atoms: C3_11  and  N4_12 
REMARK    3  A    between atoms: N5_14  and  N6_16 
REMARK    4  A    between atoms: N6_16  and  N7_18 
REMARK    5  A    between atoms: N7_18  and  C4_20 
REMARK    6  A    between atoms: C6_25  and  N11_26 
REMARK    7  A    between atoms: N11_26  and  N12_28 
ROOT
HETATM    1  C1  UNL     1      14.951   8.615  11.850  1.00  0.00     0.135 A 
HETATM    2  N2  UNL     1      14.030   8.741  10.878  1.00  0.00    -0.293 N 
ATOM      3  H2  UNL     1      13.636   7.904  10.448  1.00  0.00     0.172 HD
HETATM    4  C2  UNL     1      13.621   9.956  10.466  1.00  0.00     0.327 A 
HETATM    5  O1  UNL     1      12.752  10.011   9.549  1.00  0.00    -0.247 OA
HETATM    6  N3  UNL     1      14.142  11.039  11.036  1.00  0.00    -0.291 N 
ATOM      7  H3  UNL     1      13.832  11.958  10.723  1.00  0.00     0.172 HD
HETATM    8  C3  UNL     1      15.065  10.960  12.011  1.00  0.00     0.157 A 
HETATM    9  C6  UNL     1      15.498   9.732  12.447  1.00  0.00     0.137 A 
ENDROOT
BRANCH   8  10
HETATM   10  N4  UNL     1      15.615  12.128  12.612  1.00  0.00    -0.268 N 
HETATM   11  N5  UNL     1      16.598  12.744  12.146  1.00  0.00    -0.227 N 
ATOM     12  H5  UNL     1      17.051  12.418  11.292  1.00  0.00     0.210 HD
ATOM     13  H4  UNL     1      15.185  12.481  13.467  1.00  0.00     0.190 HD
BRANCH  11  14
HETATM   14  N6  UNL     1      17.067  13.877  12.802  1.00  0.00    -0.231 N 
ATOM     15  H6  UNL     1      17.559  14.602  12.282  1.00  0.00     0.209 HD
BRANCH  14  16
HETATM   16  N7  UNL     1      16.866  14.013  14.145  1.00  0.00    -0.298 N 
ATOM     17  H7  UNL     1      16.187  14.676  14.518  1.00  0.00     0.183 HD
BRANCH  16  18
HETATM   18  C4  UNL     1      17.642  13.190  14.994  1.00  0.00     0.227 C 
HETATM   19  C5  UNL     1      18.980  12.807  14.395  1.00  0.00     0.177 C 
HETATM   20  N8  UNL     1      19.304  11.620  15.152  1.00  0.00    -0.127 NA
HETATM   21  N9  UNL     1      18.163  11.202  15.803  1.00  0.00    -0.038 NA
HETATM   22  N10 UNL     1      17.074  11.877  15.235  1.00  0.00    -0.102 NA
ENDBRANCH  16  18
ENDBRANCH  14  16
ENDBRANCH  11  14
ENDBRANCH   8  10
BRANCH   9  23
HETATM   23  N11 UNL     1      16.475   9.586  13.478  1.00  0.00    -0.300 N 
ATOM     24  H11 UNL     1      16.170   9.478  14.445  1.00  0.00     0.186 HD
BRANCH  23  25
HETATM   25  N12 UNL     1      17.839   9.589  13.188  1.00  0.00    -0.344 N 
ATOM     26 2H12 UNL     1      18.217  10.364  12.643  1.00  0.00     0.176 HD
ATOM     27 1H12 UNL     1      18.450   8.838  13.509  1.00  0.00     0.176 HD
ENDBRANCH  23  25
ENDBRANCH   9  23
BRANCH   1  28
HETATM   28  N1  UNL     1      15.364   7.465  12.267  1.00  0.00    -0.383 N 
ATOM     29  H12 UNL     1      16.200   7.084  11.823  1.00  0.00     0.157 HD
ATOM     30  H11 UNL     1      14.887   6.949  13.006  1.00  0.00     0.157 HD
ENDBRANCH   1  28
TORSDOF 7
ENDMDL
