MODEL 1
REMARK VINA RESULT: -9.191518651      0.000      0.000
REMARK  4 active torsions:
REMARK  status: ('A' for Active; 'I' for Inactive)
REMARK    1  A    between atoms: C2_2  and  C4_4 
REMARK    2  A    between atoms: N2_7  and  C5_8 
REMARK    3  A    between atoms: C8_14  and  C9_15 
REMARK    4  A    between atoms: N5_17  and  C11_18 
ROOT
HETATM    1  C5  UNL     1      31.909   8.262   8.004  1.00  0.00     0.229 C 
HETATM    2  C6  UNL     1      32.139   9.284   9.123  1.00  0.00     0.052 C 
HETATM    3  C7  UNL     1      32.894   7.209   8.061  1.00  0.00     0.088 C 
HETATM    4  N3  UNL     1      33.739   6.426   8.202  1.00  0.00    -0.195 NA
ENDROOT
BRANCH   1   5
HETATM    5  N2  UNL     1      30.589   7.737   8.101  1.00  0.00    -0.216 N 
HETATM    6  N1  UNL     1      29.653   7.799   7.066  1.00  0.00    -0.285 N 
HETATM    7  C4  UNL     1      28.531   7.294   7.386  1.00  0.00     0.055 A 
ATOM      8  H1  UNL     1      29.849   8.207   6.151  1.00  0.00     0.188 HD
HETATM    9  C8  UNL     1      28.658   6.882   8.786  1.00  0.00     0.060 A 
HETATM   10  N4  UNL     1      29.897   7.202   9.004  1.00  0.00    -0.285 N 
ATOM     11  H4  UNL     1      30.313   7.018   9.917  1.00  0.00     0.188 HD
BRANCH   7  12
HETATM   12  C2  UNL     1      27.260   7.291   6.663  1.00  0.00     0.031 C 
HETATM   13  C1  UNL     1      27.376   8.457   5.631  1.00  0.00     0.016 C 
HETATM   14  C3  UNL     1      27.163   6.025   5.776  1.00  0.00     0.016 C 
ENDBRANCH   7  12
BRANCH   9  15
HETATM   15  C9  UNL     1      27.515   6.434   9.584  1.00  0.00     0.096 C 
HETATM   16  C10 UNL     1      27.139   5.056   9.110  1.00  0.00     0.287 C 
HETATM   17  N5  UNL     1      26.032   4.487   9.862  1.00  0.00     0.100 N 
HETATM   18  C16 UNL     1      26.645   4.116  11.182  1.00  0.00     0.247 C 
HETATM   19  C17 UNL     1      26.186   5.105  12.234  1.00  0.00     0.040 C 
HETATM   20  C20 UNL     1      28.129   3.959  11.172  1.00  0.00     0.204 C 
HETATM   21  C18 UNL     1      26.945   6.394  12.061  1.00  0.00     0.035 C 
HETATM   22  C19 UNL     1      28.052   6.265  11.055  1.00  0.00     0.133 C 
HETATM   23  O2  UNL     1      28.830   5.148  11.231  1.00  0.00    -0.383 OA
BRANCH  17  24
HETATM   24  C11 UNL     1      25.699   3.221   9.248  1.00  0.00     0.227 C 
HETATM   25  C12 UNL     1      26.434   3.038   7.934  1.00  0.00     0.062 C 
HETATM   26  C13 UNL     1      25.805   1.904   7.180  1.00  0.00     0.169 C 
HETATM   27  O1  UNL     1      24.923   1.155   7.933  1.00  0.00    -0.391 OA
HETATM   28  C14 UNL     1      23.836   1.874   8.399  1.00  0.00     0.169 C 
HETATM   29  C15 UNL     1      24.207   3.313   8.751  1.00  0.00     0.062 C 
ENDBRANCH  17  24
ENDBRANCH   9  15
ENDBRANCH   1   5
TORSDOF 4
ENDMDL
MODEL 2
REMARK VINA RESULT: -8.487680552      2.769      5.141
REMARK  4 active torsions:
REMARK  status: ('A' for Active; 'I' for Inactive)
REMARK    1  A    between atoms: C2_2  and  C4_4 
REMARK    2  A    between atoms: N2_7  and  C5_8 
REMARK    3  A    between atoms: C8_14  and  C9_15 
REMARK    4  A    between atoms: N5_17  and  C11_18 
ROOT
HETATM    1  C5  UNL     1      31.198   6.908  10.788  1.00  0.00     0.229 C 
HETATM    2  C6  UNL     1      31.916   7.353  12.067  1.00  0.00     0.052 C 
HETATM    3  C7  UNL     1      32.145   6.653   9.730  1.00  0.00     0.088 C 
HETATM    4  N3  UNL     1      32.997   6.488   8.959  1.00  0.00    -0.195 NA
ENDROOT
BRANCH   1   5
HETATM    5  N2  UNL     1      30.410   5.753  11.061  1.00  0.00    -0.216 N 
HETATM    6  N1  UNL     1      30.951   4.504  11.377  1.00  0.00    -0.285 N 
HETATM    7  C4  UNL     1      30.062   3.613  11.552  1.00  0.00     0.055 A 
ATOM      8  H1  UNL     1      31.952   4.327  11.459  1.00  0.00     0.188 HD
HETATM    9  C8  UNL     1      28.777   4.267  11.287  1.00  0.00     0.060 A 
HETATM   10  N4  UNL     1      29.184   5.474  11.042  1.00  0.00    -0.285 N 
ATOM     11  H4  UNL     1      28.504   6.204  10.832  1.00  0.00     0.188 HD
BRANCH   7  12
HETATM   12  C2  UNL     1      30.201   2.170  11.745  1.00  0.00     0.031 C 
HETATM   13  C1  UNL     1      31.387   2.006  12.747  1.00  0.00     0.016 C 
HETATM   14  C3  UNL     1      28.980   1.624  12.527  1.00  0.00     0.016 C 
ENDBRANCH   7  12
BRANCH   9  15
HETATM   15  C9  UNL     1      27.519   3.524  11.190  1.00  0.00     0.096 C 
HETATM   16  C10 UNL     1      26.430   4.394  11.757  1.00  0.00     0.287 C 
HETATM   17  N5  UNL     1      25.117   3.773  11.678  1.00  0.00     0.100 N 
HETATM   18  C16 UNL     1      24.757   3.873  10.223  1.00  0.00     0.247 C 
HETATM   19  C17 UNL     1      24.883   2.503   9.588  1.00  0.00     0.040 C 
HETATM   20  C20 UNL     1      25.500   4.916   9.456  1.00  0.00     0.204 C 
HETATM   21  C18 UNL     1      26.341   2.194   9.373  1.00  0.00     0.035 C 
HETATM   22  C19 UNL     1      27.216   3.382   9.652  1.00  0.00     0.133 C 
HETATM   23  O2  UNL     1      26.773   4.543   9.070  1.00  0.00    -0.383 OA
BRANCH  17  24
HETATM   24  C11 UNL     1      24.183   4.652  12.345  1.00  0.00     0.227 C 
HETATM   25  C12 UNL     1      24.887   5.864  12.924  1.00  0.00     0.062 C 
HETATM   26  C13 UNL     1      23.962   6.550  13.885  1.00  0.00     0.169 C 
HETATM   27  O1  UNL     1      22.659   6.098  13.823  1.00  0.00    -0.391 OA
HETATM   28  C14 UNL     1      22.515   4.758  14.138  1.00  0.00     0.169 C 
HETATM   29  C15 UNL     1      23.701   3.925  13.657  1.00  0.00     0.062 C 
ENDBRANCH  17  24
ENDBRANCH   9  15
ENDBRANCH   1   5
TORSDOF 4
ENDMDL
MODEL 3
REMARK VINA RESULT: -8.281774682      2.184      7.198
REMARK  4 active torsions:
REMARK  status: ('A' for Active; 'I' for Inactive)
REMARK    1  A    between atoms: C2_2  and  C4_4 
REMARK    2  A    between atoms: N2_7  and  C5_8 
REMARK    3  A    between atoms: C8_14  and  C9_15 
REMARK    4  A    between atoms: N5_17  and  C11_18 
ROOT
HETATM    1  C5  UNL     1      24.273   2.622  10.022  1.00  0.00     0.229 C 
HETATM    2  C6  UNL     1      22.819   3.031  10.277  1.00  0.00     0.052 C 
HETATM    3  C7  UNL     1      24.377   1.804   8.839  1.00  0.00     0.088 C 
HETATM    4  N3  UNL     1      24.333   1.151   7.879  1.00  0.00    -0.195 NA
ENDROOT
BRANCH   1   5
HETATM    5  N2  UNL     1      25.084   3.788   9.913  1.00  0.00    -0.216 N 
HETATM    6  N1  UNL     1      25.484   4.560  11.007  1.00  0.00    -0.285 N 
HETATM    7  C4  UNL     1      26.178   5.570  10.670  1.00  0.00     0.055 A 
ATOM      8  H1  UNL     1      25.244   4.336  11.973  1.00  0.00     0.188 HD
HETATM    9  C8  UNL     1      26.236   5.550   9.206  1.00  0.00     0.060 A 
HETATM   10  N4  UNL     1      25.573   4.460   8.968  1.00  0.00    -0.285 N 
ATOM     11  H4  UNL     1      25.447   4.145   8.007  1.00  0.00     0.188 HD
BRANCH   7  12
HETATM   12  C2  UNL     1      26.657   6.693  11.475  1.00  0.00     0.031 C 
HETATM   13  C1  UNL     1      25.863   6.600  12.816  1.00  0.00     0.016 C 
HETATM   14  C3  UNL     1      28.126   6.445  11.900  1.00  0.00     0.016 C 
ENDBRANCH   7  12
BRANCH   9  15
HETATM   15  C9  UNL     1      26.780   6.661   8.422  1.00  0.00     0.096 C 
HETATM   16  C10 UNL     1      28.280   6.551   8.455  1.00  0.00     0.287 C 
HETATM   17  N5  UNL     1      28.936   7.587   7.672  1.00  0.00     0.100 N 
HETATM   18  C16 UNL     1      28.705   7.164   6.249  1.00  0.00     0.247 C 
HETATM   19  C17 UNL     1      27.659   8.067   5.629  1.00  0.00     0.040 C 
HETATM   20  C20 UNL     1      28.380   5.719   6.061  1.00  0.00     0.204 C 
HETATM   21  C18 UNL     1      26.300   7.666   6.138  1.00  0.00     0.035 C 
HETATM   22  C19 UNL     1      26.349   6.393   6.932  1.00  0.00     0.133 C 
HETATM   23  O2  UNL     1      27.064   5.391   6.325  1.00  0.00    -0.383 OA
BRANCH  17  24
HETATM   24  C11 UNL     1      30.360   7.441   7.869  1.00  0.00     0.227 C 
HETATM   25  C12 UNL     1      30.691   7.212   9.331  1.00  0.00     0.062 C 
HETATM   26  C13 UNL     1      32.164   7.414   9.533  1.00  0.00     0.169 C 
HETATM   27  O1  UNL     1      32.882   7.495   8.356  1.00  0.00    -0.391 OA
HETATM   28  C14 UNL     1      32.518   8.559   7.551  1.00  0.00     0.169 C 
HETATM   29  C15 UNL     1      31.020   8.850   7.625  1.00  0.00     0.062 C 
ENDBRANCH  17  24
ENDBRANCH   9  15
ENDBRANCH   1   5
TORSDOF 4
ENDMDL
MODEL 4
REMARK VINA RESULT: -8.160236642      2.682      5.090
REMARK  4 active torsions:
REMARK  status: ('A' for Active; 'I' for Inactive)
REMARK    1  A    between atoms: C2_2  and  C4_4 
REMARK    2  A    between atoms: N2_7  and  C5_8 
REMARK    3  A    between atoms: C8_14  and  C9_15 
REMARK    4  A    between atoms: N5_17  and  C11_18 
ROOT
HETATM    1  C5  UNL     1      29.571   7.900   7.374  1.00  0.00     0.229 C 
HETATM    2  C6  UNL     1      31.026   8.290   7.092  1.00  0.00     0.052 C 
HETATM    3  C7  UNL     1      29.117   6.900   6.438  1.00  0.00     0.088 C 
HETATM    4  N3  UNL     1      28.864   6.108   5.628  1.00  0.00    -0.195 NA
ENDROOT
BRANCH   1   5
HETATM    5  N2  UNL     1      29.452   7.438   8.716  1.00  0.00    -0.216 N 
HETATM    6  N1  UNL     1      30.504   7.452   9.636  1.00  0.00    -0.285 N 
HETATM    7  C4  UNL     1      30.179   6.964  10.764  1.00  0.00     0.055 A 
ATOM      8  H1  UNL     1      31.434   7.815   9.425  1.00  0.00     0.188 HD
HETATM    9  C8  UNL     1      28.791   6.514  10.624  1.00  0.00     0.060 A 
HETATM   10  N4  UNL     1      28.555   6.884   9.402  1.00  0.00    -0.285 N 
ATOM     11  H4  UNL     1      27.634   6.724   8.994  1.00  0.00     0.188 HD
BRANCH   7  12
HETATM   12  C2  UNL     1      31.005   6.659  11.931  1.00  0.00     0.031 C 
HETATM   13  C1  UNL     1      31.584   5.235  11.659  1.00  0.00     0.016 C 
HETATM   14  C3  UNL     1      32.259   7.570  11.939  1.00  0.00     0.016 C 
ENDBRANCH   7  12
BRANCH   9  15
HETATM   15  C9  UNL     1      28.113   5.715  11.646  1.00  0.00     0.096 C 
HETATM   16  C10 UNL     1      26.851   6.437  12.029  1.00  0.00     0.287 C 
HETATM   17  N5  UNL     1      26.067   5.714  13.018  1.00  0.00     0.100 N 
HETATM   18  C16 UNL     1      25.458   4.583  12.239  1.00  0.00     0.247 C 
HETATM   19  C17 UNL     1      26.167   3.295  12.601  1.00  0.00     0.040 C 
HETATM   20  C20 UNL     1      25.395   4.792  10.762  1.00  0.00     0.204 C 
HETATM   21  C18 UNL     1      27.506   3.261  11.913  1.00  0.00     0.035 C 
HETATM   22  C19 UNL     1      27.664   4.386  10.931  1.00  0.00     0.133 C 
HETATM   23  O2  UNL     1      26.583   4.549  10.100  1.00  0.00    -0.383 OA
BRANCH  17  24
HETATM   24  C11 UNL     1      24.947   6.552  13.380  1.00  0.00     0.227 C 
HETATM   25  C12 UNL     1      25.304   7.482  14.524  1.00  0.00     0.062 C 
HETATM   26  C13 UNL     1      24.042   8.068  15.085  1.00  0.00     0.169 C 
HETATM   27  O1  UNL     1      22.928   7.846  14.301  1.00  0.00    -0.391 OA
HETATM   28  C14 UNL     1      22.617   6.507  14.137  1.00  0.00     0.169 C 
HETATM   29  C15 UNL     1      23.866   5.632  14.062  1.00  0.00     0.062 C 
ENDBRANCH  17  24
ENDBRANCH   9  15
ENDBRANCH   1   5
TORSDOF 4
ENDMDL
MODEL 5
REMARK VINA RESULT: -8.015290603      2.463      4.846
REMARK  4 active torsions:
REMARK  status: ('A' for Active; 'I' for Inactive)
REMARK    1  A    between atoms: C2_2  and  C4_4 
REMARK    2  A    between atoms: N2_7  and  C5_8 
REMARK    3  A    between atoms: C8_14  and  C9_15 
REMARK    4  A    between atoms: N5_17  and  C11_18 
ROOT
HETATM    1  C5  UNL     1      27.983   7.612   6.571  1.00  0.00     0.229 C 
HETATM    2  C6  UNL     1      28.847   6.768   5.628  1.00  0.00     0.052 C 
HETATM    3  C7  UNL     1      26.581   7.439   6.274  1.00  0.00     0.088 C 
HETATM    4  N3  UNL     1      25.490   7.228   5.938  1.00  0.00    -0.195 NA
ENDROOT
BRANCH   1   5
HETATM    5  N2  UNL     1      28.268   7.260   7.922  1.00  0.00    -0.216 N 
HETATM    6  N1  UNL     1      29.404   7.693   8.611  1.00  0.00    -0.285 N 
HETATM    7  C4  UNL     1      29.467   7.232   9.794  1.00  0.00     0.055 A 
ATOM      8  H1  UNL     1      30.107   8.313   8.208  1.00  0.00     0.188 HD
HETATM    9  C8  UNL     1      28.305   6.352   9.947  1.00  0.00     0.060 A 
HETATM   10  N4  UNL     1      27.744   6.515   8.788  1.00  0.00    -0.285 N 
ATOM     11  H4  UNL     1      26.870   6.033   8.578  1.00  0.00     0.188 HD
BRANCH   7  12
HETATM   12  C2  UNL     1      30.544   7.315  10.780  1.00  0.00     0.031 C 
HETATM   13  C1  UNL     1      31.473   6.099  10.471  1.00  0.00     0.016 C 
HETATM   14  C3  UNL     1      31.437   8.545  10.481  1.00  0.00     0.016 C 
ENDBRANCH   7  12
BRANCH   9  15
HETATM   15  C9  UNL     1      28.126   5.476  11.107  1.00  0.00     0.096 C 
HETATM   16  C10 UNL     1      26.794   5.801  11.725  1.00  0.00     0.287 C 
HETATM   17  N5  UNL     1      26.486   4.960  12.870  1.00  0.00     0.100 N 
HETATM   18  C16 UNL     1      26.138   3.632  12.261  1.00  0.00     0.247 C 
HETATM   19  C17 UNL     1      27.279   2.665  12.499  1.00  0.00     0.040 C 
HETATM   20  C20 UNL     1      25.735   3.680  10.825  1.00  0.00     0.204 C 
HETATM   21  C18 UNL     1      28.403   2.988  11.550  1.00  0.00     0.035 C 
HETATM   22  C19 UNL     1      28.002   4.015  10.531  1.00  0.00     0.133 C 
HETATM   23  O2  UNL     1      26.791   3.760   9.937  1.00  0.00    -0.383 OA
BRANCH  17  24
HETATM   24  C11 UNL     1      25.244   5.438  13.436  1.00  0.00     0.227 C 
HETATM   25  C12 UNL     1      24.134   4.419  13.262  1.00  0.00     0.062 C 
HETATM   26  C13 UNL     1      22.818   5.083  13.540  1.00  0.00     0.169 C 
HETATM   27  O1  UNL     1      22.935   6.331  14.119  1.00  0.00    -0.391 OA
HETATM   28  C14 UNL     1      23.602   7.253  13.332  1.00  0.00     0.169 C 
HETATM   29  C15 UNL     1      24.726   6.611  12.523  1.00  0.00     0.062 C 
ENDBRANCH  17  24
ENDBRANCH   9  15
ENDBRANCH   1   5
TORSDOF 4
ENDMDL
