MODEL 1
REMARK VINA RESULT: -8.487588247      0.000      0.000
REMARK  6 active torsions:
REMARK  status: ('A' for Active; 'I' for Inactive)
REMARK    1  A    between atoms: C2_2  and  O2_4 
REMARK    2  A    between atoms: O2_4  and  C3_5 
REMARK    3  A    between atoms: C10_16  and  C11_17 
REMARK    4  A    between atoms: C11_17  and  C12_18 
REMARK    5  A    between atoms: C13_19  and  C14_20 
REMARK    6  A    between atoms: C14_20  and  N2_21 
ROOT
HETATM    1  C3  UNL     1      25.404   3.810   9.871  1.00  0.00     0.327 C 
HETATM    2  O3  UNL     1      26.594   3.166   9.514  1.00  0.00    -0.211 OA
HETATM    3  N1  UNL     1      27.256   4.040   8.675  1.00  0.00    -0.269 N 
ATOM      4  H1  UNL     1      27.929   3.764   7.959  1.00  0.00     0.194 HD
HETATM    5  C4  UNL     1      26.904   5.255   8.924  1.00  0.00     0.024 C 
HETATM    6  C5  UNL     1      27.440   6.426   8.190  1.00  0.00     0.066 C 
HETATM    7  C6  UNL     1      25.907   5.250  10.029  1.00  0.00     0.190 C 
HETATM    8  C7  UNL     1      26.472   5.553  11.373  1.00  0.00     0.179 C 
HETATM    9  C8  UNL     1      28.003   5.374  11.258  1.00  0.00     0.080 C 
HETATM   10  O4  UNL     1      26.253   6.688  11.970  1.00  0.00    -0.354 OA
HETATM   11  C9  UNL     1      25.291   7.109  12.753  1.00  0.00     0.177 C 
HETATM   12  C10 UNL     1      24.801   6.464  13.952  1.00  0.00     0.021 C 
HETATM   13  C17 UNL     1      24.769   5.030  14.177  1.00  0.00     0.012 C 
HETATM   14  C18 UNL     1      24.058   4.136  13.194  1.00  0.00     0.061 C 
HETATM   15  C19 UNL     1      24.730   4.295  11.905  1.00  0.00     0.269 C 
HETATM   16  O5  UNL     1      26.080   4.502  12.188  1.00  0.00    -0.325 OA
HETATM   17  O6  UNL     1      24.758   3.287  10.975  1.00  0.00    -0.299 OA
ENDROOT
BRANCH  12  18
HETATM   18  C11 UNL     1      23.386   7.002  14.254  1.00  0.00     0.100 C 
BRANCH  18  19
HETATM   19  C12 UNL     1      23.012   6.753  15.630  1.00  0.00    -0.104 C 
HETATM   20  C13 UNL     1      22.720   6.537  16.777  1.00  0.00    -0.076 C 
BRANCH  20  21
HETATM   21  C14 UNL     1      22.384   6.266  18.191  1.00  0.00     0.364 C 
BRANCH  21  22
HETATM   22  N2  UNL     1      23.639   6.049  18.875  1.00  0.00     0.090 N 
HETATM   23  C15 UNL     1      24.277   7.322  19.141  1.00  0.00     0.310 C 
HETATM   24  C16 UNL     1      23.433   5.386  20.146  1.00  0.00     0.310 C 
ENDBRANCH  21  22
ENDBRANCH  20  21
ENDBRANCH  18  19
ENDBRANCH  12  18
BRANCH   1  25
HETATM   25  O2  UNL     1      24.571   3.806   8.720  1.00  0.00    -0.256 OA
BRANCH  25  26
HETATM   26  C2  UNL     1      23.818   2.690   8.431  1.00  0.00     0.259 C 
HETATM   27  C1  UNL     1      24.388   1.431   7.896  1.00  0.00     0.126 C 
HETATM   28  O1  UNL     1      22.575   2.726   8.629  1.00  0.00    -0.266 OA
ENDBRANCH  25  26
ENDBRANCH   1  25
TORSDOF 6
ENDMDL
MODEL 2
REMARK VINA RESULT: -7.850072151      1.959      2.186
REMARK  6 active torsions:
REMARK  status: ('A' for Active; 'I' for Inactive)
REMARK    1  A    between atoms: C2_2  and  O2_4 
REMARK    2  A    between atoms: O2_4  and  C3_5 
REMARK    3  A    between atoms: C10_16  and  C11_17 
REMARK    4  A    between atoms: C11_17  and  C12_18 
REMARK    5  A    between atoms: C13_19  and  C14_20 
REMARK    6  A    between atoms: C14_20  and  N2_21 
ROOT
HETATM    1  C3  UNL     1      25.356   3.630   9.640  1.00  0.00     0.327 C 
HETATM    2  O3  UNL     1      26.366   2.812   9.121  1.00  0.00    -0.211 OA
HETATM    3  N1  UNL     1      26.994   3.564   8.147  1.00  0.00    -0.269 N 
ATOM      4  H1  UNL     1      27.491   3.179   7.344  1.00  0.00     0.194 HD
HETATM    5  C4  UNL     1      26.864   4.822   8.399  1.00  0.00     0.024 C 
HETATM    6  C5  UNL     1      27.428   5.887   7.537  1.00  0.00     0.066 C 
HETATM    7  C6  UNL     1      26.077   4.984   9.652  1.00  0.00     0.190 C 
HETATM    8  C7  UNL     1      26.897   5.226  10.870  1.00  0.00     0.179 C 
HETATM    9  C8  UNL     1      28.346   4.822  10.513  1.00  0.00     0.080 C 
HETATM   10  O4  UNL     1      26.945   6.391  11.446  1.00  0.00    -0.354 OA
HETATM   11  C9  UNL     1      26.197   6.963  12.358  1.00  0.00     0.177 C 
HETATM   12  C10 UNL     1      25.831   6.419  13.647  1.00  0.00     0.021 C 
HETATM   13  C17 UNL     1      25.634   5.010  13.935  1.00  0.00     0.012 C 
HETATM   14  C18 UNL     1      24.649   4.211  13.121  1.00  0.00     0.061 C 
HETATM   15  C19 UNL     1      25.109   4.247  11.735  1.00  0.00     0.269 C 
HETATM   16  O5  UNL     1      26.504   4.259  11.783  1.00  0.00    -0.325 OA
HETATM   17  O6  UNL     1      24.838   3.228  10.856  1.00  0.00    -0.299 OA
ENDROOT
BRANCH  12  18
HETATM   18  C11 UNL     1      24.577   7.164  14.154  1.00  0.00     0.100 C 
BRANCH  18  19
HETATM   19  C12 UNL     1      24.882   7.979  15.311  1.00  0.00    -0.104 C 
HETATM   20  C13 UNL     1      25.153   8.646  16.275  1.00  0.00    -0.076 C 
BRANCH  20  21
HETATM   21  C14 UNL     1      25.509   9.455  17.460  1.00  0.00     0.364 C 
BRANCH  21  22
HETATM   22  N2  UNL     1      26.937   9.663  17.399  1.00  0.00     0.090 N 
HETATM   23  C15 UNL     1      27.260  10.985  17.895  1.00  0.00     0.310 C 
HETATM   24  C16 UNL     1      27.642   8.702  18.221  1.00  0.00     0.310 C 
ENDBRANCH  21  22
ENDBRANCH  20  21
ENDBRANCH  18  19
ENDBRANCH  12  18
BRANCH   1  25
HETATM   25  O2  UNL     1      24.349   3.726   8.643  1.00  0.00    -0.256 OA
BRANCH  25  26
HETATM   26  C2  UNL     1      23.563   2.631   8.364  1.00  0.00     0.259 C 
HETATM   27  C1  UNL     1      24.093   1.355   7.826  1.00  0.00     0.126 C 
HETATM   28  O1  UNL     1      22.323   2.702   8.574  1.00  0.00    -0.266 OA
ENDBRANCH  25  26
ENDBRANCH   1  25
TORSDOF 6
ENDMDL
MODEL 3
REMARK VINA RESULT: -7.835373675      3.629      8.639
REMARK  6 active torsions:
REMARK  status: ('A' for Active; 'I' for Inactive)
REMARK    1  A    between atoms: C2_2  and  O2_4 
REMARK    2  A    between atoms: O2_4  and  C3_5 
REMARK    3  A    between atoms: C10_16  and  C11_17 
REMARK    4  A    between atoms: C11_17  and  C12_18 
REMARK    5  A    between atoms: C13_19  and  C14_20 
REMARK    6  A    between atoms: C14_20  and  N2_21 
ROOT
HETATM    1  C3  UNL     1      24.306   7.245  18.220  1.00  0.00     0.327 C 
HETATM    2  O3  UNL     1      24.264   8.541  18.747  1.00  0.00    -0.211 OA
HETATM    3  N1  UNL     1      25.581   8.929  18.894  1.00  0.00    -0.269 N 
ATOM      4  H1  UNL     1      25.914   9.617  19.570  1.00  0.00     0.194 HD
HETATM    5  C4  UNL     1      26.331   8.298  18.057  1.00  0.00     0.024 C 
HETATM    6  C5  UNL     1      27.797   8.494  17.967  1.00  0.00     0.066 C 
HETATM    7  C6  UNL     1      25.482   7.382  17.246  1.00  0.00     0.190 C 
HETATM    8  C7  UNL     1      25.105   7.912  15.907  1.00  0.00     0.179 C 
HETATM    9  C8  UNL     1      25.377   9.434  15.943  1.00  0.00     0.080 C 
HETATM   10  O4  UNL     1      25.627   7.446  14.811  1.00  0.00    -0.354 OA
HETATM   11  C9  UNL     1      25.306   6.444  14.030  1.00  0.00     0.177 C 
HETATM   12  C10 UNL     1      24.011   6.182  13.441  1.00  0.00     0.021 C 
HETATM   13  C17 UNL     1      22.734   6.516  14.046  1.00  0.00     0.012 C 
HETATM   14  C18 UNL     1      22.405   6.007  15.425  1.00  0.00     0.061 C 
HETATM   15  C19 UNL     1      23.405   6.561  16.337  1.00  0.00     0.269 C 
HETATM   16  O5  UNL     1      23.722   7.829  15.849  1.00  0.00    -0.325 OA
HETATM   17  O6  UNL     1      23.125   6.798  17.659  1.00  0.00    -0.299 OA
ENDROOT
BRANCH  12  18
HETATM   18  C11 UNL     1      23.947   4.692  13.041  1.00  0.00     0.100 C 
BRANCH  18  19
HETATM   19  C12 UNL     1      24.692   4.443  11.825  1.00  0.00    -0.104 C 
HETATM   20  C13 UNL     1      25.293   4.240  10.803  1.00  0.00    -0.076 C 
BRANCH  20  21
HETATM   21  C14 UNL     1      26.013   3.997   9.535  1.00  0.00     0.364 C 
BRANCH  21  22
HETATM   22  N2  UNL     1      26.289   2.580   9.485  1.00  0.00     0.090 N 
HETATM   23  C15 UNL     1      26.532   2.176   8.116  1.00  0.00     0.310 C 
HETATM   24  C16 UNL     1      27.469   2.249  10.257  1.00  0.00     0.310 C 
ENDBRANCH  21  22
ENDBRANCH  20  21
ENDBRANCH  18  19
ENDBRANCH  12  18
BRANCH   1  25
HETATM   25  O2  UNL     1      24.753   6.390  19.263  1.00  0.00    -0.256 OA
BRANCH  25  26
HETATM   26  C2  UNL     1      24.207   6.511  20.521  1.00  0.00     0.259 C 
HETATM   27  C1  UNL     1      22.986   5.793  20.959  1.00  0.00     0.126 C 
HETATM   28  O1  UNL     1      24.765   7.269  21.357  1.00  0.00    -0.266 OA
ENDBRANCH  25  26
ENDBRANCH   1  25
TORSDOF 6
ENDMDL
MODEL 4
REMARK VINA RESULT: -7.695990160      1.963      3.661
REMARK  6 active torsions:
REMARK  status: ('A' for Active; 'I' for Inactive)
REMARK    1  A    between atoms: C2_2  and  O2_4 
REMARK    2  A    between atoms: O2_4  and  C3_5 
REMARK    3  A    between atoms: C10_16  and  C11_17 
REMARK    4  A    between atoms: C11_17  and  C12_18 
REMARK    5  A    between atoms: C13_19  and  C14_20 
REMARK    6  A    between atoms: C14_20  and  N2_21 
ROOT
HETATM    1  C3  UNL     1      26.608   2.942   9.977  1.00  0.00     0.327 C 
HETATM    2  O3  UNL     1      26.926   3.478   8.724  1.00  0.00    -0.211 OA
HETATM    3  N1  UNL     1      26.396   2.603   7.796  1.00  0.00    -0.269 N 
ATOM      4  H1  UNL     1      26.747   2.477   6.847  1.00  0.00     0.194 HD
HETATM    5  C4  UNL     1      25.393   1.970   8.300  1.00  0.00     0.024 C 
HETATM    6  C5  UNL     1      24.609   0.958   7.553  1.00  0.00     0.066 C 
HETATM    7  C6  UNL     1      25.190   2.425   9.703  1.00  0.00     0.190 C 
HETATM    8  C7  UNL     1      24.125   3.451   9.872  1.00  0.00     0.179 C 
HETATM    9  C8  UNL     1      23.839   4.026   8.466  1.00  0.00     0.080 C 
HETATM   10  O4  UNL     1      22.980   3.168  10.422  1.00  0.00    -0.354 OA
HETATM   11  C9  UNL     1      22.570   3.156  11.666  1.00  0.00     0.177 C 
HETATM   12  C10 UNL     1      22.688   4.229  12.629  1.00  0.00     0.021 C 
HETATM   13  C17 UNL     1      23.768   5.197  12.675  1.00  0.00     0.012 C 
HETATM   14  C18 UNL     1      25.195   4.720  12.770  1.00  0.00     0.061 C 
HETATM   15  C19 UNL     1      25.461   3.923  11.574  1.00  0.00     0.269 C 
HETATM   16  O5  UNL     1      24.726   4.507  10.540  1.00  0.00    -0.325 OA
HETATM   17  O6  UNL     1      26.721   3.819  11.039  1.00  0.00    -0.299 OA
ENDROOT
BRANCH  12  18
HETATM   18  C11 UNL     1      22.554   3.631  14.046  1.00  0.00     0.100 C 
BRANCH  18  19
HETATM   19  C12 UNL     1      22.531   4.670  15.055  1.00  0.00    -0.104 C 
HETATM   20  C13 UNL     1      22.497   5.544  15.881  1.00  0.00    -0.076 C 
BRANCH  20  21
HETATM   21  C14 UNL     1      22.438   6.627  16.885  1.00  0.00     0.364 C 
BRANCH  21  22
HETATM   22  N2  UNL     1      21.653   6.122  17.987  1.00  0.00     0.090 N 
HETATM   23  C15 UNL     1      22.113   6.712  19.227  1.00  0.00     0.310 C 
HETATM   24  C16 UNL     1      20.254   6.459  17.831  1.00  0.00     0.310 C 
ENDBRANCH  21  22
ENDBRANCH  20  21
ENDBRANCH  18  19
ENDBRANCH  12  18
BRANCH   1  25
HETATM   25  O2  UNL     1      27.422   1.792  10.153  1.00  0.00    -0.256 OA
BRANCH  25  26
HETATM   26  C2  UNL     1      28.494   1.844  11.017  1.00  0.00     0.259 C 
HETATM   27  C1  UNL     1      29.333   3.051  11.212  1.00  0.00     0.126 C 
HETATM   28  O1  UNL     1      28.788   0.818  11.685  1.00  0.00    -0.266 OA
ENDBRANCH  25  26
ENDBRANCH   1  25
TORSDOF 6
ENDMDL
MODEL 5
REMARK VINA RESULT: -7.616905907      4.141      6.655
REMARK  6 active torsions:
REMARK  status: ('A' for Active; 'I' for Inactive)
REMARK    1  A    between atoms: C2_2  and  O2_4 
REMARK    2  A    between atoms: O2_4  and  C3_5 
REMARK    3  A    between atoms: C10_16  and  C11_17 
REMARK    4  A    between atoms: C11_17  and  C12_18 
REMARK    5  A    between atoms: C13_19  and  C14_20 
REMARK    6  A    between atoms: C14_20  and  N2_21 
ROOT
HETATM    1  C3  UNL     1      24.352   3.028   9.924  1.00  0.00     0.327 C 
HETATM    2  O3  UNL     1      24.086   1.929   9.101  1.00  0.00    -0.211 OA
HETATM    3  N1  UNL     1      23.636   2.456   7.906  1.00  0.00    -0.269 N 
ATOM      4  H1  UNL     1      23.019   1.974   7.252  1.00  0.00     0.194 HD
HETATM    5  C4  UNL     1      24.106   3.644   7.735  1.00  0.00     0.024 C 
HETATM    6  C5  UNL     1      23.805   4.476   6.546  1.00  0.00     0.066 C 
HETATM    7  C6  UNL     1      24.959   3.997   8.902  1.00  0.00     0.190 C 
HETATM    8  C7  UNL     1      26.419   3.812   8.680  1.00  0.00     0.179 C 
HETATM    9  C8  UNL     1      26.564   2.913   7.430  1.00  0.00     0.080 C 
HETATM   10  O4  UNL     1      27.226   4.822   8.533  1.00  0.00    -0.354 OA
HETATM   11  C9  UNL     1      27.886   5.564   9.387  1.00  0.00     0.177 C 
HETATM   12  C10 UNL     1      28.767   5.103  10.438  1.00  0.00     0.021 C 
HETATM   13  C17 UNL     1      28.617   3.859  11.170  1.00  0.00     0.012 C 
HETATM   14  C18 UNL     1      27.324   3.564  11.885  1.00  0.00     0.061 C 
HETATM   15  C19 UNL     1      26.272   3.527  10.871  1.00  0.00     0.269 C 
HETATM   16  O5  UNL     1      26.855   3.001   9.717  1.00  0.00    -0.325 OA
HETATM   17  O6  UNL     1      25.144   2.761  11.026  1.00  0.00    -0.299 OA
ENDROOT
BRANCH  12  18
HETATM   18  C11 UNL     1      28.912   6.230  11.484  1.00  0.00     0.100 C 
BRANCH  18  19
HETATM   19  C12 UNL     1      30.105   7.015  11.249  1.00  0.00    -0.104 C 
HETATM   20  C13 UNL     1      31.087   7.678  11.038  1.00  0.00    -0.076 C 
BRANCH  20  21
HETATM   21  C14 UNL     1      32.280   8.507  10.765  1.00  0.00     0.364 C 
BRANCH  21  22
HETATM   22  N2  UNL     1      31.959   9.320   9.615  1.00  0.00     0.090 N 
HETATM   23  C15 UNL     1      31.833  10.706  10.016  1.00  0.00     0.310 C 
HETATM   24  C16 UNL     1      33.001   9.245   8.614  1.00  0.00     0.310 C 
ENDBRANCH  21  22
ENDBRANCH  20  21
ENDBRANCH  18  19
ENDBRANCH  12  18
BRANCH   1  25
HETATM   25  O2  UNL     1      23.097   3.579  10.297  1.00  0.00    -0.256 OA
BRANCH  25  26
HETATM   26  C2  UNL     1      22.411   3.044  11.364  1.00  0.00     0.259 C 
HETATM   27  C1  UNL     1      22.229   3.746  12.658  1.00  0.00     0.126 C 
HETATM   28  O1  UNL     1      21.904   1.898  11.249  1.00  0.00    -0.266 OA
ENDBRANCH  25  26
ENDBRANCH   1  25
TORSDOF 6
ENDMDL
