MODEL 1
REMARK VINA RESULT: -7.858210441      0.000      0.000
REMARK  7 active torsions:
REMARK  status: ('A' for Active; 'I' for Inactive)
REMARK    1  A    between atoms: C9_11  and  C10_12 
REMARK    2  A    between atoms: C10_12  and  O3_13 
REMARK    3  A    between atoms: O3_13  and  C11_14 
REMARK    4  A    between atoms: C13_17  and  O5_18 
REMARK    5  A    between atoms: O5_18  and  C14_19 
REMARK    6  A    between atoms: C16_22  and  O7_23 
REMARK    7  A    between atoms: O7_23  and  C17_24 
ROOT
HETATM    1  C1  UNL     1      25.096   4.796   6.571  1.00  0.00     0.025 C 
HETATM    2  C2  UNL     1      25.676   4.161   7.571  1.00  0.00     0.017 C 
HETATM    3  C3  UNL     1      26.415   2.901   7.563  1.00  0.00     0.289 C 
HETATM    4  O1  UNL     1      26.739   2.265   6.527  1.00  0.00    -0.260 OA
HETATM    5  O2  UNL     1      26.684   2.546   8.900  1.00  0.00    -0.306 OA
HETATM    6  C4  UNL     1      25.710   3.267   9.675  1.00  0.00     0.078 C 
HETATM    7  C5  UNL     1      24.368   2.626   9.279  1.00  0.00     0.047 C 
HETATM    8  C6  UNL     1      25.910   3.194  11.116  1.00  0.00     0.044 C 
HETATM    9  C7  UNL     1      25.646   4.394  11.931  1.00  0.00    -0.007 C 
HETATM   10  C8  UNL     1      24.160   4.519  12.182  1.00  0.00     0.010 C 
HETATM   11  C9  UNL     1      26.156   5.686  11.438  1.00  0.00     0.046 C 
HETATM   12  C13 UNL     1      27.361   5.672  10.588  1.00  0.00     0.168 C 
HETATM   13  C16 UNL     1      26.947   5.405   9.156  1.00  0.00     0.173 C 
HETATM   14  C19 UNL     1      25.719   4.593   9.014  1.00  0.00     0.091 C 
ENDROOT
BRANCH  11  15
HETATM   15  C10 UNL     1      26.306   6.619  12.650  1.00  0.00     0.186 C 
BRANCH  15  16
HETATM   16  O3  UNL     1      25.251   7.564  12.678  1.00  0.00    -0.321 OA
BRANCH  16  17
HETATM   17  C11 UNL     1      24.472   7.651  13.797  1.00  0.00     0.254 C 
HETATM   18  C12 UNL     1      25.033   7.931  15.155  1.00  0.00     0.126 C 
HETATM   19  O4  UNL     1      23.221   7.491  13.699  1.00  0.00    -0.266 OA
ENDBRANCH  16  17
ENDBRANCH  15  16
ENDBRANCH  11  15
BRANCH  12  20
HETATM   20  O5  UNL     1      28.330   4.717  10.914  1.00  0.00    -0.313 OA
BRANCH  20  21
HETATM   21  C14 UNL     1      29.636   5.028  11.182  1.00  0.00     0.255 C 
HETATM   22  C15 UNL     1      30.081   6.456  11.290  1.00  0.00     0.126 C 
HETATM   23  O6  UNL     1      30.426   4.063  11.331  1.00  0.00    -0.266 OA
ENDBRANCH  20  21
ENDBRANCH  12  20
BRANCH  13  24
HETATM   24  O7  UNL     1      26.707   6.668   8.528  1.00  0.00    -0.313 OA
BRANCH  24  25
HETATM   25  C17 UNL     1      27.616   7.300   7.723  1.00  0.00     0.255 C 
HETATM   26  C18 UNL     1      27.371   7.613   6.287  1.00  0.00     0.126 C 
HETATM   27  O8  UNL     1      28.733   7.649   8.195  1.00  0.00    -0.266 OA
ENDBRANCH  24  25
ENDBRANCH  13  24
TORSDOF 7
ENDMDL
MODEL 2
REMARK VINA RESULT: -7.727974906      1.715      2.604
REMARK  7 active torsions:
REMARK  status: ('A' for Active; 'I' for Inactive)
REMARK    1  A    between atoms: C9_11  and  C10_12 
REMARK    2  A    between atoms: C10_12  and  O3_13 
REMARK    3  A    between atoms: O3_13  and  C11_14 
REMARK    4  A    between atoms: C13_17  and  O5_18 
REMARK    5  A    between atoms: O5_18  and  C14_19 
REMARK    6  A    between atoms: C16_22  and  O7_23 
REMARK    7  A    between atoms: O7_23  and  C17_24 
ROOT
HETATM    1  C1  UNL     1      26.926   7.324   7.398  1.00  0.00     0.025 C 
HETATM    2  C2  UNL     1      26.949   6.026   7.635  1.00  0.00     0.017 C 
HETATM    3  C3  UNL     1      27.398   4.936   6.774  1.00  0.00     0.289 C 
HETATM    4  O1  UNL     1      27.984   5.086   5.670  1.00  0.00    -0.260 OA
HETATM    5  O2  UNL     1      27.057   3.719   7.398  1.00  0.00    -0.306 OA
HETATM    6  C4  UNL     1      26.001   4.059   8.313  1.00  0.00     0.078 C 
HETATM    7  C5  UNL     1      24.831   4.464   7.399  1.00  0.00     0.047 C 
HETATM    8  C6  UNL     1      25.606   2.980   9.208  1.00  0.00     0.044 C 
HETATM    9  C7  UNL     1      25.260   3.306  10.604  1.00  0.00    -0.007 C 
HETATM   10  C8  UNL     1      23.841   3.825  10.666  1.00  0.00     0.010 C 
HETATM   11  C9  UNL     1      26.141   4.239  11.331  1.00  0.00     0.046 C 
HETATM   12  C13 UNL     1      27.559   4.300  10.933  1.00  0.00     0.168 C 
HETATM   13  C16 UNL     1      27.697   5.246   9.758  1.00  0.00     0.173 C 
HETATM   14  C19 UNL     1      26.500   5.328   8.893  1.00  0.00     0.091 C 
ENDROOT
BRANCH  11  15
HETATM   15  C10 UNL     1      25.966   3.965  12.833  1.00  0.00     0.186 C 
BRANCH  15  16
HETATM   16  O3  UNL     1      25.857   5.183  13.547  1.00  0.00    -0.321 OA
BRANCH  16  17
HETATM   17  C11 UNL     1      24.714   5.921  13.422  1.00  0.00     0.254 C 
HETATM   18  C12 UNL     1      24.679   7.250  12.735  1.00  0.00     0.126 C 
HETATM   19  O4  UNL     1      23.630   5.478  13.901  1.00  0.00    -0.266 OA
ENDBRANCH  16  17
ENDBRANCH  15  16
ENDBRANCH  11  15
BRANCH  12  20
HETATM   20  O5  UNL     1      28.140   3.087  10.546  1.00  0.00    -0.313 OA
BRANCH  20  21
HETATM   21  C14 UNL     1      29.147   2.477  11.243  1.00  0.00     0.255 C 
HETATM   22  C15 UNL     1      28.934   1.145  11.897  1.00  0.00     0.126 C 
HETATM   23  O6  UNL     1      30.243   3.089  11.302  1.00  0.00    -0.266 OA
ENDBRANCH  20  21
ENDBRANCH  12  20
BRANCH  13  24
HETATM   24  O7  UNL     1      27.946   6.555  10.278  1.00  0.00    -0.313 OA
BRANCH  24  25
HETATM   25  C17 UNL     1      29.200   7.077  10.448  1.00  0.00     0.255 C 
HETATM   26  C18 UNL     1      30.083   6.746  11.602  1.00  0.00     0.126 C 
HETATM   27  O8  UNL     1      29.661   7.886   9.598  1.00  0.00    -0.266 OA
ENDBRANCH  24  25
ENDBRANCH  13  24
TORSDOF 7
ENDMDL
MODEL 3
REMARK VINA RESULT: -7.573418264      2.366      4.976
REMARK  7 active torsions:
REMARK  status: ('A' for Active; 'I' for Inactive)
REMARK    1  A    between atoms: C9_11  and  C10_12 
REMARK    2  A    between atoms: C10_12  and  O3_13 
REMARK    3  A    between atoms: O3_13  and  C11_14 
REMARK    4  A    between atoms: C13_17  and  O5_18 
REMARK    5  A    between atoms: O5_18  and  C14_19 
REMARK    6  A    between atoms: C16_22  and  O7_23 
REMARK    7  A    between atoms: O7_23  and  C17_24 
ROOT
HETATM    1  C1  UNL     1      21.417   3.413  10.903  1.00  0.00     0.025 C 
HETATM    2  C2  UNL     1      22.380   3.503  11.801  1.00  0.00     0.017 C 
HETATM    3  C3  UNL     1      22.513   2.823  13.086  1.00  0.00     0.289 C 
HETATM    4  O1  UNL     1      21.758   1.902  13.494  1.00  0.00    -0.260 OA
HETATM    5  O2  UNL     1      23.616   3.382  13.762  1.00  0.00    -0.306 OA
HETATM    6  C4  UNL     1      23.804   4.671  13.154  1.00  0.00     0.078 C 
HETATM    7  C5  UNL     1      22.550   5.464  13.564  1.00  0.00     0.047 C 
HETATM    8  C6  UNL     1      25.013   5.367  13.575  1.00  0.00     0.044 C 
HETATM    9  C7  UNL     1      25.768   6.146  12.576  1.00  0.00    -0.007 C 
HETATM   10  C8  UNL     1      25.108   7.492  12.379  1.00  0.00     0.010 C 
HETATM   11  C9  UNL     1      25.999   5.531  11.256  1.00  0.00     0.046 C 
HETATM   12  C13 UNL     1      26.059   4.059  11.182  1.00  0.00     0.168 C 
HETATM   13  C16 UNL     1      24.648   3.517  11.075  1.00  0.00     0.173 C 
HETATM   14  C19 UNL     1      23.617   4.359  11.718  1.00  0.00     0.091 C 
ENDROOT
BRANCH  11  15
HETATM   15  C10 UNL     1      27.241   6.198  10.645  1.00  0.00     0.186 C 
BRANCH  15  16
HETATM   16  O3  UNL     1      28.325   6.151  11.556  1.00  0.00    -0.321 OA
BRANCH  16  17
HETATM   17  C11 UNL     1      29.545   6.615  11.154  1.00  0.00     0.254 C 
HETATM   18  C12 UNL     1      30.834   6.015  11.623  1.00  0.00     0.126 C 
HETATM   19  O4  UNL     1      29.609   7.591  10.351  1.00  0.00    -0.266 OA
ENDBRANCH  16  17
ENDBRANCH  15  16
ENDBRANCH  11  15
BRANCH  12  20
HETATM   20  O5  UNL     1      26.657   3.414  12.270  1.00  0.00    -0.313 OA
BRANCH  20  21
HETATM   21  C14 UNL     1      27.794   2.659  12.166  1.00  0.00     0.255 C 
HETATM   22  C15 UNL     1      28.509   2.518  10.856  1.00  0.00     0.126 C 
HETATM   23  O6  UNL     1      28.196   2.099  13.217  1.00  0.00    -0.266 OA
ENDBRANCH  20  21
ENDBRANCH  12  20
BRANCH  13  24
HETATM   24  O7  UNL     1      24.323   3.420   9.684  1.00  0.00    -0.313 OA
BRANCH  24  25
HETATM   25  C17 UNL     1      24.592   2.319   8.918  1.00  0.00     0.255 C 
HETATM   26  C18 UNL     1      25.487   2.341   7.727  1.00  0.00     0.126 C 
HETATM   27  O8  UNL     1      24.069   1.209   9.211  1.00  0.00    -0.266 OA
ENDBRANCH  24  25
ENDBRANCH  13  24
TORSDOF 7
ENDMDL
MODEL 4
REMARK VINA RESULT: -7.495030805      2.147      3.315
REMARK  7 active torsions:
REMARK  status: ('A' for Active; 'I' for Inactive)
REMARK    1  A    between atoms: C9_11  and  C10_12 
REMARK    2  A    between atoms: C10_12  and  O3_13 
REMARK    3  A    between atoms: O3_13  and  C11_14 
REMARK    4  A    between atoms: C13_17  and  O5_18 
REMARK    5  A    between atoms: O5_18  and  C14_19 
REMARK    6  A    between atoms: C16_22  and  O7_23 
REMARK    7  A    between atoms: O7_23  and  C17_24 
ROOT
HETATM    1  C1  UNL     1      23.795   4.037   7.722  1.00  0.00     0.025 C 
HETATM    2  C2  UNL     1      24.401   3.520   8.774  1.00  0.00     0.017 C 
HETATM    3  C3  UNL     1      24.418   2.138   9.246  1.00  0.00     0.289 C 
HETATM    4  O1  UNL     1      23.943   1.157   8.616  1.00  0.00    -0.260 OA
HETATM    5  O2  UNL     1      25.049   2.117  10.506  1.00  0.00    -0.306 OA
HETATM    6  C4  UNL     1      24.939   3.464  10.995  1.00  0.00     0.078 C 
HETATM    7  C5  UNL     1      23.429   3.655  11.228  1.00  0.00     0.047 C 
HETATM    8  C6  UNL     1      25.685   3.726  12.219  1.00  0.00     0.044 C 
HETATM    9  C7  UNL     1      26.362   5.026  12.372  1.00  0.00    -0.007 C 
HETATM   10  C8  UNL     1      25.359   6.072  12.806  1.00  0.00     0.010 C 
HETATM   11  C9  UNL     1      27.123   5.545  11.221  1.00  0.00     0.046 C 
HETATM   12  C13 UNL     1      27.697   4.569  10.277  1.00  0.00     0.168 C 
HETATM   13  C16 UNL     1      26.635   4.181   9.269  1.00  0.00     0.173 C 
HETATM   14  C19 UNL     1      25.249   4.253   9.780  1.00  0.00     0.091 C 
ENDROOT
BRANCH  11  15
HETATM   15  C10 UNL     1      28.178   6.522  11.766  1.00  0.00     0.186 C 
BRANCH  15  16
HETATM   16  O3  UNL     1      28.807   7.213  10.701  1.00  0.00    -0.321 OA
BRANCH  16  17
HETATM   17  C11 UNL     1      30.136   7.511  10.801  1.00  0.00     0.254 C 
HETATM   18  C12 UNL     1      31.025   6.910  11.844  1.00  0.00     0.126 C 
HETATM   19  O4  UNL     1      30.655   8.327   9.985  1.00  0.00    -0.266 OA
ENDBRANCH  16  17
ENDBRANCH  15  16
ENDBRANCH  11  15
BRANCH  12  20
HETATM   20  O5  UNL     1      28.175   3.380  10.839  1.00  0.00    -0.313 OA
BRANCH  20  21
HETATM   21  C14 UNL     1      29.472   3.202  11.236  1.00  0.00     0.255 C 
HETATM   22  C15 UNL     1      29.884   1.976  11.994  1.00  0.00     0.126 C 
HETATM   23  O6  UNL     1      30.284   4.111  10.932  1.00  0.00    -0.266 OA
ENDBRANCH  20  21
ENDBRANCH  12  20
BRANCH  13  24
HETATM   24  O7  UNL     1      26.736   5.080   8.161  1.00  0.00    -0.313 OA
BRANCH  24  25
HETATM   25  C17 UNL     1      27.102   4.692   6.901  1.00  0.00     0.255 C 
HETATM   26  C18 UNL     1      27.663   5.623   5.881  1.00  0.00     0.126 C 
HETATM   27  O8  UNL     1      26.971   3.487   6.554  1.00  0.00    -0.266 OA
ENDBRANCH  24  25
ENDBRANCH  13  24
TORSDOF 7
ENDMDL
MODEL 5
REMARK VINA RESULT: -7.471497787      2.326      5.133
REMARK  7 active torsions:
REMARK  status: ('A' for Active; 'I' for Inactive)
REMARK    1  A    between atoms: C9_11  and  C10_12 
REMARK    2  A    between atoms: C10_12  and  O3_13 
REMARK    3  A    between atoms: O3_13  and  C11_14 
REMARK    4  A    between atoms: C13_17  and  O5_18 
REMARK    5  A    between atoms: O5_18  and  C14_19 
REMARK    6  A    between atoms: C16_22  and  O7_23 
REMARK    7  A    between atoms: O7_23  and  C17_24 
ROOT
HETATM    1  C1  UNL     1      21.516   3.436  10.881  1.00  0.00     0.025 C 
HETATM    2  C2  UNL     1      22.431   3.524  11.828  1.00  0.00     0.017 C 
HETATM    3  C3  UNL     1      22.490   2.852  13.123  1.00  0.00     0.289 C 
HETATM    4  O1  UNL     1      21.706   1.941  13.497  1.00  0.00    -0.260 OA
HETATM    5  O2  UNL     1      23.561   3.406  13.852  1.00  0.00    -0.306 OA
HETATM    6  C4  UNL     1      23.793   4.689  13.246  1.00  0.00     0.078 C 
HETATM    7  C5  UNL     1      22.526   5.497  13.583  1.00  0.00     0.047 C 
HETATM    8  C6  UNL     1      24.984   5.377  13.725  1.00  0.00     0.044 C 
HETATM    9  C7  UNL     1      25.798   6.142  12.761  1.00  0.00    -0.007 C 
HETATM   10  C8  UNL     1      25.161   7.493  12.521  1.00  0.00     0.010 C 
HETATM   11  C9  UNL     1      26.092   5.515  11.460  1.00  0.00     0.046 C 
HETATM   12  C13 UNL     1      26.142   4.042  11.400  1.00  0.00     0.168 C 
HETATM   13  C16 UNL     1      24.734   3.512  11.222  1.00  0.00     0.173 C 
HETATM   14  C19 UNL     1      23.678   4.368  11.804  1.00  0.00     0.091 C 
ENDROOT
BRANCH  11  15
HETATM   15  C10 UNL     1      27.371   6.166  10.910  1.00  0.00     0.186 C 
BRANCH  15  16
HETATM   16  O3  UNL     1      27.763   5.541   9.701  1.00  0.00    -0.321 OA
BRANCH  16  17
HETATM   17  C11 UNL     1      27.434   6.133   8.515  1.00  0.00     0.254 C 
HETATM   18  C12 UNL     1      26.207   5.768   7.740  1.00  0.00     0.126 C 
HETATM   19  O4  UNL     1      28.187   7.031   8.037  1.00  0.00    -0.266 OA
ENDBRANCH  16  17
ENDBRANCH  15  16
ENDBRANCH  11  15
BRANCH  12  20
HETATM   20  O5  UNL     1      26.677   3.400  12.522  1.00  0.00    -0.313 OA
BRANCH  20  21
HETATM   21  C14 UNL     1      27.763   2.570  12.469  1.00  0.00     0.255 C 
HETATM   22  C15 UNL     1      28.515   2.365  11.189  1.00  0.00     0.126 C 
HETATM   23  O6  UNL     1      28.089   1.999  13.540  1.00  0.00    -0.266 OA
ENDBRANCH  20  21
ENDBRANCH  12  20
BRANCH  13  24
HETATM   24  O7  UNL     1      24.482   3.407   9.817  1.00  0.00    -0.313 OA
BRANCH  24  25
HETATM   25  C17 UNL     1      24.566   2.234   9.117  1.00  0.00     0.255 C 
HETATM   26  C18 UNL     1      25.201   2.119   7.773  1.00  0.00     0.126 C 
HETATM   27  O8  UNL     1      24.091   1.175   9.610  1.00  0.00    -0.266 OA
ENDBRANCH  24  25
ENDBRANCH  13  24
TORSDOF 7
ENDMDL
