MODEL 1
REMARK VINA RESULT: -9.501009423      0.000      0.000
REMARK  10 active torsions:
REMARK  status: ('A' for Active; 'I' for Inactive)
REMARK    1  A    between atoms: O1_2  and  C2_3 
REMARK    2  A    between atoms: C4_5  and  O2_6 
REMARK    3  A    between atoms: O2_6  and  C5_7 
REMARK    4  A    between atoms: C5_7  and  C6_8 
REMARK    5  A    between atoms: C10_12  and  C11_13 
REMARK    6  A    between atoms: C14_16  and  N1_17 
REMARK    7  A    between atoms: C20_26  and  C21_27 
REMARK    8  A    between atoms: N2_30  and  O6_32 
REMARK    9  A    between atoms: C23_34  and  O7_35 
REMARK   10  A    between atoms: C24_37  and  O8_38 
ROOT
HETATM    1  C2  UNL     1       4.607 -39.099  -2.169  1.00  0.00     0.079 A 
HETATM    2  C3  UNL     1       5.880 -38.565  -2.117  1.00  0.00     0.074 A 
HETATM    3  C4  UNL     1       6.975 -39.240  -2.615  1.00  0.00     0.071 A 
HETATM    4  C18 UNL     1       6.745 -40.504  -3.185  1.00  0.00     0.037 A 
HETATM    5  C19 UNL     1       5.481 -41.012  -3.226  1.00  0.00     0.015 A 
HETATM    6  C20 UNL     1       4.394 -40.367  -2.742  1.00  0.00     0.007 A 
ENDROOT
BRANCH   3   7
HETATM    7  O2  UNL     1       8.268 -38.823  -2.622  1.00  0.00    -0.347 OA
BRANCH   7   8
HETATM    8  C5  UNL     1       9.135 -38.797  -3.691  1.00  0.00     0.214 C 
BRANCH   8   9
HETATM    9  C6  UNL     1       8.760 -37.685  -4.614  1.00  0.00    -0.033 A 
HETATM   10  C7  UNL     1       9.758 -36.858  -5.067  1.00  0.00     0.009 A 
HETATM   11  C8  UNL     1       9.450 -35.810  -5.905  1.00  0.00     0.002 A 
HETATM   12  C9  UNL     1       8.154 -35.575  -6.299  1.00  0.00     0.012 A 
HETATM   13  C10 UNL     1       7.120 -36.404  -5.851  1.00  0.00    -0.025 A 
HETATM   14  C17 UNL     1       7.472 -37.435  -5.017  1.00  0.00     0.021 A 
BRANCH  13  15
HETATM   15  C11 UNL     1       5.754 -36.105  -6.259  1.00  0.00    -0.023 A 
HETATM   16  C12 UNL     1       4.697 -36.805  -5.724  1.00  0.00     0.015 A 
HETATM   17  C13 UNL     1       3.387 -36.550  -6.061  1.00  0.00     0.040 A 
HETATM   18  C14 UNL     1       3.108 -35.562  -6.963  1.00  0.00     0.141 A 
HETATM   19  C15 UNL     1       4.166 -34.852  -7.509  1.00  0.00     0.150 A 
HETATM   20  F1  UNL     1       3.892 -33.872  -8.393  1.00  0.00    -0.203 F 
HETATM   21  C16 UNL     1       5.478 -35.103  -7.175  1.00  0.00     0.057 A 
BRANCH  18  22
HETATM   22  N1  UNL     1       1.764 -35.283  -7.315  1.00  0.00    -0.113 N 
HETATM   23  O3  UNL     1       0.874 -35.459  -6.448  1.00  0.00    -0.532 OA
HETATM   24  O4  UNL     1       1.447 -34.836  -8.571  1.00  0.00    -0.532 OA
ENDBRANCH  18  22
ENDBRANCH  13  15
ENDBRANCH   8   9
ENDBRANCH   7   8
ENDBRANCH   3   7
BRANCH   1  25
HETATM   25  O1  UNL     1       3.544 -38.390  -1.659  1.00  0.00    -0.355 OA
HETATM   26  C1  UNL     1       3.195 -37.094  -2.043  1.00  0.00     0.210 C 
ENDBRANCH   1  25
BRANCH   6  27
HETATM   27  C21 UNL     1       3.001 -40.865  -2.722  1.00  0.00     0.198 C 
HETATM   28  O5  UNL     1       2.248 -40.096  -3.628  1.00  0.00    -0.323 OA
HETATM   29  C22 UNL     1       1.866 -40.841  -4.743  1.00  0.00     0.170 C 
HETATM   30  N2  UNL     1       1.016 -40.530  -5.639  1.00  0.00    -0.249 N 
HETATM   31  C23 UNL     1       2.667 -42.118  -4.690  1.00  0.00     0.226 C 
ATOM     32  H2  UNL     1       0.814 -41.158  -6.417  1.00  0.00     0.196 HD
HETATM   33  C24 UNL     1       2.815 -42.267  -3.178  1.00  0.00     0.189 C 
BRANCH  30  34
HETATM   34  O6  UNL     1       0.372 -39.304  -5.517  1.00  0.00    -0.288 OA
ATOM     35  H6  UNL     1       0.203 -38.816  -6.314  1.00  0.00     0.244 HD
ENDBRANCH  30  34
BRANCH  31  36
HETATM   36  O7  UNL     1       1.955 -43.141  -5.260  1.00  0.00    -0.385 OA
ATOM     37  H7  UNL     1       1.813 -42.963  -6.182  1.00  0.00     0.210 HD
ENDBRANCH  31  36
BRANCH  33  38
HETATM   38  O8  UNL     1       1.608 -42.764  -2.688  1.00  0.00    -0.390 OA
ATOM     39  H8  UNL     1       1.447 -43.628  -3.051  1.00  0.00     0.210 HD
ENDBRANCH  33  38
ENDBRANCH   6  27
TORSDOF 10
ENDMDL
MODEL 2
REMARK VINA RESULT: -9.435756264      0.900      1.191
REMARK  10 active torsions:
REMARK  status: ('A' for Active; 'I' for Inactive)
REMARK    1  A    between atoms: O1_2  and  C2_3 
REMARK    2  A    between atoms: C4_5  and  O2_6 
REMARK    3  A    between atoms: O2_6  and  C5_7 
REMARK    4  A    between atoms: C5_7  and  C6_8 
REMARK    5  A    between atoms: C10_12  and  C11_13 
REMARK    6  A    between atoms: C14_16  and  N1_17 
REMARK    7  A    between atoms: C20_26  and  C21_27 
REMARK    8  A    between atoms: N2_30  and  O6_32 
REMARK    9  A    between atoms: C23_34  and  O7_35 
REMARK   10  A    between atoms: C24_37  and  O8_38 
ROOT
HETATM    1  C2  UNL     1       4.317 -39.138  -2.253  1.00  0.00     0.079 A 
HETATM    2  C3  UNL     1       5.549 -38.515  -2.271  1.00  0.00     0.074 A 
HETATM    3  C4  UNL     1       6.645 -39.083  -2.886  1.00  0.00     0.071 A 
HETATM    4  C18 UNL     1       6.459 -40.332  -3.503  1.00  0.00     0.037 A 
HETATM    5  C19 UNL     1       5.235 -40.930  -3.474  1.00  0.00     0.015 A 
HETATM    6  C20 UNL     1       4.147 -40.390  -2.875  1.00  0.00     0.007 A 
ENDROOT
BRANCH   3   7
HETATM    7  O2  UNL     1       7.902 -38.572  -2.970  1.00  0.00    -0.347 OA
BRANCH   7   8
HETATM    8  C5  UNL     1       8.755 -38.618  -4.048  1.00  0.00     0.214 C 
BRANCH   8   9
HETATM    9  C6  UNL     1       8.512 -37.439  -4.931  1.00  0.00    -0.033 A 
HETATM   10  C7  UNL     1       9.595 -36.693  -5.324  1.00  0.00     0.009 A 
HETATM   11  C8  UNL     1       9.410 -35.587  -6.124  1.00  0.00     0.002 A 
HETATM   12  C9  UNL     1       8.153 -35.215  -6.538  1.00  0.00     0.012 A 
HETATM   13  C10 UNL     1       7.034 -35.960  -6.151  1.00  0.00    -0.025 A 
HETATM   14  C17 UNL     1       7.264 -37.053  -5.355  1.00  0.00     0.021 A 
BRANCH  13  15
HETATM   15  C11 UNL     1       5.714 -35.518  -6.580  1.00  0.00    -0.023 A 
HETATM   16  C12 UNL     1       5.518 -34.227  -7.014  1.00  0.00     0.015 A 
HETATM   17  C13 UNL     1       4.295 -33.764  -7.448  1.00  0.00     0.040 A 
HETATM   18  C14 UNL     1       3.223 -34.611  -7.454  1.00  0.00     0.141 A 
HETATM   19  C15 UNL     1       3.410 -35.913  -7.017  1.00  0.00     0.150 A 
HETATM   20  F1  UNL     1       2.355 -36.751  -7.029  1.00  0.00    -0.203 F 
HETATM   21  C16 UNL     1       4.630 -36.380  -6.582  1.00  0.00     0.057 A 
BRANCH  18  22
HETATM   22  N1  UNL     1       1.960 -34.150  -7.903  1.00  0.00    -0.113 N 
HETATM   23  O3  UNL     1       1.314 -33.371  -7.161  1.00  0.00    -0.532 OA
HETATM   24  O4  UNL     1       1.459 -34.550  -9.115  1.00  0.00    -0.532 OA
ENDBRANCH  18  22
ENDBRANCH  13  15
ENDBRANCH   8   9
ENDBRANCH   7   8
ENDBRANCH   3   7
BRANCH   1  25
HETATM   25  O1  UNL     1       3.250 -38.535  -1.626  1.00  0.00    -0.355 OA
HETATM   26  C1  UNL     1       2.687 -37.317  -2.013  1.00  0.00     0.210 C 
ENDBRANCH   1  25
BRANCH   6  27
HETATM   27  C21 UNL     1       2.798 -40.990  -2.774  1.00  0.00     0.198 C 
HETATM   28  O5  UNL     1       1.926 -40.244  -3.589  1.00  0.00    -0.323 OA
HETATM   29  C22 UNL     1       1.514 -40.972  -4.704  1.00  0.00     0.170 C 
HETATM   30  N2  UNL     1       0.578 -40.691  -5.521  1.00  0.00    -0.249 N 
HETATM   31  C23 UNL     1       2.406 -42.187  -4.766  1.00  0.00     0.226 C 
ATOM     32  H2  UNL     1       0.363 -41.302  -6.309  1.00  0.00     0.196 HD
HETATM   33  C24 UNL     1       2.678 -42.383  -3.276  1.00  0.00     0.189 C 
BRANCH  30  34
HETATM   34  O6  UNL     1      -0.139 -39.521  -5.299  1.00  0.00    -0.288 OA
ATOM     35  H6  UNL     1      -0.197 -38.899  -6.015  1.00  0.00     0.244 HD
ENDBRANCH  30  34
BRANCH  31  36
HETATM   36  O7  UNL     1       1.726 -43.238  -5.327  1.00  0.00    -0.385 OA
ATOM     37  H7  UNL     1       1.272 -43.728  -4.651  1.00  0.00     0.210 HD
ENDBRANCH  31  36
BRANCH  33  38
HETATM   38  O8  UNL     1       1.550 -42.987  -2.722  1.00  0.00    -0.390 OA
ATOM     39  H8  UNL     1       0.765 -42.611  -3.104  1.00  0.00     0.210 HD
ENDBRANCH  33  38
ENDBRANCH   6  27
TORSDOF 10
ENDMDL
MODEL 3
REMARK VINA RESULT: -9.421127731      1.500      1.956
REMARK  10 active torsions:
REMARK  status: ('A' for Active; 'I' for Inactive)
REMARK    1  A    between atoms: O1_2  and  C2_3 
REMARK    2  A    between atoms: C4_5  and  O2_6 
REMARK    3  A    between atoms: O2_6  and  C5_7 
REMARK    4  A    between atoms: C5_7  and  C6_8 
REMARK    5  A    between atoms: C10_12  and  C11_13 
REMARK    6  A    between atoms: C14_16  and  N1_17 
REMARK    7  A    between atoms: C20_26  and  C21_27 
REMARK    8  A    between atoms: N2_30  and  O6_32 
REMARK    9  A    between atoms: C23_34  and  O7_35 
REMARK   10  A    between atoms: C24_37  and  O8_38 
ROOT
HETATM    1  C2  UNL     1       4.915 -40.549  -1.939  1.00  0.00     0.079 A 
HETATM    2  C3  UNL     1       6.292 -40.451  -1.949  1.00  0.00     0.074 A 
HETATM    3  C4  UNL     1       7.022 -40.552  -3.116  1.00  0.00     0.071 A 
HETATM    4  C18 UNL     1       6.303 -40.758  -4.307  1.00  0.00     0.037 A 
HETATM    5  C19 UNL     1       4.944 -40.851  -4.273  1.00  0.00     0.015 A 
HETATM    6  C20 UNL     1       4.210 -40.756  -3.139  1.00  0.00     0.007 A 
ENDROOT
BRANCH   3   7
HETATM    7  O2  UNL     1       8.371 -40.474  -3.255  1.00  0.00    -0.347 OA
BRANCH   7   8
HETATM    8  C5  UNL     1       9.169 -39.366  -3.084  1.00  0.00     0.214 C 
BRANCH   8   9
HETATM    9  C6  UNL     1       8.761 -38.300  -4.046  1.00  0.00    -0.033 A 
HETATM   10  C7  UNL     1       9.751 -37.596  -4.686  1.00  0.00     0.009 A 
HETATM   11  C8  UNL     1       9.415 -36.592  -5.567  1.00  0.00     0.002 A 
HETATM   12  C9  UNL     1       8.100 -36.280  -5.818  1.00  0.00     0.012 A 
HETATM   13  C10 UNL     1       7.074 -36.984  -5.179  1.00  0.00    -0.025 A 
HETATM   14  C17 UNL     1       7.453 -37.976  -4.309  1.00  0.00     0.021 A 
BRANCH  13  15
HETATM   15  C11 UNL     1       5.693 -36.605  -5.442  1.00  0.00    -0.023 A 
HETATM   16  C12 UNL     1       4.779 -36.540  -4.415  1.00  0.00     0.015 A 
HETATM   17  C13 UNL     1       3.467 -36.168  -4.606  1.00  0.00     0.040 A 
HETATM   18  C14 UNL     1       3.039 -35.847  -5.863  1.00  0.00     0.141 A 
HETATM   19  C15 UNL     1       3.951 -35.912  -6.905  1.00  0.00     0.150 A 
HETATM   20  F1  UNL     1       3.532 -35.589  -8.145  1.00  0.00    -0.203 F 
HETATM   21  C16 UNL     1       5.264 -36.282  -6.719  1.00  0.00     0.057 A 
BRANCH  18  22
HETATM   22  N1  UNL     1       1.693 -35.457  -6.075  1.00  0.00    -0.113 N 
HETATM   23  O3  UNL     1       0.786 -36.280  -5.799  1.00  0.00    -0.532 OA
HETATM   24  O4  UNL     1       1.393 -34.215  -6.569  1.00  0.00    -0.532 OA
ENDBRANCH  18  22
ENDBRANCH  13  15
ENDBRANCH   8   9
ENDBRANCH   7   8
ENDBRANCH   3   7
BRANCH   1  25
HETATM   25  O1  UNL     1       4.228 -40.443  -0.751  1.00  0.00    -0.355 OA
HETATM   26  C1  UNL     1       4.524 -41.169   0.405  1.00  0.00     0.210 C 
ENDBRANCH   1  25
BRANCH   6  27
HETATM   27  C21 UNL     1       2.740 -40.878  -3.019  1.00  0.00     0.198 C 
HETATM   28  O5  UNL     1       2.242 -39.671  -2.493  1.00  0.00    -0.323 OA
HETATM   29  C22 UNL     1       1.507 -38.961  -3.439  1.00  0.00     0.170 C 
HETATM   30  N2  UNL     1       0.751 -37.954  -3.249  1.00  0.00    -0.249 N 
HETATM   31  C23 UNL     1       1.780 -39.622  -4.768  1.00  0.00     0.226 C 
ATOM     32  H2  UNL     1       0.257 -37.509  -4.023  1.00  0.00     0.196 HD
HETATM   33  C24 UNL     1       2.006 -41.058  -4.298  1.00  0.00     0.189 C 
BRANCH  30  34
HETATM   34  O6  UNL     1       0.622 -37.483  -1.948  1.00  0.00    -0.288 OA
ATOM     35  H6  UNL     1       1.353 -37.000  -1.582  1.00  0.00     0.244 HD
ENDBRANCH  30  34
BRANCH  31  36
HETATM   36  O7  UNL     1       0.687 -39.495  -5.587  1.00  0.00    -0.385 OA
ATOM     37  H7  UNL     1       0.961 -39.513  -6.497  1.00  0.00     0.210 HD
ENDBRANCH  31  36
BRANCH  33  38
HETATM   38  O8  UNL     1       0.753 -41.616  -4.047  1.00  0.00    -0.390 OA
ATOM     39  H8  UNL     1       0.095 -41.180  -4.577  1.00  0.00     0.210 HD
ENDBRANCH  33  38
ENDBRANCH   6  27
TORSDOF 10
ENDMDL
MODEL 4
REMARK VINA RESULT: -9.391775368      3.445      8.018
REMARK  10 active torsions:
REMARK  status: ('A' for Active; 'I' for Inactive)
REMARK    1  A    between atoms: O1_2  and  C2_3 
REMARK    2  A    between atoms: C4_5  and  O2_6 
REMARK    3  A    between atoms: O2_6  and  C5_7 
REMARK    4  A    between atoms: C5_7  and  C6_8 
REMARK    5  A    between atoms: C10_12  and  C11_13 
REMARK    6  A    between atoms: C14_16  and  N1_17 
REMARK    7  A    between atoms: C20_26  and  C21_27 
REMARK    8  A    between atoms: N2_30  and  O6_32 
REMARK    9  A    between atoms: C23_34  and  O7_35 
REMARK   10  A    between atoms: C24_37  and  O8_38 
ROOT
HETATM    1  C2  UNL     1       5.004 -36.296  -5.924  1.00  0.00     0.079 A 
HETATM    2  C3  UNL     1       4.918 -37.325  -5.008  1.00  0.00     0.074 A 
HETATM    3  C4  UNL     1       3.712 -37.908  -4.676  1.00  0.00     0.071 A 
HETATM    4  C18 UNL     1       2.562 -37.410  -5.313  1.00  0.00     0.037 A 
HETATM    5  C19 UNL     1       2.670 -36.394  -6.214  1.00  0.00     0.015 A 
HETATM    6  C20 UNL     1       3.843 -35.808  -6.552  1.00  0.00     0.007 A 
ENDROOT
BRANCH   3   7
HETATM    7  O2  UNL     1       3.499 -38.920  -3.795  1.00  0.00    -0.347 OA
BRANCH   7   8
HETATM    8  C5  UNL     1       3.570 -40.272  -4.039  1.00  0.00     0.214 C 
BRANCH   8   9
HETATM    9  C6  UNL     1       4.705 -40.863  -3.269  1.00  0.00    -0.033 A 
HETATM   10  C7  UNL     1       4.422 -41.851  -2.359  1.00  0.00     0.009 A 
HETATM   11  C8  UNL     1       5.439 -42.409  -1.617  1.00  0.00     0.002 A 
HETATM   12  C9  UNL     1       6.740 -41.990  -1.771  1.00  0.00     0.012 A 
HETATM   13  C10 UNL     1       7.052 -40.984  -2.691  1.00  0.00    -0.025 A 
HETATM   14  C17 UNL     1       6.009 -40.458  -3.409  1.00  0.00     0.021 A 
BRANCH  13  15
HETATM   15  C11 UNL     1       8.435 -40.541  -2.804  1.00  0.00    -0.023 A 
HETATM   16  C12 UNL     1       9.462 -41.334  -2.346  1.00  0.00     0.015 A 
HETATM   17  C13 UNL     1      10.787 -40.971  -2.446  1.00  0.00     0.040 A 
HETATM   18  C14 UNL     1      11.111 -39.775  -3.021  1.00  0.00     0.141 A 
HETATM   19  C15 UNL     1      10.084 -38.968  -3.484  1.00  0.00     0.150 A 
HETATM   20  F1  UNL     1      10.403 -37.791  -4.059  1.00  0.00    -0.203 F 
HETATM   21  C16 UNL     1       8.758 -39.326  -3.387  1.00  0.00     0.057 A 
BRANCH  18  22
HETATM   22  N1  UNL     1      12.470 -39.390  -3.137  1.00  0.00    -0.113 N 
HETATM   23  O3  UNL     1      13.285 -40.222  -3.606  1.00  0.00    -0.532 OA
HETATM   24  O4  UNL     1      12.881 -38.143  -2.744  1.00  0.00    -0.532 OA
ENDBRANCH  18  22
ENDBRANCH  13  15
ENDBRANCH   8   9
ENDBRANCH   7   8
ENDBRANCH   3   7
BRANCH   1  25
HETATM   25  O1  UNL     1       6.229 -35.744  -6.224  1.00  0.00    -0.355 OA
HETATM   26  C1  UNL     1       7.445 -36.428  -6.162  1.00  0.00     0.210 C 
ENDBRANCH   1  25
BRANCH   6  27
HETATM   27  C21 UNL     1       4.036 -34.683  -7.494  1.00  0.00     0.198 C 
HETATM   28  O5  UNL     1       4.452 -35.213  -8.730  1.00  0.00    -0.323 OA
HETATM   29  C22 UNL     1       3.468 -35.080  -9.706  1.00  0.00     0.170 C 
HETATM   30  N2  UNL     1       3.582 -35.252 -10.963  1.00  0.00    -0.249 N 
HETATM   31  C23 UNL     1       2.206 -34.682  -8.981  1.00  0.00     0.226 C 
ATOM     32  H2  UNL     1       2.786 -35.126 -11.589  1.00  0.00     0.196 HD
HETATM   33  C24 UNL     1       2.814 -33.902  -7.817  1.00  0.00     0.189 C 
BRANCH  30  34
HETATM   34  O6  UNL     1       4.831 -35.619 -11.451  1.00  0.00    -0.288 OA
ATOM     35  H6  UNL     1       5.132 -35.199 -12.247  1.00  0.00     0.244 HD
ENDBRANCH  30  34
BRANCH  31  36
HETATM   36  O7  UNL     1       1.424 -33.904  -9.794  1.00  0.00    -0.385 OA
ATOM     37  H7  UNL     1       1.632 -34.075 -10.705  1.00  0.00     0.210 HD
ENDBRANCH  31  36
BRANCH  33  38
HETATM   38  O8  UNL     1       3.174 -32.645  -8.302  1.00  0.00    -0.390 OA
ATOM     39  H8  UNL     1       2.637 -32.425  -9.055  1.00  0.00     0.210 HD
ENDBRANCH  33  38
ENDBRANCH   6  27
TORSDOF 10
ENDMDL
MODEL 5
REMARK VINA RESULT: -9.388065832      1.893      2.780
REMARK  10 active torsions:
REMARK  status: ('A' for Active; 'I' for Inactive)
REMARK    1  A    between atoms: O1_2  and  C2_3 
REMARK    2  A    between atoms: C4_5  and  O2_6 
REMARK    3  A    between atoms: O2_6  and  C5_7 
REMARK    4  A    between atoms: C5_7  and  C6_8 
REMARK    5  A    between atoms: C10_12  and  C11_13 
REMARK    6  A    between atoms: C14_16  and  N1_17 
REMARK    7  A    between atoms: C20_26  and  C21_27 
REMARK    8  A    between atoms: N2_30  and  O6_32 
REMARK    9  A    between atoms: C23_34  and  O7_35 
REMARK   10  A    between atoms: C24_37  and  O8_38 
ROOT
HETATM    1  C2  UNL     1       4.633 -41.059  -2.390  1.00  0.00     0.079 A 
HETATM    2  C3  UNL     1       5.933 -40.631  -2.575  1.00  0.00     0.074 A 
HETATM    3  C4  UNL     1       6.283 -39.300  -2.481  1.00  0.00     0.071 A 
HETATM    4  C18 UNL     1       5.257 -38.386  -2.185  1.00  0.00     0.037 A 
HETATM    5  C19 UNL     1       3.981 -38.830  -2.007  1.00  0.00     0.015 A 
HETATM    6  C20 UNL     1       3.617 -40.131  -2.096  1.00  0.00     0.007 A 
ENDROOT
BRANCH   3   7
HETATM    7  O2  UNL     1       7.519 -38.758  -2.641  1.00  0.00    -0.347 OA
BRANCH   7   8
HETATM    8  C5  UNL     1       8.385 -38.941  -3.694  1.00  0.00     0.214 C 
BRANCH   8   9
HETATM    9  C6  UNL     1       8.305 -37.772  -4.619  1.00  0.00    -0.033 A 
HETATM   10  C7  UNL     1       9.465 -37.096  -4.906  1.00  0.00     0.009 A 
HETATM   11  C8  UNL     1       9.430 -36.001  -5.740  1.00  0.00     0.002 A 
HETATM   12  C9  UNL     1       8.247 -35.569  -6.293  1.00  0.00     0.012 A 
HETATM   13  C10 UNL     1       7.053 -36.242  -6.015  1.00  0.00    -0.025 A 
HETATM   14  C17 UNL     1       7.134 -37.327  -5.180  1.00  0.00     0.021 A 
BRANCH  13  15
HETATM   15  C11 UNL     1       5.813 -35.737  -6.589  1.00  0.00    -0.023 A 
HETATM   16  C12 UNL     1       5.780 -34.507  -7.206  1.00  0.00     0.015 A 
HETATM   17  C13 UNL     1       4.640 -33.992  -7.782  1.00  0.00     0.040 A 
HETATM   18  C14 UNL     1       3.485 -34.721  -7.748  1.00  0.00     0.141 A 
HETATM   19  C15 UNL     1       3.507 -35.960  -7.127  1.00  0.00     0.150 A 
HETATM   20  F1  UNL     1       2.370 -36.683  -7.098  1.00  0.00    -0.203 F 
HETATM   21  C16 UNL     1       4.644 -36.480  -6.550  1.00  0.00     0.057 A 
BRANCH  18  22
HETATM   22  N1  UNL     1       2.305 -34.207  -8.341  1.00  0.00    -0.113 N 
HETATM   23  O3  UNL     1       1.650 -33.345  -7.708  1.00  0.00    -0.532 OA
HETATM   24  O4  UNL     1       1.893 -34.643  -9.573  1.00  0.00    -0.532 OA
ENDBRANCH  18  22
ENDBRANCH  13  15
ENDBRANCH   8   9
ENDBRANCH   7   8
ENDBRANCH   3   7
BRANCH   1  25
HETATM   25  O1  UNL     1       4.330 -42.398  -2.495  1.00  0.00    -0.355 OA
HETATM   26  C1  UNL     1       4.859 -43.398  -1.677  1.00  0.00     0.210 C 
ENDBRANCH   1  25
BRANCH   6  27
HETATM   27  C21 UNL     1       2.252 -40.684  -1.948  1.00  0.00     0.198 C 
HETATM   28  O5  UNL     1       1.569 -39.911  -0.991  1.00  0.00    -0.323 OA
HETATM   29  C22 UNL     1       0.553 -39.153  -1.569  1.00  0.00     0.170 C 
HETATM   30  N2  UNL     1      -0.382 -38.518  -0.983  1.00  0.00    -0.249 N 
HETATM   31  C23 UNL     1       0.772 -39.226  -3.060  1.00  0.00     0.226 C 
ATOM     32  H2  UNL     1      -1.077 -37.991  -1.512  1.00  0.00     0.196 HD
HETATM   33  C24 UNL     1       1.398 -40.615  -3.161  1.00  0.00     0.189 C 
BRANCH  30  34
HETATM   34  O6  UNL     1      -0.421 -38.568   0.406  1.00  0.00    -0.288 OA
ATOM     35  H6  UNL     1      -0.737 -39.368   0.807  1.00  0.00     0.244 HD
ENDBRANCH  30  34
BRANCH  31  36
HETATM   36  O7  UNL     1      -0.430 -39.133  -3.714  1.00  0.00    -0.385 OA
ATOM     37  H7  UNL     1      -1.050 -38.643  -3.186  1.00  0.00     0.210 HD
ENDBRANCH  31  36
BRANCH  33  38
HETATM   38  O8  UNL     1       0.364 -41.546  -3.062  1.00  0.00    -0.390 OA
ATOM     39  H8  UNL     1       0.690 -42.412  -3.280  1.00  0.00     0.210 HD
ENDBRANCH  33  38
ENDBRANCH   6  27
TORSDOF 10
ENDMDL
