MODEL 1
REMARK VINA RESULT: -8.514519383      0.000      0.000
REMARK  10 active torsions:
REMARK  status: ('A' for Active; 'I' for Inactive)
REMARK    1  A    between atoms: C2_2  and  C3_3 
REMARK    2  A    between atoms: C3_3  and  O1_4 
REMARK    3  A    between atoms: C5_8  and  O3_9 
REMARK    4  A    between atoms: O3_9  and  C6_10 
REMARK    5  A    between atoms: C6_10  and  C7_11 
REMARK    6  A    between atoms: C9_13  and  O4_14 
REMARK    7  A    between atoms: C10_16  and  O5_17 
REMARK    8  A    between atoms: C12_21  and  O6_22 
REMARK    9  A    between atoms: O6_22  and  C13_23 
REMARK   10  A    between atoms: C13_23  and  C14_24 
ROOT
HETATM    1  C7  UNL     1       5.409 -35.341  -7.745  1.00  0.00     0.024 A 
HETATM    2  C8  UNL     1       5.593 -35.662  -9.057  1.00  0.00     0.055 A 
HETATM    3  C9  UNL     1       4.572 -35.497  -9.984  1.00  0.00     0.101 A 
HETATM    4  C10 UNL     1       3.362 -35.000  -9.554  1.00  0.00     0.123 A 
HETATM    5  C11 UNL     1       3.158 -34.674  -8.245  1.00  0.00     0.104 A 
HETATM    6 CL1  UNL     1       1.590 -34.035  -7.719  1.00  0.00    -0.078 Cl
HETATM    7  C12 UNL     1       4.177 -34.841  -7.321  1.00  0.00     0.105 A 
ENDROOT
BRANCH   7   8
HETATM    8  O6  UNL     1       3.902 -34.507  -6.036  1.00  0.00    -0.346 OA
BRANCH   8   9
HETATM    9  C13 UNL     1       3.308 -35.080  -4.964  1.00  0.00     0.209 C 
BRANCH   9  10
HETATM   10  C14 UNL     1       3.993 -36.123  -4.175  1.00  0.00     0.169 C 
HETATM   11  C15 UNL     1       3.542 -37.493  -4.655  1.00  0.00     0.203 C 
HETATM   12  O7  UNL     1       3.509 -38.338  -3.555  1.00  0.00    -0.378 OA
HETATM   13  C16 UNL     1       2.254 -38.444  -2.990  1.00  0.00     0.063 C 
HETATM   14  C17 UNL     1       1.419 -39.357  -3.859  1.00  0.00     0.038 C 
HETATM   15  C21 UNL     1       2.419 -39.136  -1.649  1.00  0.00     0.038 C 
HETATM   16  C22 UNL     1       1.536 -37.136  -2.868  1.00  0.00     0.064 C 
HETATM   17  C18 UNL     1       0.030 -39.450  -3.261  1.00  0.00     0.003 C 
HETATM   18  C19 UNL     1       0.142 -40.138  -1.938  1.00  0.00     0.000 C 
HETATM   19  C20 UNL     1       1.107 -39.454  -1.002  1.00  0.00     0.003 C 
HETATM   20  C23 UNL     1       2.414 -35.994  -2.453  1.00  0.00     0.171 C 
HETATM   21  O8  UNL     1       3.715 -36.067  -2.813  1.00  0.00    -0.381 OA
ENDBRANCH   9  10
ENDBRANCH   8   9
ENDBRANCH   7   8
BRANCH   1  22
HETATM   22  C6  UNL     1       6.512 -35.479  -6.775  1.00  0.00     0.149 C 
BRANCH  22  23
HETATM   23  O3  UNL     1       7.055 -36.651  -6.472  1.00  0.00    -0.353 OA
BRANCH  23  24
HETATM   24  C5  UNL     1       7.403 -37.009  -5.206  1.00  0.00     0.175 C 
HETATM   25  C4  UNL     1       8.894 -37.144  -5.058  1.00  0.00     0.206 C 
HETATM   26  O2  UNL     1       9.147 -37.468  -3.698  1.00  0.00    -0.351 OA
HETATM   27  C2  UNL     1       8.534 -38.706  -3.447  1.00  0.00     0.181 C 
HETATM   28  C1  UNL     1       9.681 -39.630  -2.977  1.00  0.00     0.081 C 
HETATM   29  O9  UNL     1       7.955 -39.230  -4.573  1.00  0.00    -0.351 OA
HETATM   30  C24 UNL     1       6.893 -38.490  -5.008  1.00  0.00     0.206 C 
BRANCH  27  31
HETATM   31  C3  UNL     1       7.548 -38.645  -2.320  1.00  0.00     0.232 C 
BRANCH  31  32
HETATM   32  O1  UNL     1       8.110 -39.264  -1.203  1.00  0.00    -0.396 OA
ATOM     33  H1  UNL     1       8.907 -38.802  -0.969  1.00  0.00     0.209 HD
ENDBRANCH  31  32
ENDBRANCH  27  31
ENDBRANCH  23  24
ENDBRANCH  22  23
ENDBRANCH   1  22
BRANCH   4  34
HETATM   34  O5  UNL     1       2.327 -34.830 -10.490  1.00  0.00    -0.356 OA
ATOM     35  H5  UNL     1       2.551 -34.657 -11.396  1.00  0.00     0.218 HD
ENDBRANCH   4  34
BRANCH   3  36
HETATM   36  O4  UNL     1       4.712 -35.808 -11.330  1.00  0.00    -0.358 OA
ATOM     37  H4  UNL     1       4.385 -36.614 -11.713  1.00  0.00     0.217 HD
ENDBRANCH   3  36
TORSDOF 10
ENDMDL
MODEL 2
REMARK VINA RESULT: -8.446538002      0.957      1.511
REMARK  10 active torsions:
REMARK  status: ('A' for Active; 'I' for Inactive)
REMARK    1  A    between atoms: C2_2  and  C3_3 
REMARK    2  A    between atoms: C3_3  and  O1_4 
REMARK    3  A    between atoms: C5_8  and  O3_9 
REMARK    4  A    between atoms: O3_9  and  C6_10 
REMARK    5  A    between atoms: C6_10  and  C7_11 
REMARK    6  A    between atoms: C9_13  and  O4_14 
REMARK    7  A    between atoms: C10_16  and  O5_17 
REMARK    8  A    between atoms: C12_21  and  O6_22 
REMARK    9  A    between atoms: O6_22  and  C13_23 
REMARK   10  A    between atoms: C13_23  and  C14_24 
ROOT
HETATM    1  C7  UNL     1       5.399 -35.335  -7.810  1.00  0.00     0.024 A 
HETATM    2  C8  UNL     1       5.574 -35.624  -9.131  1.00  0.00     0.055 A 
HETATM    3  C9  UNL     1       4.537 -35.467 -10.042  1.00  0.00     0.101 A 
HETATM    4  C10 UNL     1       3.320 -35.011  -9.586  1.00  0.00     0.123 A 
HETATM    5  C11 UNL     1       3.124 -34.719  -8.268  1.00  0.00     0.104 A 
HETATM    6 CL1  UNL     1       1.547 -34.134  -7.709  1.00  0.00    -0.078 Cl
HETATM    7  C12 UNL     1       4.159 -34.878  -7.361  1.00  0.00     0.105 A 
ENDROOT
BRANCH   7   8
HETATM    8  O6  UNL     1       3.892 -34.578  -6.065  1.00  0.00    -0.346 OA
BRANCH   8   9
HETATM    9  C13 UNL     1       3.646 -35.252  -4.919  1.00  0.00     0.209 C 
BRANCH   9  10
HETATM   10  C14 UNL     1       2.266 -35.529  -4.473  1.00  0.00     0.169 C 
HETATM   11  C15 UNL     1       2.292 -36.025  -3.037  1.00  0.00     0.203 C 
HETATM   12  O7  UNL     1       1.275 -36.956  -2.891  1.00  0.00    -0.378 OA
HETATM   13  C16 UNL     1       1.706 -38.259  -3.043  1.00  0.00     0.063 C 
HETATM   14  C17 UNL     1       2.419 -38.673  -1.776  1.00  0.00     0.038 C 
HETATM   15  C21 UNL     1       0.471 -39.133  -3.162  1.00  0.00     0.038 C 
HETATM   16  C22 UNL     1       2.650 -38.451  -4.190  1.00  0.00     0.064 C 
HETATM   17  C18 UNL     1       2.924 -40.090  -1.949  1.00  0.00     0.003 C 
HETATM   18  C19 UNL     1       1.737 -40.993  -2.061  1.00  0.00     0.000 C 
HETATM   19  C20 UNL     1       0.800 -40.594  -3.174  1.00  0.00     0.003 C 
HETATM   20  C23 UNL     1       2.287 -37.670  -5.416  1.00  0.00     0.171 C 
HETATM   21  O8  UNL     1       1.622 -36.508  -5.221  1.00  0.00    -0.381 OA
ENDBRANCH   9  10
ENDBRANCH   8   9
ENDBRANCH   7   8
BRANCH   1  22
HETATM   22  C6  UNL     1       6.518 -35.463  -6.858  1.00  0.00     0.149 C 
BRANCH  22  23
HETATM   23  O3  UNL     1       7.047 -36.634  -6.531  1.00  0.00    -0.353 OA
BRANCH  23  24
HETATM   24  C5  UNL     1       7.299 -37.009  -5.247  1.00  0.00     0.175 C 
HETATM   25  C4  UNL     1       8.750 -37.349  -5.043  1.00  0.00     0.206 C 
HETATM   26  O2  UNL     1       8.910 -37.674  -3.670  1.00  0.00    -0.351 OA
HETATM   27  C2  UNL     1       8.120 -38.807  -3.418  1.00  0.00     0.181 C 
HETATM   28  C1  UNL     1       9.109 -39.873  -2.891  1.00  0.00     0.081 C 
HETATM   29  O9  UNL     1       7.510 -39.271  -4.554  1.00  0.00    -0.351 OA
HETATM   30  C24 UNL     1       6.578 -38.399  -5.041  1.00  0.00     0.206 C 
BRANCH  27  31
HETATM   31  C3  UNL     1       7.116 -38.582  -2.329  1.00  0.00     0.232 C 
BRANCH  31  32
HETATM   32  O1  UNL     1       7.661 -39.024  -1.122  1.00  0.00    -0.396 OA
ATOM     33  H1  UNL     1       8.290 -39.712  -1.308  1.00  0.00     0.209 HD
ENDBRANCH  31  32
ENDBRANCH  27  31
ENDBRANCH  23  24
ENDBRANCH  22  23
ENDBRANCH   1  22
BRANCH   4  34
HETATM   34  O5  UNL     1       2.268 -34.850 -10.505  1.00  0.00    -0.356 OA
ATOM     35  H5  UNL     1       1.620 -34.175 -10.346  1.00  0.00     0.218 HD
ENDBRANCH   4  34
BRANCH   3  36
HETATM   36  O4  UNL     1       4.667 -35.746 -11.395  1.00  0.00    -0.358 OA
ATOM     37  H4  UNL     1       3.983 -35.566 -12.031  1.00  0.00     0.217 HD
ENDBRANCH   3  36
TORSDOF 10
ENDMDL
MODEL 3
REMARK VINA RESULT: -8.416086073      2.687      6.250
REMARK  10 active torsions:
REMARK  status: ('A' for Active; 'I' for Inactive)
REMARK    1  A    between atoms: C2_2  and  C3_3 
REMARK    2  A    between atoms: C3_3  and  O1_4 
REMARK    3  A    between atoms: C5_8  and  O3_9 
REMARK    4  A    between atoms: O3_9  and  C6_10 
REMARK    5  A    between atoms: C6_10  and  C7_11 
REMARK    6  A    between atoms: C9_13  and  O4_14 
REMARK    7  A    between atoms: C10_16  and  O5_17 
REMARK    8  A    between atoms: C12_21  and  O6_22 
REMARK    9  A    between atoms: O6_22  and  C13_23 
REMARK   10  A    between atoms: C13_23  and  C14_24 
ROOT
HETATM    1  C7  UNL     1       6.651 -37.025  -5.322  1.00  0.00     0.024 A 
HETATM    2  C8  UNL     1       7.606 -36.177  -5.798  1.00  0.00     0.055 A 
HETATM    3  C9  UNL     1       8.936 -36.314  -5.422  1.00  0.00     0.101 A 
HETATM    4  C10 UNL     1       9.278 -37.327  -4.555  1.00  0.00     0.123 A 
HETATM    5  C11 UNL     1       8.337 -38.185  -4.066  1.00  0.00     0.104 A 
HETATM    6 CL1  UNL     1       8.804 -39.482  -2.951  1.00  0.00    -0.078 Cl
HETATM    7  C12 UNL     1       7.010 -38.046  -4.440  1.00  0.00     0.105 A 
ENDROOT
BRANCH   7   8
HETATM    8  O6  UNL     1       6.126 -38.927  -3.909  1.00  0.00    -0.346 OA
BRANCH   8   9
HETATM    9  C13 UNL     1       5.363 -39.022  -2.797  1.00  0.00     0.209 C 
BRANCH   9  10
HETATM   10  C14 UNL     1       4.742 -40.302  -2.400  1.00  0.00     0.169 C 
HETATM   11  C15 UNL     1       4.241 -41.023  -3.640  1.00  0.00     0.203 C 
HETATM   12  O7  UNL     1       3.082 -41.704  -3.296  1.00  0.00    -0.378 OA
HETATM   13  C16 UNL     1       1.931 -41.002  -3.593  1.00  0.00     0.063 C 
HETATM   14  C17 UNL     1       1.685 -41.106  -5.082  1.00  0.00     0.038 C 
HETATM   15  C21 UNL     1       0.779 -41.709  -2.903  1.00  0.00     0.038 C 
HETATM   16  C22 UNL     1       2.002 -39.550  -3.236  1.00  0.00     0.064 C 
HETATM   17  C18 UNL     1       0.441 -40.309  -5.419  1.00  0.00     0.003 C 
HETATM   18  C19 UNL     1      -0.727 -40.977  -4.766  1.00  0.00     0.000 C 
HETATM   19  C20 UNL     1      -0.553 -41.135  -3.276  1.00  0.00     0.003 C 
HETATM   20  C23 UNL     1       2.692 -39.275  -1.934  1.00  0.00     0.171 C 
HETATM   21  O8  UNL     1       3.647 -40.155  -1.555  1.00  0.00    -0.381 OA
ENDBRANCH   9  10
ENDBRANCH   8   9
ENDBRANCH   7   8
BRANCH   1  22
HETATM   22  C6  UNL     1       5.248 -36.899  -5.760  1.00  0.00     0.149 C 
BRANCH  22  23
HETATM   23  O3  UNL     1       4.374 -36.115  -5.143  1.00  0.00    -0.353 OA
BRANCH  23  24
HETATM   24  C5  UNL     1       3.500 -35.307  -5.801  1.00  0.00     0.175 C 
HETATM   25  C4  UNL     1       2.658 -36.080  -6.779  1.00  0.00     0.206 C 
HETATM   26  O2  UNL     1       1.754 -35.156  -7.369  1.00  0.00    -0.351 OA
HETATM   27  C2  UNL     1       2.524 -34.206  -8.058  1.00  0.00     0.181 C 
HETATM   28  C1  UNL     1       2.039 -34.286  -9.523  1.00  0.00     0.081 C 
HETATM   29  O9  UNL     1       3.864 -34.492  -8.002  1.00  0.00    -0.351 OA
HETATM   30  C24 UNL     1       4.371 -34.382  -6.739  1.00  0.00     0.206 C 
BRANCH  27  31
HETATM   31  C3  UNL     1       2.261 -32.804  -7.598  1.00  0.00     0.232 C 
BRANCH  31  32
HETATM   32  O1  UNL     1       0.951 -32.731  -7.123  1.00  0.00    -0.396 OA
ATOM     33  H1  UNL     1       0.948 -32.226  -6.318  1.00  0.00     0.209 HD
ENDBRANCH  31  32
ENDBRANCH  27  31
ENDBRANCH  23  24
ENDBRANCH  22  23
ENDBRANCH   1  22
BRANCH   4  34
HETATM   34  O5  UNL     1      10.624 -37.470  -4.173  1.00  0.00    -0.356 OA
ATOM     35  H5  UNL     1      10.823 -37.869  -3.335  1.00  0.00     0.218 HD
ENDBRANCH   4  34
BRANCH   3  36
HETATM   36  O4  UNL     1       9.944 -35.476  -5.880  1.00  0.00    -0.358 OA
ATOM     37  H4  UNL     1      10.856 -35.739  -5.929  1.00  0.00     0.217 HD
ENDBRANCH   3  36
TORSDOF 10
ENDMDL
MODEL 4
REMARK VINA RESULT: -8.378779678      2.402      6.265
REMARK  10 active torsions:
REMARK  status: ('A' for Active; 'I' for Inactive)
REMARK    1  A    between atoms: C2_2  and  C3_3 
REMARK    2  A    between atoms: C3_3  and  O1_4 
REMARK    3  A    between atoms: C5_8  and  O3_9 
REMARK    4  A    between atoms: O3_9  and  C6_10 
REMARK    5  A    between atoms: C6_10  and  C7_11 
REMARK    6  A    between atoms: C9_13  and  O4_14 
REMARK    7  A    between atoms: C10_16  and  O5_17 
REMARK    8  A    between atoms: C12_21  and  O6_22 
REMARK    9  A    between atoms: O6_22  and  C13_23 
REMARK   10  A    between atoms: C13_23  and  C14_24 
ROOT
HETATM    1  C7  UNL     1       7.348 -38.494  -3.402  1.00  0.00     0.024 A 
HETATM    2  C8  UNL     1       8.709 -38.553  -3.361  1.00  0.00     0.055 A 
HETATM    3  C9  UNL     1       9.485 -37.795  -4.227  1.00  0.00     0.101 A 
HETATM    4  C10 UNL     1       8.853 -36.976  -5.137  1.00  0.00     0.123 A 
HETATM    5  C11 UNL     1       7.492 -36.905  -5.196  1.00  0.00     0.104 A 
HETATM    6 CL1  UNL     1       6.705 -35.842  -6.376  1.00  0.00    -0.078 Cl
HETATM    7  C12 UNL     1       6.719 -37.663  -4.331  1.00  0.00     0.105 A 
ENDROOT
BRANCH   7   8
HETATM    8  O6  UNL     1       5.373 -37.551  -4.451  1.00  0.00    -0.346 OA
BRANCH   8   9
HETATM    9  C13 UNL     1       4.377 -36.853  -3.862  1.00  0.00     0.209 C 
BRANCH   9  10
HETATM   10  C14 UNL     1       3.008 -36.854  -4.416  1.00  0.00     0.169 C 
HETATM   11  C15 UNL     1       3.029 -37.466  -5.807  1.00  0.00     0.203 C 
HETATM   12  O7  UNL     1       2.077 -36.810  -6.574  1.00  0.00    -0.378 OA
HETATM   13  C16 UNL     1       2.603 -35.784  -7.332  1.00  0.00     0.063 C 
HETATM   14  C17 UNL     1       3.309 -36.390  -8.524  1.00  0.00     0.038 C 
HETATM   15  C21 UNL     1       1.437 -34.976  -7.871  1.00  0.00     0.038 C 
HETATM   16  C22 UNL     1       3.590 -34.933  -6.594  1.00  0.00     0.064 C 
HETATM   17  C18 UNL     1       3.918 -35.271  -9.343  1.00  0.00     0.003 C 
HETATM   18  C19 UNL     1       2.801 -34.450  -9.905  1.00  0.00     0.000 C 
HETATM   19  C20 UNL     1       1.870 -33.921  -8.843  1.00  0.00     0.003 C 
HETATM   20  C23 UNL     1       3.207 -34.649  -5.172  1.00  0.00     0.171 C 
HETATM   21  O8  UNL     1       2.456 -35.585  -4.548  1.00  0.00    -0.381 OA
ENDBRANCH   9  10
ENDBRANCH   8   9
ENDBRANCH   7   8
BRANCH   1  22
HETATM   22  C6  UNL     1       6.532 -39.269  -2.449  1.00  0.00     0.149 C 
BRANCH  22  23
HETATM   23  O3  UNL     1       6.429 -40.590  -2.506  1.00  0.00    -0.353 OA
BRANCH  23  24
HETATM   24  C5  UNL     1       5.302 -41.236  -2.912  1.00  0.00     0.175 C 
HETATM   25  C4  UNL     1       4.999 -40.966  -4.360  1.00  0.00     0.206 C 
HETATM   26  O2  UNL     1       3.843 -41.722  -4.690  1.00  0.00    -0.351 OA
HETATM   27  C2  UNL     1       2.793 -41.242  -3.891  1.00  0.00     0.181 C 
HETATM   28  C1  UNL     1       1.711 -40.776  -4.892  1.00  0.00     0.081 C 
HETATM   29  O9  UNL     1       3.183 -40.183  -3.111  1.00  0.00    -0.351 OA
HETATM   30  C24 UNL     1       4.098 -40.541  -2.163  1.00  0.00     0.206 C 
BRANCH  27  31
HETATM   31  C3  UNL     1       2.165 -42.315  -3.054  1.00  0.00     0.232 C 
BRANCH  31  32
HETATM   32  O1  UNL     1       2.407 -43.549  -3.659  1.00  0.00    -0.396 OA
ATOM     33  H1  UNL     1       2.147 -44.237  -3.057  1.00  0.00     0.209 HD
ENDBRANCH  31  32
ENDBRANCH  27  31
ENDBRANCH  23  24
ENDBRANCH  22  23
ENDBRANCH   1  22
BRANCH   4  34
HETATM   34  O5  UNL     1       9.636 -36.206  -6.016  1.00  0.00    -0.356 OA
ATOM     35  H5  UNL     1       9.220 -35.511  -6.511  1.00  0.00     0.218 HD
ENDBRANCH   4  34
BRANCH   3  36
HETATM   36  O4  UNL     1      10.873 -37.820  -4.223  1.00  0.00    -0.358 OA
ATOM     37  H4  UNL     1      11.407 -37.075  -4.476  1.00  0.00     0.217 HD
ENDBRANCH   3  36
TORSDOF 10
ENDMDL
MODEL 5
REMARK VINA RESULT: -8.365758313      2.764      6.361
REMARK  10 active torsions:
REMARK  status: ('A' for Active; 'I' for Inactive)
REMARK    1  A    between atoms: C2_2  and  C3_3 
REMARK    2  A    between atoms: C3_3  and  O1_4 
REMARK    3  A    between atoms: C5_8  and  O3_9 
REMARK    4  A    between atoms: O3_9  and  C6_10 
REMARK    5  A    between atoms: C6_10  and  C7_11 
REMARK    6  A    between atoms: C9_13  and  O4_14 
REMARK    7  A    between atoms: C10_16  and  O5_17 
REMARK    8  A    between atoms: C12_21  and  O6_22 
REMARK    9  A    between atoms: O6_22  and  C13_23 
REMARK   10  A    between atoms: C13_23  and  C14_24 
ROOT
HETATM    1  C7  UNL     1       6.896 -37.714  -4.702  1.00  0.00     0.024 A 
HETATM    2  C8  UNL     1       7.678 -36.750  -5.268  1.00  0.00     0.055 A 
HETATM    3  C9  UNL     1       9.045 -36.708  -5.029  1.00  0.00     0.101 A 
HETATM    4  C10 UNL     1       9.603 -37.661  -4.207  1.00  0.00     0.123 A 
HETATM    5  C11 UNL     1       8.837 -38.632  -3.630  1.00  0.00     0.104 A 
HETATM    6 CL1  UNL     1       9.582 -39.847  -2.575  1.00  0.00    -0.078 Cl
HETATM    7  C12 UNL     1       7.473 -38.672  -3.868  1.00  0.00     0.105 A 
ENDROOT
BRANCH   7   8
HETATM    8  O6  UNL     1       6.771 -39.657  -3.255  1.00  0.00    -0.346 OA
BRANCH   8   9
HETATM    9  C13 UNL     1       6.241 -39.889  -2.033  1.00  0.00     0.209 C 
BRANCH   9  10
HETATM   10  C14 UNL     1       5.200 -40.917  -1.831  1.00  0.00     0.169 C 
HETATM   11  C15 UNL     1       4.567 -41.261  -3.169  1.00  0.00     0.203 C 
HETATM   12  O7  UNL     1       3.227 -41.541  -2.945  1.00  0.00    -0.378 OA
HETATM   13  C16 UNL     1       2.402 -40.455  -3.162  1.00  0.00     0.063 C 
HETATM   14  C17 UNL     1       2.233 -40.280  -4.654  1.00  0.00     0.038 C 
HETATM   15  C21 UNL     1       1.037 -40.804  -2.598  1.00  0.00     0.038 C 
HETATM   16  C22 UNL     1       2.935 -39.172  -2.603  1.00  0.00     0.064 C 
HETATM   17  C18 UNL     1       1.356 -39.070  -4.900  1.00  0.00     0.003 C 
HETATM   18  C19 UNL     1      -0.009 -39.373  -4.368  1.00  0.00     0.000 C 
HETATM   19  C20 UNL     1       0.004 -39.766  -2.912  1.00  0.00     0.003 C 
HETATM   20  C23 UNL     1       3.591 -39.316  -1.263  1.00  0.00     0.171 C 
HETATM   21  O8  UNL     1       4.167 -40.510  -0.994  1.00  0.00    -0.381 OA
ENDBRANCH   9  10
ENDBRANCH   8   9
ENDBRANCH   7   8
BRANCH   1  22
HETATM   22  C6  UNL     1       5.452 -37.777  -4.996  1.00  0.00     0.149 C 
BRANCH  22  23
HETATM   23  O3  UNL     1       4.644 -36.737  -4.840  1.00  0.00    -0.353 OA
BRANCH  23  24
HETATM   24  C5  UNL     1       3.997 -36.131  -5.873  1.00  0.00     0.175 C 
HETATM   25  C4  UNL     1       4.648 -34.829  -6.248  1.00  0.00     0.206 C 
HETATM   26  O2  UNL     1       3.929 -34.310  -7.359  1.00  0.00    -0.351 OA
HETATM   27  C2  UNL     1       2.615 -34.073  -6.926  1.00  0.00     0.181 C 
HETATM   28  C1  UNL     1       2.379 -32.566  -7.177  1.00  0.00     0.081 C 
HETATM   29  O9  UNL     1       2.456 -34.346  -5.592  1.00  0.00    -0.351 OA
HETATM   30  C24 UNL     1       2.593 -35.674  -5.310  1.00  0.00     0.206 C 
BRANCH  27  31
HETATM   31  C3  UNL     1       1.595 -34.805  -7.744  1.00  0.00     0.232 C 
BRANCH  31  32
HETATM   32  O1  UNL     1       1.223 -33.998  -8.819  1.00  0.00    -0.396 OA
ATOM     33  H1  UNL     1       0.368 -34.277  -9.126  1.00  0.00     0.209 HD
ENDBRANCH  31  32
ENDBRANCH  27  31
ENDBRANCH  23  24
ENDBRANCH  22  23
ENDBRANCH   1  22
BRANCH   4  34
HETATM   34  O5  UNL     1      10.988 -37.622  -3.963  1.00  0.00    -0.356 OA
ATOM     35  H5  UNL     1      11.328 -36.979  -3.353  1.00  0.00     0.218 HD
ENDBRANCH   4  34
BRANCH   3  36
HETATM   36  O4  UNL     1       9.883 -35.749  -5.582  1.00  0.00    -0.358 OA
ATOM     37  H4  UNL     1      10.536 -35.277  -5.078  1.00  0.00     0.217 HD
ENDBRANCH   3  36
TORSDOF 10
ENDMDL
