MODEL 1
REMARK VINA RESULT: -8.855901063      0.000      0.000
REMARK  9 active torsions:
REMARK  status: ('A' for Active; 'I' for Inactive)
REMARK    1  A    between atoms: O1_2  and  C2_3 
REMARK    2  A    between atoms: C4_5  and  C5_6 
REMARK    3  A    between atoms: N1_11  and  C8_12 
REMARK    4  A    between atoms: C8_12  and  C9_13 
REMARK    5  A    between atoms: C9_13  and  O2_14 
REMARK    6  A    between atoms: C9_13  and  C10_16 
REMARK    7  A    between atoms: C15_23  and  C16_24 
REMARK    8  A    between atoms: C20_30  and  O4_31 
REMARK    9  A    between atoms: C22_33  and  O5_34 
ROOT
HETATM    1  C16 UNL     1       7.978 -37.056  -5.251  1.00  0.00     0.163 C 
HETATM    2  C17 UNL     1       8.843 -35.998  -5.772  1.00  0.00     0.063 C 
HETATM    3  N3  UNL     1       9.536 -35.165  -6.180  1.00  0.00    -0.197 NA
ENDROOT
BRANCH   1   4
HETATM    4  C15 UNL     1       8.740 -37.991  -4.394  1.00  0.00    -0.034 A 
HETATM    5  C10 UNL     1       8.108 -39.013  -3.735  1.00  0.00    -0.018 A 
HETATM    6  C11 UNL     1       8.874 -39.828  -2.940  1.00  0.00     0.054 A 
HETATM    7  C12 UNL     1      10.232 -39.632  -2.803  1.00  0.00     0.141 A 
HETATM    8  F1  UNL     1      10.973 -40.454  -2.005  1.00  0.00    -0.204 F 
HETATM    9  C13 UNL     1      10.862 -38.600  -3.469  1.00  0.00     0.085 A 
HETATM   10  N2  UNL     1      12.252 -38.369  -3.356  1.00  0.00    -0.099 NA
HETATM   11  C14 UNL     1      10.107 -37.767  -4.277  1.00  0.00     0.038 A 
BRANCH   5  12
HETATM   12  C9  UNL     1       6.674 -39.218  -3.912  1.00  0.00     0.170 C 
BRANCH  12  13
HETATM   13  C8  UNL     1       5.854 -38.690  -2.751  1.00  0.00     0.170 C 
BRANCH  13  14
HETATM   14  N1  UNL     1       4.449 -38.651  -3.242  1.00  0.00    -0.295 N 
HETATM   15  C7  UNL     1       3.382 -39.258  -2.552  1.00  0.00     0.148 C 
HETATM   16  S1  UNL     1       2.100 -39.452  -3.785  1.00  0.00    -0.055 SA
HETATM   17  S2  UNL     1       3.285 -39.697  -1.016  1.00  0.00    -0.052 SA
HETATM   18  C6  UNL     1       2.677 -38.011  -4.769  1.00  0.00     0.076 C 
HETATM   19  C5  UNL     1       1.916 -37.303  -5.559  1.00  0.00     0.036 C 
HETATM   20  C18 UNL     1       4.085 -37.981  -4.434  1.00  0.00     0.266 C 
HETATM   21  O3  UNL     1       4.965 -37.385  -5.175  1.00  0.00    -0.266 OA
BRANCH  19  22
HETATM   22  C4  UNL     1       2.430 -36.177  -6.301  1.00  0.00    -0.029 A 
HETATM   23  C3  UNL     1       2.833 -36.446  -7.607  1.00  0.00     0.051 A 
HETATM   24  C2  UNL     1       3.310 -35.451  -8.409  1.00  0.00     0.104 A 
HETATM   25  C22 UNL     1       3.378 -34.184  -7.896  1.00  0.00     0.133 A 
HETATM   26  C20 UNL     1       2.988 -33.869  -6.609  1.00  0.00     0.104 A 
HETATM   27  C19 UNL     1       2.515 -34.887  -5.825  1.00  0.00     0.051 A 
BRANCH  24  28
HETATM   28  O1  UNL     1       3.704 -35.752  -9.705  1.00  0.00    -0.353 OA
HETATM   29  C1  UNL     1       5.039 -35.987 -10.034  1.00  0.00     0.210 C 
ENDBRANCH  24  28
BRANCH  25  30
HETATM   30  O5  UNL     1       3.857 -33.161  -8.688  1.00  0.00    -0.356 OA
ATOM     31  H5  UNL     1       3.375 -32.343  -8.733  1.00  0.00     0.218 HD
ENDBRANCH  25  30
BRANCH  26  32
HETATM   32  O4  UNL     1       3.078 -32.556  -6.132  1.00  0.00    -0.353 OA
HETATM   33  C21 UNL     1       2.217 -31.570  -6.636  1.00  0.00     0.210 C 
ENDBRANCH  26  32
ENDBRANCH  19  22
ENDBRANCH  13  14
ENDBRANCH  12  13
BRANCH  12  34
HETATM   34  O2  UNL     1       6.377 -40.600  -3.984  1.00  0.00    -0.389 OA
ATOM     35  H2  UNL     1       6.833 -40.917  -4.754  1.00  0.00     0.210 HD
ENDBRANCH  12  34
ENDBRANCH   5  12
ENDBRANCH   1   4
TORSDOF 9
ENDMDL
MODEL 2
REMARK VINA RESULT: -8.765132615      0.170      2.123
REMARK  9 active torsions:
REMARK  status: ('A' for Active; 'I' for Inactive)
REMARK    1  A    between atoms: O1_2  and  C2_3 
REMARK    2  A    between atoms: C4_5  and  C5_6 
REMARK    3  A    between atoms: N1_11  and  C8_12 
REMARK    4  A    between atoms: C8_12  and  C9_13 
REMARK    5  A    between atoms: C9_13  and  O2_14 
REMARK    6  A    between atoms: C9_13  and  C10_16 
REMARK    7  A    between atoms: C15_23  and  C16_24 
REMARK    8  A    between atoms: C20_30  and  O4_31 
REMARK    9  A    between atoms: C22_33  and  O5_34 
ROOT
HETATM    1  C16 UNL     1       7.947 -37.008  -5.296  1.00  0.00     0.163 C 
HETATM    2  C17 UNL     1       8.811 -35.951  -5.820  1.00  0.00     0.063 C 
HETATM    3  N3  UNL     1       9.504 -35.119  -6.231  1.00  0.00    -0.197 NA
ENDROOT
BRANCH   1   4
HETATM    4  C15 UNL     1       8.707 -37.932  -4.426  1.00  0.00    -0.034 A 
HETATM    5  C10 UNL     1       8.071 -38.932  -3.738  1.00  0.00    -0.018 A 
HETATM    6  C11 UNL     1       8.835 -39.738  -2.932  1.00  0.00     0.054 A 
HETATM    7  C12 UNL     1      10.196 -39.554  -2.813  1.00  0.00     0.141 A 
HETATM    8  F1  UNL     1      10.937 -40.367  -2.005  1.00  0.00    -0.204 F 
HETATM    9  C13 UNL     1      10.831 -38.545  -3.509  1.00  0.00     0.085 A 
HETATM   10  N2  UNL     1      12.225 -38.327  -3.414  1.00  0.00    -0.099 NA
HETATM   11  C14 UNL     1      10.078 -37.721  -4.327  1.00  0.00     0.038 A 
BRANCH   5  12
HETATM   12  C9  UNL     1       6.632 -39.125  -3.897  1.00  0.00     0.170 C 
BRANCH  12  13
HETATM   13  C8  UNL     1       5.822 -38.442  -2.811  1.00  0.00     0.170 C 
BRANCH  13  14
HETATM   14  N1  UNL     1       4.415 -38.456  -3.297  1.00  0.00    -0.295 N 
HETATM   15  C7  UNL     1       3.355 -39.010  -2.553  1.00  0.00     0.148 C 
HETATM   16  S1  UNL     1       2.070 -39.319  -3.759  1.00  0.00    -0.055 SA
HETATM   17  S2  UNL     1       3.268 -39.315  -0.984  1.00  0.00    -0.052 SA
HETATM   18  C6  UNL     1       2.633 -37.965  -4.866  1.00  0.00     0.076 C 
HETATM   19  C5  UNL     1       1.863 -37.333  -5.711  1.00  0.00     0.036 C 
HETATM   20  C18 UNL     1       4.041 -37.895  -4.541  1.00  0.00     0.266 C 
HETATM   21  O3  UNL     1       4.914 -37.359  -5.335  1.00  0.00    -0.266 OA
BRANCH  19  22
HETATM   22  C4  UNL     1       2.365 -36.272  -6.550  1.00  0.00    -0.029 A 
HETATM   23  C3  UNL     1       2.392 -35.004  -5.973  1.00  0.00     0.051 A 
HETATM   24  C2  UNL     1       2.872 -33.932  -6.665  1.00  0.00     0.104 A 
HETATM   25  C22 UNL     1       3.326 -34.137  -7.941  1.00  0.00     0.133 A 
HETATM   26  C20 UNL     1       3.320 -35.374  -8.554  1.00  0.00     0.104 A 
HETATM   27  C19 UNL     1       2.833 -36.433  -7.836  1.00  0.00     0.051 A 
BRANCH  24  28
HETATM   28  O1  UNL     1       2.885 -32.683  -6.062  1.00  0.00    -0.353 OA
HETATM   29  C1  UNL     1       2.278 -31.573  -6.650  1.00  0.00     0.210 C 
ENDBRANCH  24  28
BRANCH  25  30
HETATM   30  O5  UNL     1       3.815 -33.067  -8.662  1.00  0.00    -0.356 OA
ATOM     31  H5  UNL     1       4.257 -33.226  -9.488  1.00  0.00     0.218 HD
ENDBRANCH  25  30
BRANCH  26  32
HETATM   32  O4  UNL     1       3.797 -35.530  -9.861  1.00  0.00    -0.353 OA
HETATM   33  C21 UNL     1       5.107 -35.982 -10.077  1.00  0.00     0.210 C 
ENDBRANCH  26  32
ENDBRANCH  19  22
ENDBRANCH  13  14
ENDBRANCH  12  13
BRANCH  12  34
HETATM   34  O2  UNL     1       6.303 -40.498  -3.804  1.00  0.00    -0.389 OA
ATOM     35  H2  UNL     1       6.608 -40.886  -4.615  1.00  0.00     0.210 HD
ENDBRANCH  12  34
ENDBRANCH   5  12
ENDBRANCH   1   4
TORSDOF 9
ENDMDL
MODEL 3
REMARK VINA RESULT: -8.160138775      2.729      4.118
REMARK  9 active torsions:
REMARK  status: ('A' for Active; 'I' for Inactive)
REMARK    1  A    between atoms: O1_2  and  C2_3 
REMARK    2  A    between atoms: C4_5  and  C5_6 
REMARK    3  A    between atoms: N1_11  and  C8_12 
REMARK    4  A    between atoms: C8_12  and  C9_13 
REMARK    5  A    between atoms: C9_13  and  O2_14 
REMARK    6  A    between atoms: C9_13  and  C10_16 
REMARK    7  A    between atoms: C15_23  and  C16_24 
REMARK    8  A    between atoms: C20_30  and  O4_31 
REMARK    9  A    between atoms: C22_33  and  O5_34 
ROOT
HETATM    1  C16 UNL     1       8.247 -37.362  -4.699  1.00  0.00     0.163 C 
HETATM    2  C17 UNL     1       8.987 -36.290  -5.363  1.00  0.00     0.063 C 
HETATM    3  N3  UNL     1       9.582 -35.445  -5.886  1.00  0.00    -0.197 NA
ENDROOT
BRANCH   1   4
HETATM    4  C15 UNL     1       9.165 -38.287  -4.000  1.00  0.00    -0.034 A 
HETATM    5  C10 UNL     1       8.706 -39.463  -3.466  1.00  0.00    -0.018 A 
HETATM    6  C11 UNL     1       9.610 -40.262  -2.812  1.00  0.00     0.054 A 
HETATM    7  C12 UNL     1      10.936 -39.903  -2.693  1.00  0.00     0.141 A 
HETATM    8  F1  UNL     1      11.817 -40.712  -2.037  1.00  0.00    -0.204 F 
HETATM    9  C13 UNL     1      11.392 -38.718  -3.234  1.00  0.00     0.085 A 
HETATM   10  N2  UNL     1      12.743 -38.316  -3.134  1.00  0.00    -0.099 NA
HETATM   11  C14 UNL     1      10.496 -37.897  -3.897  1.00  0.00     0.038 A 
BRANCH   5  12
HETATM   12  C9  UNL     1       7.304 -39.837  -3.624  1.00  0.00     0.170 C 
BRANCH  12  13
HETATM   13  C8  UNL     1       6.965 -41.154  -2.953  1.00  0.00     0.170 C 
BRANCH  13  14
HETATM   14  N1  UNL     1       5.920 -40.829  -1.944  1.00  0.00    -0.295 N 
HETATM   15  C7  UNL     1       6.154 -40.884  -0.556  1.00  0.00     0.148 C 
HETATM   16  S1  UNL     1       4.524 -41.005   0.172  1.00  0.00    -0.055 SA
HETATM   17  S2  UNL     1       7.542 -40.851   0.241  1.00  0.00    -0.052 SA
HETATM   18  C6  UNL     1       3.718 -40.118  -1.220  1.00  0.00     0.076 C 
HETATM   19  C5  UNL     1       2.600 -39.450  -1.122  1.00  0.00     0.036 C 
HETATM   20  C18 UNL     1       4.616 -40.422  -2.313  1.00  0.00     0.266 C 
HETATM   21  O3  UNL     1       4.257 -40.335  -3.555  1.00  0.00    -0.266 OA
BRANCH  19  22
HETATM   22  C4  UNL     1       2.019 -38.768  -2.253  1.00  0.00    -0.029 A 
HETATM   23  C3  UNL     1       2.540 -37.507  -2.534  1.00  0.00     0.051 A 
HETATM   24  C2  UNL     1       2.085 -36.784  -3.596  1.00  0.00     0.104 A 
HETATM   25  C22 UNL     1       1.104 -37.331  -4.378  1.00  0.00     0.133 A 
HETATM   26  C20 UNL     1       0.558 -38.578  -4.141  1.00  0.00     0.104 A 
HETATM   27  C19 UNL     1       1.033 -39.282  -3.068  1.00  0.00     0.051 A 
BRANCH  24  28
HETATM   28  O1  UNL     1       2.625 -35.530  -3.847  1.00  0.00    -0.353 OA
HETATM   29  C1  UNL     1       3.693 -35.349  -4.726  1.00  0.00     0.210 C 
ENDBRANCH  24  28
BRANCH  25  30
HETATM   30  O5  UNL     1       0.627 -36.618  -5.459  1.00  0.00    -0.356 OA
ATOM     31  H5  UNL     1       0.462 -35.687  -5.365  1.00  0.00     0.218 HD
ENDBRANCH  25  30
BRANCH  26  32
HETATM   32  O4  UNL     1      -0.443 -39.093  -4.973  1.00  0.00    -0.353 OA
HETATM   33  C21 UNL     1      -0.496 -40.472  -5.230  1.00  0.00     0.210 C 
ENDBRANCH  26  32
ENDBRANCH  19  22
ENDBRANCH  13  14
ENDBRANCH  12  13
BRANCH  12  34
HETATM   34  O2  UNL     1       6.991 -40.021  -4.991  1.00  0.00    -0.389 OA
ATOM     35  H2  UNL     1       7.118 -39.170  -5.396  1.00  0.00     0.210 HD
ENDBRANCH  12  34
ENDBRANCH   5  12
ENDBRANCH   1   4
TORSDOF 9
ENDMDL
MODEL 4
REMARK VINA RESULT: -8.113888048      3.944      7.369
REMARK  9 active torsions:
REMARK  status: ('A' for Active; 'I' for Inactive)
REMARK    1  A    between atoms: O1_2  and  C2_3 
REMARK    2  A    between atoms: C4_5  and  C5_6 
REMARK    3  A    between atoms: N1_11  and  C8_12 
REMARK    4  A    between atoms: C8_12  and  C9_13 
REMARK    5  A    between atoms: C9_13  and  O2_14 
REMARK    6  A    between atoms: C9_13  and  C10_16 
REMARK    7  A    between atoms: C15_23  and  C16_24 
REMARK    8  A    between atoms: C20_30  and  O4_31 
REMARK    9  A    between atoms: C22_33  and  O5_34 
ROOT
HETATM    1  C16 UNL     1       2.737 -38.019  -4.966  1.00  0.00     0.163 C 
HETATM    2  C17 UNL     1       2.329 -37.035  -5.968  1.00  0.00     0.063 C 
HETATM    3  N3  UNL     1       1.996 -36.257  -6.759  1.00  0.00    -0.197 NA
ENDROOT
BRANCH   1   4
HETATM    4  C15 UNL     1       1.565 -38.560  -4.245  1.00  0.00    -0.034 A 
HETATM    5  C10 UNL     1       1.539 -38.598  -2.875  1.00  0.00    -0.018 A 
HETATM    6  C11 UNL     1       0.428 -39.133  -2.273  1.00  0.00     0.054 A 
HETATM    7  C12 UNL     1      -0.629 -39.619  -3.013  1.00  0.00     0.141 A 
HETATM    8  F1  UNL     1      -1.723 -40.149  -2.393  1.00  0.00    -0.204 F 
HETATM    9  C13 UNL     1      -0.597 -39.577  -4.392  1.00  0.00     0.085 A 
HETATM   10  N2  UNL     1      -1.662 -40.063  -5.184  1.00  0.00    -0.099 NA
HETATM   11  C14 UNL     1       0.514 -39.040  -5.019  1.00  0.00     0.038 A 
BRANCH   5  12
HETATM   12  C9  UNL     1       2.658 -38.057  -2.110  1.00  0.00     0.170 C 
BRANCH  12  13
HETATM   13  C8  UNL     1       3.165 -39.014  -1.049  1.00  0.00     0.170 C 
BRANCH  13  14
HETATM   14  N1  UNL     1       4.090 -39.940  -1.758  1.00  0.00    -0.295 N 
HETATM   15  C7  UNL     1       3.759 -41.279  -2.044  1.00  0.00     0.148 C 
HETATM   16  S1  UNL     1       5.334 -42.081  -2.326  1.00  0.00    -0.055 SA
HETATM   17  S2  UNL     1       2.321 -41.977  -2.113  1.00  0.00    -0.052 SA
HETATM   18  C6  UNL     1       6.141 -40.536  -2.906  1.00  0.00     0.076 C 
HETATM   19  C5  UNL     1       7.168 -40.496  -3.711  1.00  0.00     0.036 C 
HETATM   20  C18 UNL     1       5.365 -39.530  -2.213  1.00  0.00     0.266 C 
HETATM   21  O3  UNL     1       5.804 -38.327  -2.012  1.00  0.00    -0.266 OA
BRANCH  19  22
HETATM   22  C4  UNL     1       7.754 -39.248  -4.136  1.00  0.00    -0.029 A 
HETATM   23  C3  UNL     1       9.034 -38.983  -3.653  1.00  0.00     0.051 A 
HETATM   24  C2  UNL     1       9.694 -37.845  -4.012  1.00  0.00     0.104 A 
HETATM   25  C22 UNL     1       9.065 -36.972  -4.858  1.00  0.00     0.133 A 
HETATM   26  C20 UNL     1       7.798 -37.192  -5.363  1.00  0.00     0.104 A 
HETATM   27  C19 UNL     1       7.157 -38.342  -4.987  1.00  0.00     0.051 A 
BRANCH  24  28
HETATM   28  O1  UNL     1      10.967 -37.611  -3.513  1.00  0.00    -0.353 OA
HETATM   29  C1  UNL     1      11.875 -38.647  -3.291  1.00  0.00     0.210 C 
ENDBRANCH  24  28
BRANCH  25  30
HETATM   30  O5  UNL     1       9.712 -35.813  -5.235  1.00  0.00    -0.356 OA
ATOM     31  H5  UNL     1       9.706 -35.066  -4.648  1.00  0.00     0.218 HD
ENDBRANCH  25  30
BRANCH  26  32
HETATM   32  O4  UNL     1       7.198 -36.268  -6.227  1.00  0.00    -0.353 OA
HETATM   33  C21 UNL     1       5.801 -36.144  -6.257  1.00  0.00     0.210 C 
ENDBRANCH  26  32
ENDBRANCH  19  22
ENDBRANCH  13  14
ENDBRANCH  12  13
BRANCH  12  34
HETATM   34  O2  UNL     1       2.262 -36.894  -1.407  1.00  0.00    -0.389 OA
ATOM     35  H2  UNL     1       1.385 -36.699  -1.716  1.00  0.00     0.210 HD
ENDBRANCH  12  34
ENDBRANCH   5  12
ENDBRANCH   1   4
TORSDOF 9
ENDMDL
MODEL 5
REMARK VINA RESULT: -8.111791211      2.480      3.659
REMARK  9 active torsions:
REMARK  status: ('A' for Active; 'I' for Inactive)
REMARK    1  A    between atoms: O1_2  and  C2_3 
REMARK    2  A    between atoms: C4_5  and  C5_6 
REMARK    3  A    between atoms: N1_11  and  C8_12 
REMARK    4  A    between atoms: C8_12  and  C9_13 
REMARK    5  A    between atoms: C9_13  and  O2_14 
REMARK    6  A    between atoms: C9_13  and  C10_16 
REMARK    7  A    between atoms: C15_23  and  C16_24 
REMARK    8  A    between atoms: C20_30  and  O4_31 
REMARK    9  A    between atoms: C22_33  and  O5_34 
ROOT
HETATM    1  C16 UNL     1       8.196 -37.393  -4.734  1.00  0.00     0.163 C 
HETATM    2  C17 UNL     1       8.945 -36.308  -5.368  1.00  0.00     0.063 C 
HETATM    3  N3  UNL     1       9.547 -35.454  -5.866  1.00  0.00    -0.197 NA
ENDROOT
BRANCH   1   4
HETATM    4  C15 UNL     1       9.103 -38.323  -4.028  1.00  0.00    -0.034 A 
HETATM    5  C10 UNL     1       8.638 -39.507  -3.517  1.00  0.00    -0.018 A 
HETATM    6  C11 UNL     1       9.531 -40.310  -2.855  1.00  0.00     0.054 A 
HETATM    7  C12 UNL     1      10.853 -39.947  -2.703  1.00  0.00     0.141 A 
HETATM    8  F1  UNL     1      11.723 -40.762  -2.039  1.00  0.00    -0.204 F 
HETATM    9  C13 UNL     1      11.316 -38.754  -3.221  1.00  0.00     0.085 A 
HETATM   10  N2  UNL     1      12.663 -38.349  -3.088  1.00  0.00    -0.099 NA
HETATM   11  C14 UNL     1      10.430 -37.929  -3.893  1.00  0.00     0.038 A 
BRANCH   5  12
HETATM   12  C9  UNL     1       7.241 -39.884  -3.709  1.00  0.00     0.170 C 
BRANCH  12  13
HETATM   13  C8  UNL     1       6.853 -41.127  -2.931  1.00  0.00     0.170 C 
BRANCH  13  14
HETATM   14  N1  UNL     1       5.808 -40.685  -1.968  1.00  0.00    -0.295 N 
HETATM   15  C7  UNL     1       5.975 -40.762  -0.572  1.00  0.00     0.148 C 
HETATM   16  S1  UNL     1       4.311 -40.698   0.085  1.00  0.00    -0.055 SA
HETATM   17  S2  UNL     1       7.321 -40.882   0.285  1.00  0.00    -0.052 SA
HETATM   18  C6  UNL     1       3.670 -39.730  -1.339  1.00  0.00     0.076 C 
HETATM   19  C5  UNL     1       2.631 -38.941  -1.288  1.00  0.00     0.036 C 
HETATM   20  C18 UNL     1       4.575 -40.135  -2.393  1.00  0.00     0.266 C 
HETATM   21  O3  UNL     1       4.283 -40.011  -3.649  1.00  0.00    -0.266 OA
BRANCH  19  22
HETATM   22  C4  UNL     1       2.180 -38.201  -2.442  1.00  0.00    -0.029 A 
HETATM   23  C3  UNL     1       1.179 -38.807  -3.198  1.00  0.00     0.051 A 
HETATM   24  C2  UNL     1       0.659 -38.186  -4.294  1.00  0.00     0.104 A 
HETATM   25  C22 UNL     1       1.147 -36.952  -4.630  1.00  0.00     0.133 A 
HETATM   26  C20 UNL     1       2.137 -36.311  -3.911  1.00  0.00     0.104 A 
HETATM   27  C19 UNL     1       2.642 -36.957  -2.815  1.00  0.00     0.051 A 
BRANCH  24  28
HETATM   28  O1  UNL     1      -0.337 -38.817  -5.026  1.00  0.00    -0.353 OA
HETATM   29  C1  UNL     1      -0.828 -40.074  -4.672  1.00  0.00     0.210 C 
ENDBRANCH  24  28
BRANCH  25  30
HETATM   30  O5  UNL     1       0.637 -36.303  -5.737  1.00  0.00    -0.356 OA
ATOM     31  H5  UNL     1      -0.226 -35.908  -5.686  1.00  0.00     0.218 HD
ENDBRANCH  25  30
BRANCH  26  32
HETATM   32  O4  UNL     1       2.601 -35.047  -4.297  1.00  0.00    -0.353 OA
HETATM   33  C21 UNL     1       3.652 -34.941  -5.220  1.00  0.00     0.210 C 
ENDBRANCH  26  32
ENDBRANCH  19  22
ENDBRANCH  13  14
ENDBRANCH  12  13
BRANCH  12  34
HETATM   34  O2  UNL     1       6.994 -40.197  -5.066  1.00  0.00    -0.389 OA
ATOM     35  H2  UNL     1       7.331 -39.460  -5.561  1.00  0.00     0.210 HD
ENDBRANCH  12  34
ENDBRANCH   5  12
ENDBRANCH   1   4
TORSDOF 9
ENDMDL
