MODEL 1
REMARK VINA RESULT: -9.914123273      0.000      0.000
REMARK  9 active torsions:
REMARK  status: ('A' for Active; 'I' for Inactive)
REMARK    1  A    between atoms: N1_1  and  C1_4 
REMARK    2  A    between atoms: C2_7  and  O1_8 
REMARK    3  A    between atoms: O1_8  and  C3_9 
REMARK    4  A    between atoms: C6_12  and  C7_13 
REMARK    5  A    between atoms: C8_14  and  C9_15 
REMARK    6  A    between atoms: C13_19  and  O2_20 
REMARK    7  A    between atoms: N4_28  and  S1_29 
REMARK    8  A    between atoms: S1_29  and  C17_32 
REMARK    9  A    between atoms: C21_36  and  N5_37 
ROOT
HETATM    1  C1  UNL     1      10.368 -40.796  -1.967  1.00  0.00     0.710 A 
HETATM    2  N2  UNL     1      10.691 -40.042  -3.054  1.00  0.00    -0.151 N 
ATOM      3  H2  UNL     1      11.487 -40.216  -3.668  1.00  0.00     0.188 HD
HETATM    4  C2  UNL     1       9.815 -39.040  -3.203  1.00  0.00     0.260 A 
HETATM    5  N3  UNL     1       8.942 -39.180  -2.191  1.00  0.00    -0.233 N 
ATOM      6  H3  UNL     1       8.145 -38.568  -2.020  1.00  0.00     0.192 HD
HETATM    7  N4  UNL     1       9.268 -40.232  -1.445  1.00  0.00     0.001 N 
ENDROOT
BRANCH   4   8
HETATM    8  O1  UNL     1       9.815 -38.071  -4.187  1.00  0.00    -0.275 OA
BRANCH   8   9
HETATM    9  C3  UNL     1       8.709 -37.544  -4.795  1.00  0.00     0.117 A 
HETATM   10  C4  UNL     1       7.484 -38.137  -4.609  1.00  0.00     0.041 A 
HETATM   11  C5  UNL     1       6.343 -37.656  -5.192  1.00  0.00     0.014 A 
HETATM   12  C6  UNL     1       6.402 -36.525  -6.005  1.00  0.00    -0.033 A 
HETATM   13  C15 UNL     1       7.618 -35.928  -6.196  1.00  0.00     0.056 A 
HETATM   14  C16 UNL     1       8.775 -36.435  -5.592  1.00  0.00     0.151 A 
HETATM   15  F1  UNL     1       9.926 -35.773  -5.857  1.00  0.00    -0.203 F 
BRANCH  12  16
HETATM   16  C7  UNL     1       5.194 -36.004  -6.631  1.00  0.00     0.012 C 
HETATM   17  C8  UNL     1       5.151 -35.452  -7.804  1.00  0.00     0.012 C 
BRANCH  17  18
HETATM   18  C9  UNL     1       3.936 -34.949  -8.386  1.00  0.00    -0.034 A 
HETATM   19  C10 UNL     1       3.582 -35.227  -9.674  1.00  0.00     0.011 A 
HETATM   20  C11 UNL     1       2.380 -34.708 -10.192  1.00  0.00     0.004 A 
HETATM   21  C12 UNL     1       1.553 -33.926  -9.426  1.00  0.00     0.036 A 
HETATM   22  C13 UNL     1       1.895 -33.638  -8.129  1.00  0.00     0.066 A 
HETATM   23  C14 UNL     1       3.067 -34.151  -7.644  1.00  0.00     0.048 A 
BRANCH  22  24
HETATM   24  O2  UNL     1       1.053 -32.841  -7.352  1.00  0.00    -0.361 OA
ATOM     25  H2  UNL     1       0.828 -31.966  -7.647  1.00  0.00     0.217 HD
ENDBRANCH  22  24
ENDBRANCH  17  18
ENDBRANCH  12  16
ENDBRANCH   8   9
ENDBRANCH   4   8
BRANCH   1  26
HETATM   26  N1  UNL     1      11.011 -41.846  -1.538  1.00  0.00    -0.232 N 
ATOM     27  H12 UNL     1      11.357 -42.029  -0.596  1.00  0.00     0.174 HD
ATOM     28  H11 UNL     1      11.274 -42.660  -2.094  1.00  0.00     0.174 HD
ENDBRANCH   1  26
BRANCH   7  29
HETATM   29  S1  UNL     1       8.397 -40.755  -0.048  1.00  0.00     0.297 S 
HETATM   30  O3  UNL     1       8.632 -42.213   0.165  1.00  0.00    -0.198 OA
HETATM   31  O4  UNL     1       8.802 -39.998   1.160  1.00  0.00    -0.198 OA
BRANCH  29  32
HETATM   32  C17 UNL     1       6.662 -40.520  -0.259  1.00  0.00     0.084 A 
HETATM   33  C18 UNL     1       5.796 -41.454   0.302  1.00  0.00     0.025 A 
HETATM   34  C19 UNL     1       4.452 -41.265   0.132  1.00  0.00     0.004 A 
HETATM   35  C20 UNL     1       3.989 -40.179  -0.576  1.00  0.00     0.036 A 
HETATM   36  C21 UNL     1       4.838 -39.244  -1.139  1.00  0.00     0.104 A 
HETATM   37  C22 UNL     1       6.204 -39.443  -0.960  1.00  0.00     0.061 A 
BRANCH  36  38
HETATM   38  N5  UNL     1       4.323 -38.144  -1.858  1.00  0.00    -0.116 N 
HETATM   39  O5  UNL     1       4.540 -36.996  -1.463  1.00  0.00    -0.532 OA
HETATM   40  O6  UNL     1       3.589 -38.350  -2.984  1.00  0.00    -0.532 OA
ENDBRANCH  36  38
ENDBRANCH  29  32
ENDBRANCH   7  29
TORSDOF 9
ENDMDL
MODEL 2
REMARK VINA RESULT: -9.899686469      2.590      4.550
REMARK  9 active torsions:
REMARK  status: ('A' for Active; 'I' for Inactive)
REMARK    1  A    between atoms: N1_1  and  C1_4 
REMARK    2  A    between atoms: C2_7  and  O1_8 
REMARK    3  A    between atoms: O1_8  and  C3_9 
REMARK    4  A    between atoms: C6_12  and  C7_13 
REMARK    5  A    between atoms: C8_14  and  C9_15 
REMARK    6  A    between atoms: C13_19  and  O2_20 
REMARK    7  A    between atoms: N4_28  and  S1_29 
REMARK    8  A    between atoms: S1_29  and  C17_32 
REMARK    9  A    between atoms: C21_36  and  N5_37 
ROOT
HETATM    1  C1  UNL     1       6.564 -41.452  -0.005  1.00  0.00     0.710 A 
HETATM    2  N2  UNL     1       5.347 -40.842  -0.003  1.00  0.00    -0.151 N 
ATOM      3  H2  UNL     1       4.503 -41.226   0.422  1.00  0.00     0.188 HD
HETATM    4  C2  UNL     1       5.414 -39.665  -0.639  1.00  0.00     0.260 A 
HETATM    5  N3  UNL     1       6.692 -39.552  -1.039  1.00  0.00    -0.233 N 
ATOM      6  H3  UNL     1       7.073 -38.760  -1.557  1.00  0.00     0.192 HD
HETATM    7  N4  UNL     1       7.388 -40.621  -0.662  1.00  0.00     0.001 N 
ENDROOT
BRANCH   4   8
HETATM    8  O1  UNL     1       4.386 -38.765  -0.841  1.00  0.00    -0.275 OA
BRANCH   8   9
HETATM    9  C3  UNL     1       4.058 -38.174  -2.029  1.00  0.00     0.117 A 
HETATM   10  C4  UNL     1       3.731 -38.956  -3.110  1.00  0.00     0.041 A 
HETATM   11  C5  UNL     1       3.396 -38.421  -4.324  1.00  0.00     0.014 A 
HETATM   12  C6  UNL     1       3.378 -37.038  -4.493  1.00  0.00    -0.033 A 
HETATM   13  C15 UNL     1       3.703 -36.251  -3.422  1.00  0.00     0.056 A 
HETATM   14  C16 UNL     1       4.044 -36.815  -2.187  1.00  0.00     0.151 A 
HETATM   15  F1  UNL     1       4.358 -35.945  -1.199  1.00  0.00    -0.203 F 
BRANCH  12  16
HETATM   16  C7  UNL     1       3.022 -36.457  -5.781  1.00  0.00     0.012 C 
HETATM   17  C8  UNL     1       3.839 -36.328  -6.781  1.00  0.00     0.012 C 
BRANCH  17  18
HETATM   18  C9  UNL     1       3.447 -35.748  -8.038  1.00  0.00    -0.034 A 
HETATM   19  C10 UNL     1       2.306 -35.013  -8.171  1.00  0.00     0.011 A 
HETATM   20  C11 UNL     1       1.972 -34.469  -9.426  1.00  0.00     0.004 A 
HETATM   21  C12 UNL     1       2.773 -34.663 -10.523  1.00  0.00     0.036 A 
HETATM   22  C13 UNL     1       3.923 -35.400 -10.406  1.00  0.00     0.066 A 
HETATM   23  C14 UNL     1       4.231 -35.921  -9.178  1.00  0.00     0.048 A 
BRANCH  22  24
HETATM   24  O2  UNL     1       4.736 -35.598 -11.523  1.00  0.00    -0.361 OA
ATOM     25  H2  UNL     1       5.024 -34.851 -12.034  1.00  0.00     0.217 HD
ENDBRANCH  22  24
ENDBRANCH  17  18
ENDBRANCH  12  16
ENDBRANCH   8   9
ENDBRANCH   4   8
BRANCH   1  26
HETATM   26  N1  UNL     1       6.848 -42.608   0.526  1.00  0.00    -0.232 N 
ATOM     27  H12 UNL     1       7.155 -43.458   0.053  1.00  0.00     0.174 HD
ATOM     28  H11 UNL     1       6.803 -42.843   1.518  1.00  0.00     0.174 HD
ENDBRANCH   1  26
BRANCH   7  29
HETATM   29  S1  UNL     1       9.069 -40.863  -0.980  1.00  0.00     0.297 S 
HETATM   30  O3  UNL     1       9.854 -40.564   0.253  1.00  0.00    -0.198 OA
HETATM   31  O4  UNL     1       9.343 -42.248  -1.428  1.00  0.00    -0.198 OA
BRANCH  29  32
HETATM   32  C17 UNL     1       9.636 -39.778  -2.250  1.00  0.00     0.084 A 
HETATM   33  C18 UNL     1      11.001 -39.727  -2.513  1.00  0.00     0.025 A 
HETATM   34  C19 UNL     1      11.432 -38.880  -3.497  1.00  0.00     0.004 A 
HETATM   35  C20 UNL     1      10.529 -38.112  -4.195  1.00  0.00     0.036 A 
HETATM   36  C21 UNL     1       9.169 -38.153  -3.944  1.00  0.00     0.104 A 
HETATM   37  C22 UNL     1       8.739 -39.017  -2.941  1.00  0.00     0.061 A 
BRANCH  36  38
HETATM   38  N5  UNL     1       8.276 -37.348  -4.682  1.00  0.00    -0.116 N 
HETATM   39  O5  UNL     1       7.060 -37.500  -4.550  1.00  0.00    -0.532 OA
HETATM   40  O6  UNL     1       8.755 -36.406  -5.539  1.00  0.00    -0.532 OA
ENDBRANCH  36  38
ENDBRANCH  29  32
ENDBRANCH   7  29
TORSDOF 9
ENDMDL
MODEL 3
REMARK VINA RESULT: -9.710562556      3.802      8.691
REMARK  9 active torsions:
REMARK  status: ('A' for Active; 'I' for Inactive)
REMARK    1  A    between atoms: N1_1  and  C1_4 
REMARK    2  A    between atoms: C2_7  and  O1_8 
REMARK    3  A    between atoms: O1_8  and  C3_9 
REMARK    4  A    between atoms: C6_12  and  C7_13 
REMARK    5  A    between atoms: C8_14  and  C9_15 
REMARK    6  A    between atoms: C13_19  and  O2_20 
REMARK    7  A    between atoms: N4_28  and  S1_29 
REMARK    8  A    between atoms: S1_29  and  C17_32 
REMARK    9  A    between atoms: C21_36  and  N5_37 
ROOT
HETATM    1  C1  UNL     1       3.999 -35.135  -8.530  1.00  0.00     0.710 A 
HETATM    2  N2  UNL     1       5.353 -35.227  -8.637  1.00  0.00    -0.151 N 
ATOM      3  H2  UNL     1       5.866 -35.282  -9.518  1.00  0.00     0.188 HD
HETATM    4  C2  UNL     1       5.918 -35.235  -7.423  1.00  0.00     0.260 A 
HETATM    5  N3  UNL     1       4.895 -35.149  -6.557  1.00  0.00    -0.233 N 
ATOM      6  H3  UNL     1       4.990 -35.131  -5.541  1.00  0.00     0.192 HD
HETATM    7  N4  UNL     1       3.740 -35.088  -7.214  1.00  0.00     0.001 N 
ENDROOT
BRANCH   4   8
HETATM    8  O1  UNL     1       7.265 -35.317  -7.129  1.00  0.00    -0.275 OA
BRANCH   8   9
HETATM    9  C3  UNL     1       7.838 -36.160  -6.217  1.00  0.00     0.117 A 
HETATM   10  C4  UNL     1       7.111 -37.211  -5.713  1.00  0.00     0.041 A 
HETATM   11  C5  UNL     1       7.631 -38.086  -4.798  1.00  0.00     0.014 A 
HETATM   12  C6  UNL     1       8.940 -37.926  -4.349  1.00  0.00    -0.033 A 
HETATM   13  C15 UNL     1       9.672 -36.882  -4.845  1.00  0.00     0.056 A 
HETATM   14  C16 UNL     1       9.124 -35.996  -5.781  1.00  0.00     0.151 A 
HETATM   15  F1  UNL     1       9.932 -34.993  -6.199  1.00  0.00    -0.203 F 
BRANCH  12  16
HETATM   16  C7  UNL     1       9.504 -38.851  -3.375  1.00  0.00     0.012 C 
HETATM   17  C8  UNL     1       8.967 -39.984  -3.039  1.00  0.00     0.012 C 
BRANCH  17  18
HETATM   18  C9  UNL     1       9.557 -40.870  -2.071  1.00  0.00    -0.034 A 
HETATM   19  C10 UNL     1      10.261 -41.979  -2.440  1.00  0.00     0.011 A 
HETATM   20  C11 UNL     1      10.815 -42.811  -1.449  1.00  0.00     0.004 A 
HETATM   21  C12 UNL     1      10.663 -42.530  -0.115  1.00  0.00     0.036 A 
HETATM   22  C13 UNL     1       9.958 -41.419   0.272  1.00  0.00     0.066 A 
HETATM   23  C14 UNL     1       9.426 -40.623  -0.706  1.00  0.00     0.048 A 
BRANCH  22  24
HETATM   24  O2  UNL     1       9.803 -41.135   1.629  1.00  0.00    -0.361 OA
ATOM     25  H2  UNL     1       9.085 -40.583   1.916  1.00  0.00     0.217 HD
ENDBRANCH  22  24
ENDBRANCH  17  18
ENDBRANCH  12  16
ENDBRANCH   8   9
ENDBRANCH   4   8
BRANCH   1  26
HETATM   26  N1  UNL     1       3.148 -35.104  -9.517  1.00  0.00    -0.232 N 
ATOM     27  H12 UNL     1       2.138 -35.243  -9.479  1.00  0.00     0.174 HD
ATOM     28  H11 UNL     1       3.369 -34.932 -10.497  1.00  0.00     0.174 HD
ENDBRANCH   1  26
BRANCH   7  29
HETATM   29  S1  UNL     1       2.188 -34.968  -6.466  1.00  0.00     0.297 S 
HETATM   30  O3  UNL     1       1.921 -33.545  -6.103  1.00  0.00    -0.198 OA
HETATM   31  O4  UNL     1       1.115 -35.469  -7.357  1.00  0.00    -0.198 OA
BRANCH  29  32
HETATM   32  C17 UNL     1       2.124 -35.918  -4.982  1.00  0.00     0.084 A 
HETATM   33  C18 UNL     1       1.160 -36.916  -4.877  1.00  0.00     0.025 A 
HETATM   34  C19 UNL     1       1.117 -37.646  -3.720  1.00  0.00     0.004 A 
HETATM   35  C20 UNL     1       2.007 -37.387  -2.704  1.00  0.00     0.036 A 
HETATM   36  C21 UNL     1       2.970 -36.398  -2.794  1.00  0.00     0.104 A 
HETATM   37  C22 UNL     1       3.007 -35.660  -3.973  1.00  0.00     0.061 A 
BRANCH  36  38
HETATM   38  N5  UNL     1       3.863 -36.163  -1.728  1.00  0.00    -0.116 N 
HETATM   39  O5  UNL     1       4.623 -37.060  -1.354  1.00  0.00    -0.532 OA
HETATM   40  O6  UNL     1       3.888 -34.950  -1.113  1.00  0.00    -0.532 OA
ENDBRANCH  36  38
ENDBRANCH  29  32
ENDBRANCH   7  29
TORSDOF 9
ENDMDL
MODEL 4
REMARK VINA RESULT: -9.705084251      1.389      1.457
REMARK  9 active torsions:
REMARK  status: ('A' for Active; 'I' for Inactive)
REMARK    1  A    between atoms: N1_1  and  C1_4 
REMARK    2  A    between atoms: C2_7  and  O1_8 
REMARK    3  A    between atoms: O1_8  and  C3_9 
REMARK    4  A    between atoms: C6_12  and  C7_13 
REMARK    5  A    between atoms: C8_14  and  C9_15 
REMARK    6  A    between atoms: C13_19  and  O2_20 
REMARK    7  A    between atoms: N4_28  and  S1_29 
REMARK    8  A    between atoms: S1_29  and  C17_32 
REMARK    9  A    between atoms: C21_36  and  N5_37 
ROOT
HETATM    1  C1  UNL     1      10.696 -40.697  -2.091  1.00  0.00     0.710 A 
HETATM    2  N2  UNL     1      11.005 -39.840  -3.104  1.00  0.00    -0.151 N 
ATOM      3  H2  UNL     1      11.863 -39.876  -3.656  1.00  0.00     0.188 HD
HETATM    4  C2  UNL     1      10.023 -38.945  -3.273  1.00  0.00     0.260 A 
HETATM    5  N3  UNL     1       9.099 -39.256  -2.349  1.00  0.00    -0.233 N 
ATOM      6  H3  UNL     1       8.219 -38.758  -2.214  1.00  0.00     0.192 HD
HETATM    7  N4  UNL     1       9.496 -40.306  -1.636  1.00  0.00     0.001 N 
ENDROOT
BRANCH   4   8
HETATM    8  O1  UNL     1       9.977 -37.922  -4.200  1.00  0.00    -0.275 OA
BRANCH   8   9
HETATM    9  C3  UNL     1       8.851 -37.441  -4.809  1.00  0.00     0.117 A 
HETATM   10  C4  UNL     1       7.645 -38.064  -4.598  1.00  0.00     0.041 A 
HETATM   11  C5  UNL     1       6.487 -37.629  -5.181  1.00  0.00     0.014 A 
HETATM   12  C6  UNL     1       6.506 -36.516  -6.020  1.00  0.00    -0.033 A 
HETATM   13  C15 UNL     1       7.702 -35.889  -6.236  1.00  0.00     0.056 A 
HETATM   14  C16 UNL     1       8.879 -36.349  -5.632  1.00  0.00     0.151 A 
HETATM   15  F1  UNL     1      10.008 -35.660  -5.921  1.00  0.00    -0.203 F 
BRANCH  12  16
HETATM   16  C7  UNL     1       5.278 -36.043  -6.646  1.00  0.00     0.012 C 
HETATM   17  C8  UNL     1       5.231 -35.300  -7.709  1.00  0.00     0.012 C 
BRANCH  17  18
HETATM   18  C9  UNL     1       3.996 -34.855  -8.296  1.00  0.00    -0.034 A 
HETATM   19  C10 UNL     1       3.631 -35.202  -9.563  1.00  0.00     0.011 A 
HETATM   20  C11 UNL     1       2.409 -34.737 -10.086  1.00  0.00     0.004 A 
HETATM   21  C12 UNL     1       1.574 -33.938  -9.347  1.00  0.00     0.036 A 
HETATM   22  C13 UNL     1       1.928 -33.580  -8.071  1.00  0.00     0.066 A 
HETATM   23  C14 UNL     1       3.119 -34.042  -7.579  1.00  0.00     0.048 A 
BRANCH  22  24
HETATM   24  O2  UNL     1       1.078 -32.767  -7.319  1.00  0.00    -0.361 OA
ATOM     25  H2  UNL     1       1.446 -32.137  -6.710  1.00  0.00     0.217 HD
ENDBRANCH  22  24
ENDBRANCH  17  18
ENDBRANCH  12  16
ENDBRANCH   8   9
ENDBRANCH   4   8
BRANCH   1  26
HETATM   26  N1  UNL     1      11.432 -41.685  -1.667  1.00  0.00    -0.232 N 
ATOM     27  H12 UNL     1      11.825 -42.454  -2.210  1.00  0.00     0.174 HD
ATOM     28  H11 UNL     1      11.732 -41.843  -0.705  1.00  0.00     0.174 HD
ENDBRANCH   1  26
BRANCH   7  29
HETATM   29  S1  UNL     1       8.591 -41.021  -0.350  1.00  0.00     0.297 S 
HETATM   30  O3  UNL     1       9.140 -42.376  -0.052  1.00  0.00    -0.198 OA
HETATM   31  O4  UNL     1       8.629 -40.183   0.872  1.00  0.00    -0.198 OA
BRANCH  29  32
HETATM   32  C17 UNL     1       6.898 -41.218  -0.799  1.00  0.00     0.084 A 
HETATM   33  C18 UNL     1       5.962 -41.401   0.215  1.00  0.00     0.025 A 
HETATM   34  C19 UNL     1       4.651 -41.556  -0.144  1.00  0.00     0.004 A 
HETATM   35  C20 UNL     1       4.288 -41.530  -1.471  1.00  0.00     0.036 A 
HETATM   36  C21 UNL     1       5.207 -41.350  -2.489  1.00  0.00     0.104 A 
HETATM   37  C22 UNL     1       6.538 -41.192  -2.115  1.00  0.00     0.061 A 
BRANCH  36  38
HETATM   38  N5  UNL     1       4.793 -41.329  -3.837  1.00  0.00    -0.116 N 
HETATM   39  O5  UNL     1       3.598 -41.450  -4.115  1.00  0.00    -0.532 OA
HETATM   40  O6  UNL     1       5.711 -41.177  -4.830  1.00  0.00    -0.532 OA
ENDBRANCH  36  38
ENDBRANCH  29  32
ENDBRANCH   7  29
TORSDOF 9
ENDMDL
MODEL 5
REMARK VINA RESULT: -9.677994112      2.542      4.870
REMARK  9 active torsions:
REMARK  status: ('A' for Active; 'I' for Inactive)
REMARK    1  A    between atoms: N1_1  and  C1_4 
REMARK    2  A    between atoms: C2_7  and  O1_8 
REMARK    3  A    between atoms: O1_8  and  C3_9 
REMARK    4  A    between atoms: C6_12  and  C7_13 
REMARK    5  A    between atoms: C8_14  and  C9_15 
REMARK    6  A    between atoms: C13_19  and  O2_20 
REMARK    7  A    between atoms: N4_28  and  S1_29 
REMARK    8  A    between atoms: S1_29  and  C17_32 
REMARK    9  A    between atoms: C21_36  and  N5_37 
ROOT
HETATM    1  C1  UNL     1       6.756 -42.256  -1.257  1.00  0.00     0.710 A 
HETATM    2  N2  UNL     1       5.884 -41.233  -1.478  1.00  0.00    -0.151 N 
ATOM      3  H2  UNL     1       4.908 -41.348  -1.752  1.00  0.00     0.188 HD
HETATM    4  C2  UNL     1       6.489 -40.055  -1.282  1.00  0.00     0.260 A 
HETATM    5  N3  UNL     1       7.752 -40.359  -0.938  1.00  0.00    -0.233 N 
ATOM      6  H3  UNL     1       8.478 -39.676  -0.721  1.00  0.00     0.192 HD
HETATM    7  N4  UNL     1       7.920 -41.678  -0.921  1.00  0.00     0.001 N 
ENDROOT
BRANCH   4   8
HETATM    8  O1  UNL     1       5.931 -38.798  -1.411  1.00  0.00    -0.275 OA
BRANCH   8   9
HETATM    9  C3  UNL     1       5.584 -38.190  -2.585  1.00  0.00     0.117 A 
HETATM   10  C4  UNL     1       6.318 -38.433  -3.720  1.00  0.00     0.041 A 
HETATM   11  C5  UNL     1       6.019 -37.853  -4.922  1.00  0.00     0.014 A 
HETATM   12  C6  UNL     1       4.935 -36.983  -5.023  1.00  0.00    -0.033 A 
HETATM   13  C15 UNL     1       4.197 -36.734  -3.898  1.00  0.00     0.056 A 
HETATM   14  C16 UNL     1       4.519 -37.336  -2.676  1.00  0.00     0.151 A 
HETATM   15  F1  UNL     1       3.729 -37.013  -1.625  1.00  0.00    -0.203 F 
BRANCH  12  16
HETATM   16  C7  UNL     1       4.607 -36.359  -6.298  1.00  0.00     0.012 C 
HETATM   17  C8  UNL     1       3.417 -36.319  -6.815  1.00  0.00     0.012 C 
BRANCH  17  18
HETATM   18  C9  UNL     1       3.136 -35.693  -8.079  1.00  0.00    -0.034 A 
HETATM   19  C10 UNL     1       2.032 -34.914  -8.270  1.00  0.00     0.011 A 
HETATM   20  C11 UNL     1       1.807 -34.326  -9.529  1.00  0.00     0.004 A 
HETATM   21  C12 UNL     1       2.676 -34.520 -10.573  1.00  0.00     0.036 A 
HETATM   22  C13 UNL     1       3.790 -35.300 -10.396  1.00  0.00     0.066 A 
HETATM   23  C14 UNL     1       3.992 -35.864  -9.165  1.00  0.00     0.048 A 
BRANCH  22  24
HETATM   24  O2  UNL     1       4.674 -35.497 -11.458  1.00  0.00    -0.361 OA
ATOM     25  H2  UNL     1       4.667 -34.895 -12.194  1.00  0.00     0.217 HD
ENDBRANCH  22  24
ENDBRANCH  17  18
ENDBRANCH  12  16
ENDBRANCH   8   9
ENDBRANCH   4   8
BRANCH   1  26
HETATM   26  N1  UNL     1       6.492 -43.528  -1.359  1.00  0.00    -0.232 N 
ATOM     27  H12 UNL     1       5.829 -44.078  -0.812  1.00  0.00     0.174 HD
ATOM     28  H11 UNL     1       6.920 -44.181  -2.016  1.00  0.00     0.174 HD
ENDBRANCH   1  26
BRANCH   7  29
HETATM   29  S1  UNL     1       9.399 -42.477  -0.526  1.00  0.00     0.297 S 
HETATM   30  O3  UNL     1       9.787 -42.136   0.875  1.00  0.00    -0.198 OA
HETATM   31  O4  UNL     1       9.278 -43.947  -0.671  1.00  0.00    -0.198 OA
BRANCH  29  32
HETATM   32  C17 UNL     1      10.706 -41.950  -1.585  1.00  0.00     0.084 A 
HETATM   33  C18 UNL     1      11.642 -42.893  -1.998  1.00  0.00     0.025 A 
HETATM   34  C19 UNL     1      12.655 -42.474  -2.817  1.00  0.00     0.004 A 
HETATM   35  C20 UNL     1      12.728 -41.158  -3.210  1.00  0.00     0.036 A 
HETATM   36  C21 UNL     1      11.805 -40.210  -2.807  1.00  0.00     0.104 A 
HETATM   37  C22 UNL     1      10.779 -40.644  -1.975  1.00  0.00     0.061 A 
BRANCH  36  38
HETATM   38  N5  UNL     1      11.917 -38.870  -3.233  1.00  0.00    -0.116 N 
HETATM   39  O5  UNL     1      11.053 -38.384  -3.967  1.00  0.00    -0.532 OA
HETATM   40  O6  UNL     1      12.975 -38.113  -2.834  1.00  0.00    -0.532 OA
ENDBRANCH  36  38
ENDBRANCH  29  32
ENDBRANCH   7  29
TORSDOF 9
ENDMDL
