MODEL 1
REMARK VINA RESULT: -7.131214575      0.000      0.000
REMARK  11 active torsions:
REMARK  status: ('A' for Active; 'I' for Inactive)
REMARK    1  A    between atoms: O1_2  and  C2_3 
REMARK    2  A    between atoms: C2_3  and  C3_4 
REMARK    3  A    between atoms: C3_4  and  S1_5 
REMARK    4  A    between atoms: S1_5  and  N1_8 
REMARK    5  A    between atoms: N1_8  and  C4_10 
REMARK    6  A    between atoms: C8_14  and  C9_15 
REMARK    7  A    between atoms: C9_15  and  C10_16 
REMARK    8  A    between atoms: C10_16  and  N2_17 
REMARK    9  A    between atoms: N2_17  and  C11_20 
REMARK   10  A    between atoms: C11_20  and  C12_21 
REMARK   11  A    between atoms: C16_25  and  C17_26 
ROOT
HETATM    1  C9  UNL     1      33.366  12.273  10.704  1.00  0.00     0.066 C 
ENDROOT
BRANCH   1   2
HETATM    2  C8  UNL     1      34.465  11.691  11.527  1.00  0.00    -0.054 A 
HETATM    3  C7  UNL     1      35.775  11.820  11.092  1.00  0.00     0.007 A 
HETATM    4  C6  UNL     1      36.803  11.289  11.841  1.00  0.00     0.003 A 
HETATM    5  C5  UNL     1      36.559  10.623  13.031  1.00  0.00     0.030 A 
HETATM    6  C4  UNL     1      35.258  10.484  13.482  1.00  0.00     0.042 A 
HETATM    7  C19 UNL     1      34.252  11.027  12.710  1.00  0.00     0.037 A 
BRANCH   6   8
HETATM    8  N1  UNL     1      34.974   9.807  14.699  1.00  0.00    -0.285 N 
ATOM      9  H1  UNL     1      34.501  10.324  15.440  1.00  0.00     0.178 HD
BRANCH   8  10
HETATM   10  S1  UNL     1      35.381   8.172  14.987  1.00  0.00     0.232 S 
HETATM   11  O2  UNL     1      34.230   7.423  15.581  1.00  0.00    -0.206 OA
HETATM   12  O3  UNL     1      35.816   7.441  13.763  1.00  0.00    -0.206 OA
BRANCH  10  13
HETATM   13  C3  UNL     1      36.697   8.146  16.190  1.00  0.00     0.189 C 
BRANCH  13  14
HETATM   14  C2  UNL     1      36.155   8.301  17.595  1.00  0.00     0.183 C 
BRANCH  14  15
HETATM   15  O1  UNL     1      35.692   9.584  17.816  1.00  0.00    -0.395 OA
HETATM   16  C1  UNL     1      34.496   9.530  18.528  1.00  0.00     0.201 C 
ENDBRANCH  14  15
ENDBRANCH  13  14
ENDBRANCH  10  13
ENDBRANCH   8  10
ENDBRANCH   6   8
ENDBRANCH   1   2
BRANCH   1  17
HETATM   17  C10 UNL     1      33.394  11.732   9.290  1.00  0.00     0.237 C 
BRANCH  17  18
HETATM   18  N2  UNL     1      33.218  10.303   9.357  1.00  0.00    -0.071 N 
ATOM     19  H22 UNL     1      33.571   9.925  10.236  1.00  0.00     0.277 HD
ATOM     20  H21 UNL     1      32.234  10.054   9.460  1.00  0.00     0.277 HD
BRANCH  18  21
HETATM   21  C11 UNL     1      33.816   9.633   8.213  1.00  0.00     0.270 C 
BRANCH  21  22
HETATM   22  C12 UNL     1      35.255   9.436   8.494  1.00  0.00    -0.032 A 
HETATM   23  C13 UNL     1      36.191  10.216   7.889  1.00  0.00     0.009 A 
HETATM   24  C14 UNL     1      37.558  10.054   8.134  1.00  0.00     0.002 A 
HETATM   25  C15 UNL     1      37.903   9.068   9.018  1.00  0.00     0.015 A 
HETATM   26  C16 UNL     1      36.974   8.258   9.650  1.00  0.00     0.005 A 
HETATM   27  C18 UNL     1      35.643   8.453   9.379  1.00  0.00     0.023 A 
BRANCH  26  28
HETATM   28  C17 UNL     1      37.445   7.240  10.571  1.00  0.00     0.120 C 
HETATM   29  N3  UNL     1      37.801   7.458  11.770  1.00  0.00    -0.387 N 
ATOM     30  H32 UNL     1      37.743   8.426  12.086  1.00  0.00     0.157 HD
ATOM     31  H31 UNL     1      38.133   6.743  12.417  1.00  0.00     0.157 HD
HETATM   32  N4  UNL     1      37.529   5.870  10.123  1.00  0.00    -0.082 NA
ENDBRANCH  26  28
ENDBRANCH  21  22
ENDBRANCH  18  21
ENDBRANCH  17  18
ENDBRANCH   1  17
TORSDOF 11
ENDMDL
MODEL 2
REMARK VINA RESULT: -7.024394143      1.414      1.803
REMARK  11 active torsions:
REMARK  status: ('A' for Active; 'I' for Inactive)
REMARK    1  A    between atoms: O1_2  and  C2_3 
REMARK    2  A    between atoms: C2_3  and  C3_4 
REMARK    3  A    between atoms: C3_4  and  S1_5 
REMARK    4  A    between atoms: S1_5  and  N1_8 
REMARK    5  A    between atoms: N1_8  and  C4_10 
REMARK    6  A    between atoms: C8_14  and  C9_15 
REMARK    7  A    between atoms: C9_15  and  C10_16 
REMARK    8  A    between atoms: C10_16  and  N2_17 
REMARK    9  A    between atoms: N2_17  and  C11_20 
REMARK   10  A    between atoms: C11_20  and  C12_21 
REMARK   11  A    between atoms: C16_25  and  C17_26 
ROOT
HETATM    1  C9  UNL     1      33.307  11.976  10.444  1.00  0.00     0.066 C 
ENDROOT
BRANCH   1   2
HETATM    2  C8  UNL     1      34.419  11.568  11.349  1.00  0.00    -0.054 A 
HETATM    3  C7  UNL     1      35.725  11.852  10.983  1.00  0.00     0.007 A 
HETATM    4  C6  UNL     1      36.767  11.482  11.808  1.00  0.00     0.003 A 
HETATM    5  C5  UNL     1      36.539  10.826  13.006  1.00  0.00     0.030 A 
HETATM    6  C4  UNL     1      35.240  10.533  13.389  1.00  0.00     0.042 A 
HETATM    7  C19 UNL     1      34.222  10.917  12.542  1.00  0.00     0.037 A 
BRANCH   6   8
HETATM    8  N1  UNL     1      34.972   9.862  14.612  1.00  0.00    -0.285 N 
ATOM      9  H1  UNL     1      34.496  10.378  15.352  1.00  0.00     0.178 HD
BRANCH   8  10
HETATM   10  S1  UNL     1      35.404   8.235  14.912  1.00  0.00     0.232 S 
HETATM   11  O2  UNL     1      34.257   7.466  15.486  1.00  0.00    -0.206 OA
HETATM   12  O3  UNL     1      35.876   7.511  13.697  1.00  0.00    -0.206 OA
BRANCH  10  13
HETATM   13  C3  UNL     1      36.698   8.236  16.138  1.00  0.00     0.189 C 
BRANCH  13  14
HETATM   14  C2  UNL     1      36.124   8.295  17.538  1.00  0.00     0.183 C 
BRANCH  14  15
HETATM   15  O1  UNL     1      35.710   9.574  17.856  1.00  0.00    -0.395 OA
HETATM   16  C1  UNL     1      34.440   9.522  18.426  1.00  0.00     0.201 C 
ENDBRANCH  14  15
ENDBRANCH  13  14
ENDBRANCH  10  13
ENDBRANCH   8  10
ENDBRANCH   6   8
ENDBRANCH   1   2
BRANCH   1  17
HETATM   17  C10 UNL     1      33.715  11.871   8.990  1.00  0.00     0.237 C 
BRANCH  17  18
HETATM   18  N2  UNL     1      33.487  10.514   8.561  1.00  0.00    -0.071 N 
ATOM     19  H22 UNL     1      33.408   9.881   9.357  1.00  0.00     0.277 HD
ATOM     20  H21 UNL     1      32.551  10.398   8.172  1.00  0.00     0.277 HD
BRANCH  18  21
HETATM   21  C11 UNL     1      34.508  10.066   7.627  1.00  0.00     0.270 C 
BRANCH  21  22
HETATM   22  C12 UNL     1      35.639   9.519   8.407  1.00  0.00    -0.032 A 
HETATM   23  C13 UNL     1      35.431   8.556   9.345  1.00  0.00     0.009 A 
HETATM   24  C14 UNL     1      36.479   8.019  10.098  1.00  0.00     0.002 A 
HETATM   25  C15 UNL     1      37.728   8.516   9.841  1.00  0.00     0.015 A 
HETATM   26  C16 UNL     1      37.972   9.495   8.893  1.00  0.00     0.005 A 
HETATM   27  C18 UNL     1      36.913   9.993   8.176  1.00  0.00     0.023 A 
BRANCH  26  28
HETATM   28  C17 UNL     1      39.335   9.954   8.696  1.00  0.00     0.120 C 
HETATM   29  N3  UNL     1      39.852  10.958   9.277  1.00  0.00    -0.387 N 
ATOM     30  H32 UNL     1      39.246  11.463   9.924  1.00  0.00     0.157 HD
ATOM     31  H31 UNL     1      40.810  11.280   9.139  1.00  0.00     0.157 HD
HETATM   32  N4  UNL     1      40.194   9.240   7.781  1.00  0.00    -0.082 NA
ENDBRANCH  26  28
ENDBRANCH  21  22
ENDBRANCH  18  21
ENDBRANCH  17  18
ENDBRANCH   1  17
TORSDOF 11
ENDMDL
MODEL 3
REMARK VINA RESULT: -6.983888517      3.280      6.413
REMARK  11 active torsions:
REMARK  status: ('A' for Active; 'I' for Inactive)
REMARK    1  A    between atoms: O1_2  and  C2_3 
REMARK    2  A    between atoms: C2_3  and  C3_4 
REMARK    3  A    between atoms: C3_4  and  S1_5 
REMARK    4  A    between atoms: S1_5  and  N1_8 
REMARK    5  A    between atoms: N1_8  and  C4_10 
REMARK    6  A    between atoms: C8_14  and  C9_15 
REMARK    7  A    between atoms: C9_15  and  C10_16 
REMARK    8  A    between atoms: C10_16  and  N2_17 
REMARK    9  A    between atoms: N2_17  and  C11_20 
REMARK   10  A    between atoms: C11_20  and  C12_21 
REMARK   11  A    between atoms: C16_25  and  C17_26 
ROOT
HETATM    1  C9  UNL     1      39.588  11.904  10.918  1.00  0.00     0.066 C 
ENDROOT
BRANCH   1   2
HETATM    2  C8  UNL     1      38.527  11.077  10.275  1.00  0.00    -0.054 A 
HETATM    3  C7  UNL     1      38.881  10.177   9.283  1.00  0.00     0.007 A 
HETATM    4  C6  UNL     1      37.914   9.404   8.677  1.00  0.00     0.003 A 
HETATM    5  C5  UNL     1      36.581   9.504   9.040  1.00  0.00     0.030 A 
HETATM    6  C4  UNL     1      36.206  10.397  10.030  1.00  0.00     0.042 A 
HETATM    7  C19 UNL     1      37.199  11.155  10.615  1.00  0.00     0.037 A 
BRANCH   6   8
HETATM    8  N1  UNL     1      34.847  10.523  10.425  1.00  0.00    -0.285 N 
ATOM      9  H1  UNL     1      34.331   9.675  10.658  1.00  0.00     0.178 HD
BRANCH   8  10
HETATM   10  S1  UNL     1      34.030  12.021  10.532  1.00  0.00     0.232 S 
HETATM   11  O2  UNL     1      33.084  12.040  11.690  1.00  0.00    -0.206 OA
HETATM   12  O3  UNL     1      34.944  13.190  10.671  1.00  0.00    -0.206 OA
BRANCH  10  13
HETATM   13  C3  UNL     1      33.050  12.209   9.054  1.00  0.00     0.189 C 
BRANCH  13  14
HETATM   14  C2  UNL     1      33.581  11.343   7.932  1.00  0.00     0.183 C 
BRANCH  14  15
HETATM   15  O1  UNL     1      33.140  10.039   8.055  1.00  0.00    -0.395 OA
HETATM   16  C1  UNL     1      33.467   9.328   6.902  1.00  0.00     0.201 C 
ENDBRANCH  14  15
ENDBRANCH  13  14
ENDBRANCH  10  13
ENDBRANCH   8  10
ENDBRANCH   6   8
ENDBRANCH   1   2
BRANCH   1  17
HETATM   17  C10 UNL     1      40.604  11.036  11.630  1.00  0.00     0.237 C 
BRANCH  17  18
HETATM   18  N2  UNL     1      40.173  10.875  12.996  1.00  0.00    -0.071 N 
ATOM     19  H22 UNL     1      40.722  11.455  13.630  1.00  0.00     0.277 HD
ATOM     20  H21 UNL     1      39.256  11.296  13.149  1.00  0.00     0.277 HD
BRANCH  18  21
HETATM   21  C11 UNL     1      40.190   9.480  13.404  1.00  0.00     0.270 C 
BRANCH  21  22
HETATM   22  C12 UNL     1      38.865   8.895  13.107  1.00  0.00    -0.032 A 
HETATM   23  C13 UNL     1      38.742   7.878  12.213  1.00  0.00     0.009 A 
HETATM   24  C14 UNL     1      37.503   7.305  11.911  1.00  0.00     0.002 A 
HETATM   25  C15 UNL     1      36.419   7.823  12.566  1.00  0.00     0.015 A 
HETATM   26  C16 UNL     1      36.512   8.858  13.482  1.00  0.00     0.005 A 
HETATM   27  C18 UNL     1      37.749   9.390  13.748  1.00  0.00     0.023 A 
BRANCH  26  28
HETATM   28  C17 UNL     1      35.300   9.335  14.123  1.00  0.00     0.120 C 
HETATM   29  N3  UNL     1      34.744  10.451  13.880  1.00  0.00    -0.387 N 
ATOM     30  H32 UNL     1      35.201  11.036  13.180  1.00  0.00     0.157 HD
ATOM     31  H31 UNL     1      33.893  10.786  14.330  1.00  0.00     0.157 HD
HETATM   32  N4  UNL     1      34.653   8.507  15.113  1.00  0.00    -0.082 NA
ENDBRANCH  26  28
ENDBRANCH  21  22
ENDBRANCH  18  21
ENDBRANCH  17  18
ENDBRANCH   1  17
TORSDOF 11
ENDMDL
MODEL 4
REMARK VINA RESULT: -6.960320739      3.951      6.573
REMARK  11 active torsions:
REMARK  status: ('A' for Active; 'I' for Inactive)
REMARK    1  A    between atoms: O1_2  and  C2_3 
REMARK    2  A    between atoms: C2_3  and  C3_4 
REMARK    3  A    between atoms: C3_4  and  S1_5 
REMARK    4  A    between atoms: S1_5  and  N1_8 
REMARK    5  A    between atoms: N1_8  and  C4_10 
REMARK    6  A    between atoms: C8_14  and  C9_15 
REMARK    7  A    between atoms: C9_15  and  C10_16 
REMARK    8  A    between atoms: C10_16  and  N2_17 
REMARK    9  A    between atoms: N2_17  and  C11_20 
REMARK   10  A    between atoms: C11_20  and  C12_21 
REMARK   11  A    between atoms: C16_25  and  C17_26 
ROOT
HETATM    1  C9  UNL     1      33.835  10.099   7.561  1.00  0.00     0.066 C 
ENDROOT
BRANCH   1   2
HETATM    2  C8  UNL     1      35.144   9.687   8.144  1.00  0.00    -0.054 A 
HETATM    3  C7  UNL     1      35.189   8.593   8.993  1.00  0.00     0.007 A 
HETATM    4  C6  UNL     1      36.390   8.196   9.541  1.00  0.00     0.003 A 
HETATM    5  C5  UNL     1      37.567   8.870   9.261  1.00  0.00     0.030 A 
HETATM    6  C4  UNL     1      37.543   9.966   8.413  1.00  0.00     0.042 A 
HETATM    7  C19 UNL     1      36.325  10.336   7.882  1.00  0.00     0.037 A 
BRANCH   6   8
HETATM    8  N1  UNL     1      38.733  10.679   8.105  1.00  0.00    -0.285 N 
ATOM      9  H1  UNL     1      38.646  11.613   7.705  1.00  0.00     0.178 HD
BRANCH   8  10
HETATM   10  S1  UNL     1      40.302  10.055   8.367  1.00  0.00     0.232 S 
HETATM   11  O2  UNL     1      40.520   9.723   9.809  1.00  0.00    -0.206 OA
HETATM   12  O3  UNL     1      40.598   8.831   7.569  1.00  0.00    -0.206 OA
BRANCH  10  13
HETATM   13  C3  UNL     1      41.471  11.333   7.942  1.00  0.00     0.189 C 
BRANCH  13  14
HETATM   14  C2  UNL     1      42.708  11.252   8.811  1.00  0.00     0.183 C 
BRANCH  14  15
HETATM   15  O1  UNL     1      43.556  10.248   8.384  1.00  0.00    -0.395 OA
HETATM   16  C1  UNL     1      43.983   9.504   9.482  1.00  0.00     0.201 C 
ENDBRANCH  14  15
ENDBRANCH  13  14
ENDBRANCH  10  13
ENDBRANCH   8  10
ENDBRANCH   6   8
ENDBRANCH   1   2
BRANCH   1  17
HETATM   17  C10 UNL     1      33.542  11.557   7.846  1.00  0.00     0.237 C 
BRANCH  17  18
HETATM   18  N2  UNL     1      33.144  11.669   9.227  1.00  0.00    -0.071 N 
ATOM     19  H22 UNL     1      32.149  11.879   9.311  1.00  0.00     0.277 HD
ATOM     20  H21 UNL     1      33.155  10.761   9.692  1.00  0.00     0.277 HD
BRANCH  18  21
HETATM   21  C11 UNL     1      33.953  12.641   9.943  1.00  0.00     0.270 C 
BRANCH  21  22
HETATM   22  C12 UNL     1      34.649  11.942  11.044  1.00  0.00    -0.032 A 
HETATM   23  C13 UNL     1      33.943  11.385  12.065  1.00  0.00     0.009 A 
HETATM   24  C14 UNL     1      34.572  10.717  13.120  1.00  0.00     0.002 A 
HETATM   25  C15 UNL     1      35.938  10.653  13.070  1.00  0.00     0.015 A 
HETATM   26  C16 UNL     1      36.684  11.209  12.044  1.00  0.00     0.005 A 
HETATM   27  C18 UNL     1      36.025  11.855  11.029  1.00  0.00     0.023 A 
BRANCH  26  28
HETATM   28  C17 UNL     1      38.130  11.086  12.085  1.00  0.00     0.120 C 
HETATM   29  N3  UNL     1      38.938  11.827  11.445  1.00  0.00    -0.387 N 
ATOM     30  H32 UNL     1      38.517  12.555  10.867  1.00  0.00     0.157 HD
ATOM     31  H31 UNL     1      39.954  11.740  11.473  1.00  0.00     0.157 HD
HETATM   32  N4  UNL     1      38.726  10.055  12.902  1.00  0.00    -0.082 NA
ENDBRANCH  26  28
ENDBRANCH  21  22
ENDBRANCH  18  21
ENDBRANCH  17  18
ENDBRANCH   1  17
TORSDOF 11
ENDMDL
MODEL 5
REMARK VINA RESULT: -6.921515477      4.462      6.916
REMARK  11 active torsions:
REMARK  status: ('A' for Active; 'I' for Inactive)
REMARK    1  A    between atoms: O1_2  and  C2_3 
REMARK    2  A    between atoms: C2_3  and  C3_4 
REMARK    3  A    between atoms: C3_4  and  S1_5 
REMARK    4  A    between atoms: S1_5  and  N1_8 
REMARK    5  A    between atoms: N1_8  and  C4_10 
REMARK    6  A    between atoms: C8_14  and  C9_15 
REMARK    7  A    between atoms: C9_15  and  C10_16 
REMARK    8  A    between atoms: C10_16  and  N2_17 
REMARK    9  A    between atoms: N2_17  and  C11_20 
REMARK   10  A    between atoms: C11_20  and  C12_21 
REMARK   11  A    between atoms: C16_25  and  C17_26 
ROOT
HETATM    1  C9  UNL     1      35.085   9.417   7.106  1.00  0.00     0.066 C 
ENDROOT
BRANCH   1   2
HETATM    2  C8  UNL     1      36.193   9.231   8.086  1.00  0.00    -0.054 A 
HETATM    3  C7  UNL     1      36.136   8.169   8.975  1.00  0.00     0.007 A 
HETATM    4  C6  UNL     1      37.151   7.980   9.888  1.00  0.00     0.003 A 
HETATM    5  C5  UNL     1      38.240   8.834   9.941  1.00  0.00     0.030 A 
HETATM    6  C4  UNL     1      38.316   9.902   9.061  1.00  0.00     0.042 A 
HETATM    7  C19 UNL     1      37.284  10.062   8.160  1.00  0.00     0.037 A 
BRANCH   6   8
HETATM    8  N1  UNL     1      39.420  10.796   9.089  1.00  0.00    -0.285 N 
ATOM      9  H1  UNL     1      39.473  11.474   9.849  1.00  0.00     0.178 HD
BRANCH   8  10
HETATM   10  S1  UNL     1      40.665  10.796   7.918  1.00  0.00     0.232 S 
HETATM   11  O2  UNL     1      40.942   9.413   7.421  1.00  0.00    -0.206 OA
HETATM   12  O3  UNL     1      40.369  11.654   6.735  1.00  0.00    -0.206 OA
BRANCH  10  13
HETATM   13  C3  UNL     1      42.153  11.375   8.710  1.00  0.00     0.189 C 
BRANCH  13  14
HETATM   14  C2  UNL     1      42.282  10.812  10.109  1.00  0.00     0.183 C 
BRANCH  14  15
HETATM   15  O1  UNL     1      41.440  11.463  10.991  1.00  0.00    -0.395 OA
HETATM   16  C1  UNL     1      41.424  10.783  12.206  1.00  0.00     0.201 C 
ENDBRANCH  14  15
ENDBRANCH  13  14
ENDBRANCH  10  13
ENDBRANCH   8  10
ENDBRANCH   6   8
ENDBRANCH   1   2
BRANCH   1  17
HETATM   17  C10 UNL     1      33.749   9.550   7.806  1.00  0.00     0.237 C 
BRANCH  17  18
HETATM   18  N2  UNL     1      33.298  10.910   7.650  1.00  0.00    -0.071 N 
ATOM     19  H22 UNL     1      33.084  11.121   6.675  1.00  0.00     0.277 HD
ATOM     20  H21 UNL     1      32.369  11.042   8.049  1.00  0.00     0.277 HD
BRANCH  18  21
HETATM   21  C11 UNL     1      34.252  11.859   8.201  1.00  0.00     0.270 C 
BRANCH  21  22
HETATM   22  C12 UNL     1      34.035  11.936   9.662  1.00  0.00    -0.032 A 
HETATM   23  C13 UNL     1      34.957  11.430  10.525  1.00  0.00     0.009 A 
HETATM   24  C14 UNL     1      34.782  11.487  11.910  1.00  0.00     0.002 A 
HETATM   25  C15 UNL     1      33.630  12.080  12.352  1.00  0.00     0.015 A 
HETATM   26  C16 UNL     1      32.673  12.604  11.499  1.00  0.00     0.005 A 
HETATM   27  C18 UNL     1      32.888  12.526  10.146  1.00  0.00     0.023 A 
BRANCH  26  28
HETATM   28  C17 UNL     1      31.486  13.213  12.070  1.00  0.00     0.120 C 
HETATM   29  N3  UNL     1      30.940  14.276  11.641  1.00  0.00    -0.387 N 
ATOM     30  H32 UNL     1      31.386  14.715  10.835  1.00  0.00     0.157 HD
ATOM     31  H31 UNL     1      30.106  14.704  12.042  1.00  0.00     0.157 HD
HETATM   32  N4  UNL     1      30.855  12.592  13.211  1.00  0.00    -0.082 NA
ENDBRANCH  26  28
ENDBRANCH  21  22
ENDBRANCH  18  21
ENDBRANCH  17  18
ENDBRANCH   1  17
TORSDOF 11
ENDMDL
