MODEL 1
REMARK VINA RESULT: -7.817997934      0.000      0.000
REMARK  12 active torsions:
REMARK  status: ('A' for Active; 'I' for Inactive)
REMARK    1  A    between atoms: C6_11  and  C7_12 
REMARK    2  A    between atoms: C8_13  and  C9_14 
REMARK    3  A    between atoms: C13_18  and  C14_19 
REMARK       I    between atoms: C14_19  and  N3_21 
REMARK    4  A    between atoms: N3_21  and  C15_23 
REMARK    5  A    between atoms: C15_23  and  C16_24 
REMARK    6  A    between atoms: C16_24  and  O2_25 
REMARK    7  A    between atoms: O2_25  and  C17_26 
REMARK    8  A    between atoms: C17_26  and  C18_27 
REMARK    9  A    between atoms: C18_27  and  O3_28 
REMARK   10  A    between atoms: O3_28  and  C19_29 
REMARK   11  A    between atoms: C19_29  and  C20_30 
REMARK   12  A    between atoms: C20_30  and  N4_31 
ROOT
HETATM    1  C9  UNL     1      36.230   9.859   7.958  1.00  0.00    -0.035 A 
HETATM    2  C10 UNL     1      35.492   9.338   6.924  1.00  0.00     0.011 A 
HETATM    3  C11 UNL     1      34.180   9.678   6.691  1.00  0.00     0.002 A 
HETATM    4  C12 UNL     1      33.541  10.595   7.531  1.00  0.00     0.017 A 
HETATM    5  C13 UNL     1      34.254  11.136   8.577  1.00  0.00     0.032 A 
HETATM    6  C21 UNL     1      35.581  10.764   8.776  1.00  0.00     0.028 A 
ENDROOT
BRANCH   5   7
HETATM    7  C14 UNL     1      33.664  12.107   9.512  1.00  0.00     0.251 C 
HETATM    8  O1  UNL     1      33.954  13.325   9.376  1.00  0.00    -0.268 OA
HETATM    9  N3  UNL     1      32.799  11.699  10.534  1.00  0.00    -0.355 N 
ATOM     10  H3  UNL     1      32.563  10.713  10.646  1.00  0.00     0.162 HD
BRANCH   9  11
HETATM   11  C15 UNL     1      32.243  12.688  11.430  1.00  0.00     0.149 C 
BRANCH  11  12
HETATM   12  C16 UNL     1      33.023  12.784  12.730  1.00  0.00     0.187 C 
BRANCH  12  13
HETATM   13  O2  UNL     1      33.490  11.538  13.109  1.00  0.00    -0.387 OA
BRANCH  13  14
HETATM   14  C17 UNL     1      34.846  11.380  13.108  1.00  0.00     0.193 C 
BRANCH  14  15
HETATM   15  C18 UNL     1      35.395  10.062  13.510  1.00  0.00     0.193 C 
BRANCH  15  16
HETATM   16  O3  UNL     1      34.577   9.322  14.276  1.00  0.00    -0.387 OA
BRANCH  16  17
HETATM   17  C19 UNL     1      34.940   8.880  15.500  1.00  0.00     0.195 C 
BRANCH  17  18
HETATM   18  C20 UNL     1      34.899   7.336  15.440  1.00  0.00     0.255 C 
BRANCH  18  19
HETATM   19  N4  UNL     1      33.751   6.885  16.202  1.00  0.00    -0.077 N 
ATOM     20  H43 UNL     1      33.927   6.012  16.699  1.00  0.00     0.274 HD
ATOM     21  H42 UNL     1      33.563   7.471  17.016  1.00  0.00     0.274 HD
ATOM     22  H41 UNL     1      32.954   6.823  15.569  1.00  0.00     0.274 HD
ENDBRANCH  18  19
ENDBRANCH  17  18
ENDBRANCH  16  17
ENDBRANCH  15  16
ENDBRANCH  14  15
ENDBRANCH  13  14
ENDBRANCH  12  13
ENDBRANCH  11  12
ENDBRANCH   9  11
ENDBRANCH   5   7
BRANCH   1  23
HETATM   23  C8  UNL     1      37.632   9.511   8.225  1.00  0.00     0.012 C 
HETATM   24  C7  UNL     1      38.521  10.402   8.604  1.00  0.00     0.014 C 
BRANCH  24  25
HETATM   25  C6  UNL     1      39.927  10.082   8.877  1.00  0.00    -0.014 A 
HETATM   26  C2  UNL     1      40.505  10.679   9.985  1.00  0.00     0.017 A 
HETATM   27  C1  UNL     1      39.711  11.614  10.859  1.00  0.00     0.069 C 
HETATM   28  N1  UNL     1      41.771  10.431  10.287  1.00  0.00    -0.346 N 
HETATM   29  C3  UNL     1      42.509   9.595   9.518  1.00  0.00     0.098 A 
ATOM     30  H1  UNL     1      42.194  10.873  11.104  1.00  0.00     0.167 HD
HETATM   31  N2  UNL     1      43.726   9.374   9.830  1.00  0.00    -0.385 N 
HETATM   32  C4  UNL     1      41.972   8.979   8.405  1.00  0.00     0.049 A 
ATOM     33  H22 UNL     1      44.123   9.829  10.652  1.00  0.00     0.157 HD
ATOM     34  H21 UNL     1      44.281   8.744   9.251  1.00  0.00     0.157 HD
HETATM   35  C5  UNL     1      40.645   9.227   8.072  1.00  0.00     0.017 A 
ENDBRANCH  24  25
ENDBRANCH   1  23
TORSDOF 12
ENDMDL
MODEL 2
REMARK VINA RESULT: -7.736239074      2.682      2.867
REMARK  12 active torsions:
REMARK  status: ('A' for Active; 'I' for Inactive)
REMARK    1  A    between atoms: C6_11  and  C7_12 
REMARK    2  A    between atoms: C8_13  and  C9_14 
REMARK    3  A    between atoms: C13_18  and  C14_19 
REMARK       I    between atoms: C14_19  and  N3_21 
REMARK    4  A    between atoms: N3_21  and  C15_23 
REMARK    5  A    between atoms: C15_23  and  C16_24 
REMARK    6  A    between atoms: C16_24  and  O2_25 
REMARK    7  A    between atoms: O2_25  and  C17_26 
REMARK    8  A    between atoms: C17_26  and  C18_27 
REMARK    9  A    between atoms: C18_27  and  O3_28 
REMARK   10  A    between atoms: O3_28  and  C19_29 
REMARK   11  A    between atoms: C19_29  and  C20_30 
REMARK   12  A    between atoms: C20_30  and  N4_31 
ROOT
HETATM    1  C9  UNL     1      35.498   8.931   8.134  1.00  0.00    -0.035 A 
HETATM    2  C10 UNL     1      34.948   8.885   6.876  1.00  0.00     0.011 A 
HETATM    3  C11 UNL     1      34.006   9.785   6.435  1.00  0.00     0.002 A 
HETATM    4  C12 UNL     1      33.568  10.804   7.286  1.00  0.00     0.017 A 
HETATM    5  C13 UNL     1      34.101  10.878   8.553  1.00  0.00     0.032 A 
HETATM    6  C21 UNL     1      35.053   9.946   8.958  1.00  0.00     0.028 A 
ENDROOT
BRANCH   5   7
HETATM    7  C14 UNL     1      33.700  11.916   9.516  1.00  0.00     0.251 C 
HETATM    8  O1  UNL     1      34.219  13.059   9.418  1.00  0.00    -0.268 OA
HETATM    9  N3  UNL     1      32.765  11.651  10.523  1.00  0.00    -0.355 N 
ATOM     10  H3  UNL     1      32.344  10.725  10.604  1.00  0.00     0.162 HD
BRANCH   9  11
HETATM   11  C15 UNL     1      32.401  12.701  11.448  1.00  0.00     0.149 C 
BRANCH  11  12
HETATM   12  C16 UNL     1      33.247  12.669  12.709  1.00  0.00     0.187 C 
BRANCH  12  13
HETATM   13  O2  UNL     1      33.515  11.365  13.081  1.00  0.00    -0.387 OA
BRANCH  13  14
HETATM   14  C17 UNL     1      34.834  11.038  13.211  1.00  0.00     0.193 C 
BRANCH  14  15
HETATM   15  C18 UNL     1      35.173   9.752  13.868  1.00  0.00     0.193 C 
BRANCH  15  16
HETATM   16  O3  UNL     1      34.356   9.401  14.874  1.00  0.00    -0.387 OA
BRANCH  16  17
HETATM   17  C19 UNL     1      34.800   8.743  15.967  1.00  0.00     0.195 C 
BRANCH  17  18
HETATM   18  C20 UNL     1      34.693   7.235  15.644  1.00  0.00     0.255 C 
BRANCH  18  19
HETATM   19  N4  UNL     1      33.500   6.718  16.285  1.00  0.00    -0.077 N 
ATOM     20  H43 UNL     1      33.370   5.719  16.129  1.00  0.00     0.274 HD
ATOM     21  H42 UNL     1      33.580   6.689  17.302  1.00  0.00     0.274 HD
ATOM     22  H41 UNL     1      32.705   7.272  15.968  1.00  0.00     0.274 HD
ENDBRANCH  18  19
ENDBRANCH  17  18
ENDBRANCH  16  17
ENDBRANCH  15  16
ENDBRANCH  14  15
ENDBRANCH  13  14
ENDBRANCH  12  13
ENDBRANCH  11  12
ENDBRANCH   9  11
ENDBRANCH   5   7
BRANCH   1  23
HETATM   23  C8  UNL     1      36.506   7.981   8.626  1.00  0.00     0.012 C 
HETATM   24  C7  UNL     1      36.641   7.693   9.901  1.00  0.00     0.014 C 
BRANCH  24  25
HETATM   25  C6  UNL     1      37.638   6.749  10.419  1.00  0.00    -0.014 A 
HETATM   26  C2  UNL     1      38.355   7.142  11.537  1.00  0.00     0.017 A 
HETATM   27  C1  UNL     1      38.110   8.482  12.178  1.00  0.00     0.069 C 
HETATM   28  N1  UNL     1      39.271   6.335  12.054  1.00  0.00    -0.346 N 
HETATM   29  C3  UNL     1      39.512   5.124  11.497  1.00  0.00     0.098 A 
ATOM     30  H1  UNL     1      39.797   6.628  12.878  1.00  0.00     0.167 HD
HETATM   31  N2  UNL     1      40.398   4.368  12.015  1.00  0.00    -0.385 N 
HETATM   32  C4  UNL     1      38.819   4.694  10.383  1.00  0.00     0.049 A 
ATOM     33  H22 UNL     1      40.910   4.685  12.839  1.00  0.00     0.157 HD
ATOM     34  H21 UNL     1      40.580   3.455  11.596  1.00  0.00     0.157 HD
HETATM   35  C5  UNL     1      37.856   5.527   9.826  1.00  0.00     0.017 A 
ENDBRANCH  24  25
ENDBRANCH   1  23
TORSDOF 12
ENDMDL
MODEL 3
REMARK VINA RESULT: -7.560672850      1.660      1.784
REMARK  12 active torsions:
REMARK  status: ('A' for Active; 'I' for Inactive)
REMARK    1  A    between atoms: C6_11  and  C7_12 
REMARK    2  A    between atoms: C8_13  and  C9_14 
REMARK    3  A    between atoms: C13_18  and  C14_19 
REMARK       I    between atoms: C14_19  and  N3_21 
REMARK    4  A    between atoms: N3_21  and  C15_23 
REMARK    5  A    between atoms: C15_23  and  C16_24 
REMARK    6  A    between atoms: C16_24  and  O2_25 
REMARK    7  A    between atoms: O2_25  and  C17_26 
REMARK    8  A    between atoms: C17_26  and  C18_27 
REMARK    9  A    between atoms: C18_27  and  O3_28 
REMARK   10  A    between atoms: O3_28  and  C19_29 
REMARK   11  A    between atoms: C19_29  and  C20_30 
REMARK   12  A    between atoms: C20_30  and  N4_31 
ROOT
HETATM    1  C9  UNL     1      36.245   9.874   7.961  1.00  0.00    -0.035 A 
HETATM    2  C10 UNL     1      35.518   9.345   6.922  1.00  0.00     0.011 A 
HETATM    3  C11 UNL     1      34.209   9.685   6.672  1.00  0.00     0.002 A 
HETATM    4  C12 UNL     1      33.562  10.610   7.496  1.00  0.00     0.017 A 
HETATM    5  C13 UNL     1      34.264  11.159   8.545  1.00  0.00     0.032 A 
HETATM    6  C21 UNL     1      35.588  10.787   8.763  1.00  0.00     0.028 A 
ENDROOT
BRANCH   5   7
HETATM    7  C14 UNL     1      33.665  12.140   9.465  1.00  0.00     0.251 C 
HETATM    8  O1  UNL     1      33.968  13.355   9.330  1.00  0.00    -0.268 OA
HETATM    9  N3  UNL     1      32.777  11.743  10.473  1.00  0.00    -0.355 N 
ATOM     10  H3  UNL     1      32.531  10.760  10.584  1.00  0.00     0.162 HD
BRANCH   9  11
HETATM   11  C15 UNL     1      32.213  12.741  11.354  1.00  0.00     0.149 C 
BRANCH  11  12
HETATM   12  C16 UNL     1      32.984  12.853  12.657  1.00  0.00     0.187 C 
BRANCH  12  13
HETATM   13  O2  UNL     1      33.483  11.620  13.033  1.00  0.00    -0.387 OA
BRANCH  13  14
HETATM   14  C17 UNL     1      34.843  11.511  13.076  1.00  0.00     0.193 C 
BRANCH  14  15
HETATM   15  C18 UNL     1      35.465  10.298  12.490  1.00  0.00     0.193 C 
BRANCH  15  16
HETATM   16  O3  UNL     1      36.734  10.077  12.868  1.00  0.00    -0.387 OA
BRANCH  16  17
HETATM   17  C19 UNL     1      37.098  10.009  14.167  1.00  0.00     0.195 C 
BRANCH  17  18
HETATM   18  C20 UNL     1      38.466  10.720  14.278  1.00  0.00     0.255 C 
BRANCH  18  19
HETATM   19  N4  UNL     1      38.279  11.943  15.035  1.00  0.00    -0.077 N 
ATOM     20  H43 UNL     1      37.352  12.008  15.454  1.00  0.00     0.274 HD
ATOM     21  H42 UNL     1      38.822  11.958  15.899  1.00  0.00     0.274 HD
ATOM     22  H41 UNL     1      38.491  12.730  14.423  1.00  0.00     0.274 HD
ENDBRANCH  18  19
ENDBRANCH  17  18
ENDBRANCH  16  17
ENDBRANCH  15  16
ENDBRANCH  14  15
ENDBRANCH  13  14
ENDBRANCH  12  13
ENDBRANCH  11  12
ENDBRANCH   9  11
ENDBRANCH   5   7
BRANCH   1  23
HETATM   23  C8  UNL     1      37.644   9.526   8.247  1.00  0.00     0.012 C 
HETATM   24  C7  UNL     1      38.527  10.417   8.639  1.00  0.00     0.014 C 
BRANCH  24  25
HETATM   25  C6  UNL     1      39.929  10.097   8.931  1.00  0.00    -0.014 A 
HETATM   26  C2  UNL     1      40.497  10.709  10.037  1.00  0.00     0.017 A 
HETATM   27  C1  UNL     1      39.696  11.657  10.889  1.00  0.00     0.069 C 
HETATM   28  N1  UNL     1      41.759  10.462  10.355  1.00  0.00    -0.346 N 
HETATM   29  C3  UNL     1      42.502   9.613   9.606  1.00  0.00     0.098 A 
ATOM     30  H1  UNL     1      42.174  10.914  11.170  1.00  0.00     0.167 HD
HETATM   31  N2  UNL     1      43.715   9.393   9.934  1.00  0.00    -0.385 N 
HETATM   32  C4  UNL     1      41.975   8.983   8.496  1.00  0.00     0.049 A 
ATOM     33  H22 UNL     1      44.105   9.859  10.754  1.00  0.00     0.157 HD
ATOM     34  H21 UNL     1      44.275   8.754   9.371  1.00  0.00     0.157 HD
HETATM   35  C5  UNL     1      40.653   9.229   8.146  1.00  0.00     0.017 A 
ENDBRANCH  24  25
ENDBRANCH   1  23
TORSDOF 12
ENDMDL
MODEL 4
REMARK VINA RESULT: -7.476142242      3.209      7.432
REMARK  12 active torsions:
REMARK  status: ('A' for Active; 'I' for Inactive)
REMARK    1  A    between atoms: C6_11  and  C7_12 
REMARK    2  A    between atoms: C8_13  and  C9_14 
REMARK    3  A    between atoms: C13_18  and  C14_19 
REMARK       I    between atoms: C14_19  and  N3_21 
REMARK    4  A    between atoms: N3_21  and  C15_23 
REMARK    5  A    between atoms: C15_23  and  C16_24 
REMARK    6  A    between atoms: C16_24  and  O2_25 
REMARK    7  A    between atoms: O2_25  and  C17_26 
REMARK    8  A    between atoms: C17_26  and  C18_27 
REMARK    9  A    between atoms: C18_27  and  O3_28 
REMARK   10  A    between atoms: O3_28  and  C19_29 
REMARK   11  A    between atoms: C19_29  and  C20_30 
REMARK   12  A    between atoms: C20_30  and  N4_31 
ROOT
HETATM    1  C9  UNL     1      37.003   8.091   9.910  1.00  0.00    -0.035 A 
HETATM    2  C10 UNL     1      36.985   6.718   9.884  1.00  0.00     0.011 A 
HETATM    3  C11 UNL     1      38.045   5.961   9.441  1.00  0.00     0.002 A 
HETATM    4  C12 UNL     1      39.208   6.592   8.991  1.00  0.00     0.017 A 
HETATM    5  C13 UNL     1      39.258   7.968   9.006  1.00  0.00     0.032 A 
HETATM    6  C21 UNL     1      38.162   8.695   9.462  1.00  0.00     0.028 A 
ENDROOT
BRANCH   5   7
HETATM    7  C14 UNL     1      40.440   8.717   8.551  1.00  0.00     0.251 C 
HETATM    8  O1  UNL     1      40.337   9.435   7.521  1.00  0.00    -0.268 OA
HETATM    9  N3  UNL     1      41.657   8.643   9.238  1.00  0.00    -0.355 N 
ATOM     10  H3  UNL     1      41.742   8.062  10.073  1.00  0.00     0.162 HD
BRANCH   9  11
HETATM   11  C15 UNL     1      42.793   9.396   8.755  1.00  0.00     0.149 C 
BRANCH  11  12
HETATM   12  C16 UNL     1      43.072  10.619   9.612  1.00  0.00     0.187 C 
BRANCH  12  13
HETATM   13  O2  UNL     1      41.954  11.429   9.681  1.00  0.00    -0.387 OA
BRANCH  13  14
HETATM   14  C17 UNL     1      41.365  11.535  10.908  1.00  0.00     0.193 C 
BRANCH  14  15
HETATM   15  C18 UNL     1      39.883  11.509  10.975  1.00  0.00     0.193 C 
BRANCH  15  16
HETATM   16  O3  UNL     1      39.377  10.749  11.960  1.00  0.00    -0.387 OA
BRANCH  16  17
HETATM   17  C19 UNL     1      38.302  11.129  12.683  1.00  0.00     0.195 C 
BRANCH  17  18
HETATM   18  C20 UNL     1      38.630  10.809  14.159  1.00  0.00     0.255 C 
BRANCH  18  19
HETATM   19  N4  UNL     1      38.257  11.956  14.964  1.00  0.00    -0.077 N 
ATOM     20  H43 UNL     1      39.059  12.527  15.230  1.00  0.00     0.274 HD
ATOM     21  H42 UNL     1      37.754  12.666  14.430  1.00  0.00     0.274 HD
ATOM     22  H41 UNL     1      37.728  11.621  15.769  1.00  0.00     0.274 HD
ENDBRANCH  18  19
ENDBRANCH  17  18
ENDBRANCH  16  17
ENDBRANCH  15  16
ENDBRANCH  14  15
ENDBRANCH  13  14
ENDBRANCH  12  13
ENDBRANCH  11  12
ENDBRANCH   9  11
ENDBRANCH   5   7
BRANCH   1  23
HETATM   23  C8  UNL     1      35.883   8.919  10.379  1.00  0.00     0.012 C 
HETATM   24  C7  UNL     1      35.793  10.202  10.108  1.00  0.00     0.014 C 
BRANCH  24  25
HETATM   25  C6  UNL     1      34.687  11.052  10.563  1.00  0.00    -0.014 A 
HETATM   26  C2  UNL     1      33.890  11.626   9.586  1.00  0.00     0.017 A 
HETATM   27  C1  UNL     1      34.162  11.377   8.126  1.00  0.00     0.069 C 
HETATM   28  N1  UNL     1      32.874  12.404   9.931  1.00  0.00    -0.346 N 
HETATM   29  C3  UNL     1      32.607  12.644  11.237  1.00  0.00     0.098 A 
ATOM     30  H1  UNL     1      32.290  12.824   9.208  1.00  0.00     0.167 HD
HETATM   31  N2  UNL     1      31.624  13.397  11.541  1.00  0.00    -0.385 N 
HETATM   32  C4  UNL     1      33.376  12.093  12.242  1.00  0.00     0.049 A 
ATOM     33  H22 UNL     1      31.055  13.805  10.799  1.00  0.00     0.157 HD
ATOM     34  H21 UNL     1      31.421  13.578  12.525  1.00  0.00     0.157 HD
HETATM   35  C5  UNL     1      34.446  11.274  11.900  1.00  0.00     0.017 A 
ENDBRANCH  24  25
ENDBRANCH   1  23
TORSDOF 12
ENDMDL
MODEL 5
REMARK VINA RESULT: -7.434930977      3.608      6.981
REMARK  12 active torsions:
REMARK  status: ('A' for Active; 'I' for Inactive)
REMARK    1  A    between atoms: C6_11  and  C7_12 
REMARK    2  A    between atoms: C8_13  and  C9_14 
REMARK    3  A    between atoms: C13_18  and  C14_19 
REMARK       I    between atoms: C14_19  and  N3_21 
REMARK    4  A    between atoms: N3_21  and  C15_23 
REMARK    5  A    between atoms: C15_23  and  C16_24 
REMARK    6  A    between atoms: C16_24  and  O2_25 
REMARK    7  A    between atoms: O2_25  and  C17_26 
REMARK    8  A    between atoms: C17_26  and  C18_27 
REMARK    9  A    between atoms: C18_27  and  O3_28 
REMARK   10  A    between atoms: O3_28  and  C19_29 
REMARK   11  A    between atoms: C19_29  and  C20_30 
REMARK   12  A    between atoms: C20_30  and  N4_31 
ROOT
HETATM    1  C9  UNL     1      36.742   7.830  11.721  1.00  0.00    -0.035 A 
HETATM    2  C10 UNL     1      37.452   6.697  11.406  1.00  0.00     0.011 A 
HETATM    3  C11 UNL     1      37.709   6.307  10.112  1.00  0.00     0.002 A 
HETATM    4  C12 UNL     1      37.239   7.081   9.047  1.00  0.00     0.017 A 
HETATM    5  C13 UNL     1      36.525   8.223   9.330  1.00  0.00     0.032 A 
HETATM    6  C21 UNL     1      36.287   8.581  10.654  1.00  0.00     0.028 A 
ENDROOT
BRANCH   5   7
HETATM    7  C14 UNL     1      35.990   9.098   8.274  1.00  0.00     0.251 C 
HETATM    8  O1  UNL     1      36.756   9.956   7.759  1.00  0.00    -0.268 OA
HETATM    9  N3  UNL     1      34.663   8.990   7.843  1.00  0.00    -0.355 N 
ATOM     10  H3  UNL     1      34.041   8.296   8.259  1.00  0.00     0.162 HD
BRANCH   9  11
HETATM   11  C15 UNL     1      34.181   9.871   6.803  1.00  0.00     0.149 C 
BRANCH  11  12
HETATM   12  C16 UNL     1      33.288  10.969   7.353  1.00  0.00     0.187 C 
BRANCH  12  13
HETATM   13  O2  UNL     1      34.049  12.005   7.862  1.00  0.00    -0.387 OA
BRANCH  13  14
HETATM   14  C17 UNL     1      33.821  12.332   9.167  1.00  0.00     0.193 C 
BRANCH  14  15
HETATM   15  C18 UNL     1      33.221  11.302  10.051  1.00  0.00     0.193 C 
BRANCH  15  16
HETATM   16  O3  UNL     1      32.410  11.783  11.007  1.00  0.00    -0.387 OA
BRANCH  16  17
HETATM   17  C19 UNL     1      32.873  12.506  12.049  1.00  0.00     0.195 C 
BRANCH  17  18
HETATM   18  C20 UNL     1      31.646  13.200  12.682  1.00  0.00     0.255 C 
BRANCH  18  19
HETATM   19  N4  UNL     1      30.968  13.953  11.645  1.00  0.00    -0.077 N 
ATOM     20  H43 UNL     1      31.615  14.381  10.983  1.00  0.00     0.274 HD
ATOM     21  H42 UNL     1      30.470  13.355  10.985  1.00  0.00     0.274 HD
ATOM     22  H41 UNL     1      30.359  14.636  12.096  1.00  0.00     0.274 HD
ENDBRANCH  18  19
ENDBRANCH  17  18
ENDBRANCH  16  17
ENDBRANCH  15  16
ENDBRANCH  14  15
ENDBRANCH  13  14
ENDBRANCH  12  13
ENDBRANCH  11  12
ENDBRANCH   9  11
ENDBRANCH   5   7
BRANCH   1  23
HETATM   23  C8  UNL     1      36.456   8.266  13.094  1.00  0.00     0.012 C 
HETATM   24  C7  UNL     1      36.117   7.425  14.046  1.00  0.00     0.014 C 
BRANCH  24  25
HETATM   25  C6  UNL     1      35.826   7.833  15.425  1.00  0.00    -0.014 A 
HETATM   26  C2  UNL     1      36.611   7.281  16.424  1.00  0.00     0.017 A 
HETATM   27  C1  UNL     1      37.709   6.306  16.091  1.00  0.00     0.069 C 
HETATM   28  N1  UNL     1      36.399   7.608  17.690  1.00  0.00    -0.346 N 
HETATM   29  C3  UNL     1      35.417   8.482  18.018  1.00  0.00     0.098 A 
ATOM     30  H1  UNL     1      36.979   7.200  18.423  1.00  0.00     0.167 HD
HETATM   31  N2  UNL     1      35.234   8.780  19.245  1.00  0.00    -0.385 N 
HETATM   32  C4  UNL     1      34.612   9.055  17.054  1.00  0.00     0.049 A 
ATOM     33  H22 UNL     1      35.829   8.357  19.958  1.00  0.00     0.157 HD
ATOM     34  H21 UNL     1      34.496   9.438  19.492  1.00  0.00     0.157 HD
HETATM   35  C5  UNL     1      34.819   8.724  15.720  1.00  0.00     0.017 A 
ENDBRANCH  24  25
ENDBRANCH   1  23
TORSDOF 12
ENDMDL
