MODEL 1
REMARK VINA RESULT: -7.641614584      0.000      0.000
REMARK  12 active torsions:
REMARK  status: ('A' for Active; 'I' for Inactive)
REMARK    1  A    between atoms: C1_4  and  C2_6 
REMARK    2  A    between atoms: C2_6  and  C3_7 
REMARK    3  A    between atoms: C3_7  and  C4_8 
REMARK    4  A    between atoms: C3_7  and  O1_15 
REMARK    5  A    between atoms: C4_8  and  C5_9 
REMARK    6  A    between atoms: O1_15  and  C11_16 
REMARK    7  A    between atoms: C11_16  and  C12_17 
REMARK    8  A    between atoms: C12_17  and  O2_18 
REMARK    9  A    between atoms: C12_17  and  C13_20 
REMARK   10  A    between atoms: C13_20  and  N3_21 
REMARK   11  A    between atoms: N3_21  and  S1_23 
REMARK   12  A    between atoms: S1_23  and  C14_26 
ROOT
HETATM    1  C11 UNL     1      34.886  10.265  13.729  1.00  0.00     0.201 C 
ENDROOT
BRANCH   1   2
HETATM    2  O1  UNL     1      35.117  10.111  12.383  1.00  0.00    -0.383 OA
BRANCH   2   3
HETATM    3  C3  UNL     1      34.297  10.931  11.581  1.00  0.00     0.132 C 
BRANCH   3   4
HETATM    4  C2  UNL     1      33.660  11.925  12.463  1.00  0.00     0.104 C 
BRANCH   4   5
HETATM    5  C1  UNL     1      32.488  12.633  11.950  1.00  0.00     0.089 C 
HETATM    6  N1  UNL     1      32.457  13.419  10.943  1.00  0.00    -0.391 N 
ATOM      7  H12 UNL     1      31.639  13.914  10.585  1.00  0.00     0.157 HD
ATOM      8  H11 UNL     1      33.330  13.571  10.438  1.00  0.00     0.157 HD
HETATM    9  N2  UNL     1      31.256  12.419  12.663  1.00  0.00    -0.088 NA
ENDBRANCH   4   5
ENDBRANCH   3   4
BRANCH   3  10
HETATM   10  C4  UNL     1      35.133  11.417  10.458  1.00  0.00     0.070 C 
BRANCH  10  11
HETATM   11  C5  UNL     1      34.848  10.826   9.139  1.00  0.00    -0.056 A 
HETATM   12  C6  UNL     1      35.721   9.924   8.606  1.00  0.00     0.007 A 
HETATM   13  C7  UNL     1      35.502   9.340   7.354  1.00  0.00     0.001 A 
HETATM   14  C8  UNL     1      34.360   9.720   6.684  1.00  0.00     0.000 A 
HETATM   15  C9  UNL     1      33.482  10.623   7.213  1.00  0.00     0.001 A 
HETATM   16  C10 UNL     1      33.722  11.178   8.439  1.00  0.00     0.007 A 
ENDBRANCH  10  11
ENDBRANCH   3  10
ENDBRANCH   2   3
ENDBRANCH   1   2
BRANCH   1  17
HETATM   17  C12 UNL     1      35.405   9.074  14.477  1.00  0.00     0.160 C 
BRANCH  17  18
HETATM   18  O2  UNL     1      34.355   8.496  15.210  1.00  0.00    -0.392 OA
ATOM     19  H2  UNL     1      34.302   7.571  15.002  1.00  0.00     0.210 HD
ENDBRANCH  17  18
BRANCH  17  20
HETATM   20  C13 UNL     1      35.941   8.029  13.511  1.00  0.00     0.166 C 
BRANCH  20  21
HETATM   21  N3  UNL     1      37.345   8.284  13.228  1.00  0.00    -0.313 N 
ATOM     22  H3  UNL     1      37.978   8.803  13.837  1.00  0.00     0.172 HD
BRANCH  21  23
HETATM   23  S1  UNL     1      37.785   7.583  11.722  1.00  0.00     0.258 S 
HETATM   24  O3  UNL     1      36.524   6.986  11.127  1.00  0.00    -0.201 OA
HETATM   25  O4  UNL     1      38.809   6.505  11.930  1.00  0.00    -0.201 OA
BRANCH  23  26
HETATM   26  C14 UNL     1      38.446   8.778  10.659  1.00  0.00     0.079 A 
HETATM   27  C15 UNL     1      38.943   8.428   9.420  1.00  0.00     0.025 A 
HETATM   28  C16 UNL     1      39.471   9.375   8.566  1.00  0.00     0.002 A 
HETATM   29  C17 UNL     1      39.506  10.703   8.952  1.00  0.00     0.000 A 
HETATM   30  C18 UNL     1      39.016  11.064  10.179  1.00  0.00     0.002 A 
HETATM   31  C19 UNL     1      38.494  10.109  11.016  1.00  0.00     0.025 A 
ENDBRANCH  23  26
ENDBRANCH  21  23
ENDBRANCH  20  21
ENDBRANCH  17  20
ENDBRANCH   1  17
TORSDOF 12
ENDMDL
MODEL 2
REMARK VINA RESULT: -7.531831197      2.533      5.655
REMARK  12 active torsions:
REMARK  status: ('A' for Active; 'I' for Inactive)
REMARK    1  A    between atoms: C1_4  and  C2_6 
REMARK    2  A    between atoms: C2_6  and  C3_7 
REMARK    3  A    between atoms: C3_7  and  C4_8 
REMARK    4  A    between atoms: C3_7  and  O1_15 
REMARK    5  A    between atoms: C4_8  and  C5_9 
REMARK    6  A    between atoms: O1_15  and  C11_16 
REMARK    7  A    between atoms: C11_16  and  C12_17 
REMARK    8  A    between atoms: C12_17  and  O2_18 
REMARK    9  A    between atoms: C12_17  and  C13_20 
REMARK   10  A    between atoms: C13_20  and  N3_21 
REMARK   11  A    between atoms: N3_21  and  S1_23 
REMARK   12  A    between atoms: S1_23  and  C14_26 
ROOT
HETATM    1  C11 UNL     1      36.710  10.087  12.296  1.00  0.00     0.201 C 
ENDROOT
BRANCH   1   2
HETATM    2  O1  UNL     1      37.501  11.137  12.699  1.00  0.00    -0.383 OA
BRANCH   2   3
HETATM    3  C3  UNL     1      38.875  10.917  12.474  1.00  0.00     0.132 C 
BRANCH   3   4
HETATM    4  C2  UNL     1      39.471  10.471  13.745  1.00  0.00     0.104 C 
BRANCH   4   5
HETATM    5  C1  UNL     1      38.784  10.838  14.982  1.00  0.00     0.089 C 
HETATM    6  N1  UNL     1      38.405  12.011  15.321  1.00  0.00    -0.391 N 
ATOM      7  H12 UNL     1      37.926  12.267  16.184  1.00  0.00     0.157 HD
ATOM      8  H11 UNL     1      38.592  12.771  14.668  1.00  0.00     0.157 HD
HETATM    9  N2  UNL     1      38.521   9.764  15.904  1.00  0.00    -0.088 NA
ENDBRANCH   4   5
ENDBRANCH   3   4
BRANCH   3  10
HETATM   10  C4  UNL     1      38.986  10.029  11.293  1.00  0.00     0.070 C 
BRANCH  10  11
HETATM   11  C5  UNL     1      39.831  10.524  10.191  1.00  0.00    -0.056 A 
HETATM   12  C6  UNL     1      41.050  11.066  10.474  1.00  0.00     0.007 A 
HETATM   13  C7  UNL     1      41.886  11.557   9.466  1.00  0.00     0.001 A 
HETATM   14  C8  UNL     1      41.419  11.467   8.173  1.00  0.00     0.000 A 
HETATM   15  C9  UNL     1      40.199  10.926   7.885  1.00  0.00     0.001 A 
HETATM   16  C10 UNL     1      39.403  10.453   8.891  1.00  0.00     0.007 A 
ENDBRANCH  10  11
ENDBRANCH   3  10
ENDBRANCH   2   3
ENDBRANCH   1   2
BRANCH   1  17
HETATM   17  C12 UNL     1      35.423  10.092  13.063  1.00  0.00     0.160 C 
BRANCH  17  18
HETATM   18  O2  UNL     1      35.696  10.319  14.422  1.00  0.00    -0.392 OA
ATOM     19  H2  UNL     1      35.769   9.485  14.869  1.00  0.00     0.210 HD
ENDBRANCH  17  18
BRANCH  17  20
HETATM   20  C13 UNL     1      34.512  11.204  12.570  1.00  0.00     0.166 C 
BRANCH  20  21
HETATM   21  N3  UNL     1      35.113  11.873  11.426  1.00  0.00    -0.313 N 
ATOM     22  H3  UNL     1      36.075  12.207  11.385  1.00  0.00     0.172 HD
BRANCH  21  23
HETATM   23  S1  UNL     1      33.967  12.019  10.152  1.00  0.00     0.258 S 
HETATM   24  O3  UNL     1      33.982  13.469   9.709  1.00  0.00    -0.201 OA
HETATM   25  O4  UNL     1      32.597  11.650  10.641  1.00  0.00    -0.201 OA
BRANCH  23  26
HETATM   26  C14 UNL     1      34.383  10.982   8.831  1.00  0.00     0.079 A 
HETATM   27  C15 UNL     1      35.605  10.343   8.788  1.00  0.00     0.025 A 
HETATM   28  C16 UNL     1      35.944   9.514   7.738  1.00  0.00     0.002 A 
HETATM   29  C17 UNL     1      35.047   9.314   6.704  1.00  0.00     0.000 A 
HETATM   30  C18 UNL     1      33.830   9.942   6.735  1.00  0.00     0.002 A 
HETATM   31  C19 UNL     1      33.509  10.764   7.787  1.00  0.00     0.025 A 
ENDBRANCH  23  26
ENDBRANCH  21  23
ENDBRANCH  20  21
ENDBRANCH  17  20
ENDBRANCH   1  17
TORSDOF 12
ENDMDL
MODEL 3
REMARK VINA RESULT: -7.517567627      2.645      5.801
REMARK  12 active torsions:
REMARK  status: ('A' for Active; 'I' for Inactive)
REMARK    1  A    between atoms: C1_4  and  C2_6 
REMARK    2  A    between atoms: C2_6  and  C3_7 
REMARK    3  A    between atoms: C3_7  and  C4_8 
REMARK    4  A    between atoms: C3_7  and  O1_15 
REMARK    5  A    between atoms: C4_8  and  C5_9 
REMARK    6  A    between atoms: O1_15  and  C11_16 
REMARK    7  A    between atoms: C11_16  and  C12_17 
REMARK    8  A    between atoms: C12_17  and  O2_18 
REMARK    9  A    between atoms: C12_17  and  C13_20 
REMARK   10  A    between atoms: C13_20  and  N3_21 
REMARK   11  A    between atoms: N3_21  and  S1_23 
REMARK   12  A    between atoms: S1_23  and  C14_26 
ROOT
HETATM    1  C11 UNL     1      36.778  10.104  12.213  1.00  0.00     0.201 C 
ENDROOT
BRANCH   1   2
HETATM    2  O1  UNL     1      37.606  11.145  12.559  1.00  0.00    -0.383 OA
BRANCH   2   3
HETATM    3  C3  UNL     1      38.974  10.827  12.449  1.00  0.00     0.132 C 
BRANCH   3   4
HETATM    4  C2  UNL     1      39.420  10.311  13.755  1.00  0.00     0.104 C 
BRANCH   4   5
HETATM    5  C1  UNL     1      39.279  11.189  14.915  1.00  0.00     0.089 C 
HETATM    6  N1  UNL     1      38.286  11.949  15.177  1.00  0.00    -0.391 N 
ATOM      7  H12 UNL     1      38.188  12.562  15.986  1.00  0.00     0.157 HD
ATOM      8  H11 UNL     1      37.506  11.945  14.519  1.00  0.00     0.157 HD
HETATM    9  N2  UNL     1      40.380  11.194  15.843  1.00  0.00    -0.088 NA
ENDBRANCH   4   5
ENDBRANCH   3   4
BRANCH   3  10
HETATM   10  C4  UNL     1      39.126   9.959  11.259  1.00  0.00     0.070 C 
BRANCH  10  11
HETATM   11  C5  UNL     1      39.952  10.501  10.165  1.00  0.00    -0.056 A 
HETATM   12  C6  UNL     1      39.480  10.461   8.886  1.00  0.00     0.007 A 
HETATM   13  C7  UNL     1      40.227  10.954   7.812  1.00  0.00     0.001 A 
HETATM   14  C8  UNL     1      41.464  11.484   8.107  1.00  0.00     0.000 A 
HETATM   15  C9  UNL     1      41.942  11.526   9.387  1.00  0.00     0.001 A 
HETATM   16  C10 UNL     1      41.189  11.036  10.417  1.00  0.00     0.007 A 
ENDBRANCH  10  11
ENDBRANCH   3  10
ENDBRANCH   2   3
ENDBRANCH   1   2
BRANCH   1  17
HETATM   17  C12 UNL     1      35.523  10.154  13.029  1.00  0.00     0.160 C 
BRANCH  17  18
HETATM   18  O2  UNL     1      35.857  10.369  14.377  1.00  0.00    -0.392 OA
ATOM     19  H2  UNL     1      35.108  10.159  14.922  1.00  0.00     0.210 HD
ENDBRANCH  17  18
BRANCH  17  20
HETATM   20  C13 UNL     1      34.633  11.300  12.573  1.00  0.00     0.166 C 
BRANCH  20  21
HETATM   21  N3  UNL     1      35.187  11.917  11.377  1.00  0.00    -0.313 N 
ATOM     22  H3  UNL     1      36.146  12.251  11.285  1.00  0.00     0.172 HD
BRANCH  21  23
HETATM   23  S1  UNL     1      33.994  12.000  10.143  1.00  0.00     0.258 S 
HETATM   24  O3  UNL     1      33.933  13.445   9.685  1.00  0.00    -0.201 OA
HETATM   25  O4  UNL     1      32.658  11.580  10.682  1.00  0.00    -0.201 OA
BRANCH  23  26
HETATM   26  C14 UNL     1      34.408  10.966   8.818  1.00  0.00     0.079 A 
HETATM   27  C15 UNL     1      33.514  10.735   7.793  1.00  0.00     0.025 A 
HETATM   28  C16 UNL     1      33.837   9.911   6.734  1.00  0.00     0.002 A 
HETATM   29  C17 UNL     1      35.078   9.302   6.691  1.00  0.00     0.000 A 
HETATM   30  C18 UNL     1      35.975   9.524   7.702  1.00  0.00     0.002 A 
HETATM   31  C19 UNL     1      35.638  10.345   8.749  1.00  0.00     0.025 A 
ENDBRANCH  23  26
ENDBRANCH  21  23
ENDBRANCH  20  21
ENDBRANCH  17  20
ENDBRANCH   1  17
TORSDOF 12
ENDMDL
MODEL 4
REMARK VINA RESULT: -7.489034399      1.842      2.453
REMARK  12 active torsions:
REMARK  status: ('A' for Active; 'I' for Inactive)
REMARK    1  A    between atoms: C1_4  and  C2_6 
REMARK    2  A    between atoms: C2_6  and  C3_7 
REMARK    3  A    between atoms: C3_7  and  C4_8 
REMARK    4  A    between atoms: C3_7  and  O1_15 
REMARK    5  A    between atoms: C4_8  and  C5_9 
REMARK    6  A    between atoms: O1_15  and  C11_16 
REMARK    7  A    between atoms: C11_16  and  C12_17 
REMARK    8  A    between atoms: C12_17  and  O2_18 
REMARK    9  A    between atoms: C12_17  and  C13_20 
REMARK   10  A    between atoms: C13_20  and  N3_21 
REMARK   11  A    between atoms: N3_21  and  S1_23 
REMARK   12  A    between atoms: S1_23  and  C14_26 
ROOT
HETATM    1  C11 UNL     1      34.703  11.490  12.097  1.00  0.00     0.201 C 
ENDROOT
BRANCH   1   2
HETATM    2  O1  UNL     1      33.846  11.068  11.109  1.00  0.00    -0.383 OA
BRANCH   2   3
HETATM    3  C3  UNL     1      33.199  12.129  10.444  1.00  0.00     0.132 C 
BRANCH   3   4
HETATM    4  C2  UNL     1      32.986  13.209  11.424  1.00  0.00     0.104 C 
BRANCH   4   5
HETATM    5  C1  UNL     1      31.641  13.370  11.973  1.00  0.00     0.089 C 
HETATM    6  N1  UNL     1      30.881  14.388  11.835  1.00  0.00    -0.391 N 
ATOM      7  H12 UNL     1      29.942  14.501  12.218  1.00  0.00     0.157 HD
ATOM      8  H11 UNL     1      31.239  15.169  11.286  1.00  0.00     0.157 HD
HETATM    9  N2  UNL     1      31.136  12.266  12.748  1.00  0.00    -0.088 NA
ENDBRANCH   4   5
ENDBRANCH   3   4
BRANCH   3  10
HETATM   10  C4  UNL     1      33.991  12.428   9.228  1.00  0.00     0.070 C 
BRANCH  10  11
HETATM   11  C5  UNL     1      34.333  11.272   8.381  1.00  0.00    -0.056 A 
HETATM   12  C6  UNL     1      33.383  10.738   7.561  1.00  0.00     0.007 A 
HETATM   13  C7  UNL     1      33.653   9.635   6.743  1.00  0.00     0.001 A 
HETATM   14  C8  UNL     1      34.927   9.114   6.806  1.00  0.00     0.000 A 
HETATM   15  C9  UNL     1      35.882   9.645   7.625  1.00  0.00     0.001 A 
HETATM   16  C10 UNL     1      35.589  10.723   8.413  1.00  0.00     0.007 A 
ENDBRANCH  10  11
ENDBRANCH   3  10
ENDBRANCH   2   3
ENDBRANCH   1   2
BRANCH   1  17
HETATM   17  C12 UNL     1      35.534  10.340  12.578  1.00  0.00     0.160 C 
BRANCH  17  18
HETATM   18  O2  UNL     1      35.430   9.280  11.663  1.00  0.00    -0.392 OA
ATOM     19  H2  UNL     1      36.292   8.907  11.517  1.00  0.00     0.210 HD
ENDBRANCH  17  18
BRANCH  17  20
HETATM   20  C13 UNL     1      36.998  10.741  12.675  1.00  0.00     0.166 C 
BRANCH  20  21
HETATM   21  N3  UNL     1      37.527  11.021  11.349  1.00  0.00    -0.313 N 
ATOM     22  H3  UNL     1      37.232  11.796  10.754  1.00  0.00     0.172 HD
BRANCH  21  23
HETATM   23  S1  UNL     1      38.724   9.861  10.928  1.00  0.00     0.258 S 
HETATM   24  O3  UNL     1      37.999   8.690  10.292  1.00  0.00    -0.201 OA
HETATM   25  O4  UNL     1      39.454   9.400  12.155  1.00  0.00    -0.201 OA
BRANCH  23  26
HETATM   26  C14 UNL     1      39.869  10.534   9.820  1.00  0.00     0.079 A 
HETATM   27  C15 UNL     1      41.082  11.021  10.262  1.00  0.00     0.025 A 
HETATM   28  C16 UNL     1      42.000  11.560   9.384  1.00  0.00     0.002 A 
HETATM   29  C17 UNL     1      41.708  11.616   8.033  1.00  0.00     0.000 A 
HETATM   30  C18 UNL     1      40.508  11.135   7.581  1.00  0.00     0.002 A 
HETATM   31  C19 UNL     1      39.605  10.603   8.468  1.00  0.00     0.025 A 
ENDBRANCH  23  26
ENDBRANCH  21  23
ENDBRANCH  20  21
ENDBRANCH  17  20
ENDBRANCH   1  17
TORSDOF 12
ENDMDL
MODEL 5
REMARK VINA RESULT: -7.483322413      2.239      5.696
REMARK  12 active torsions:
REMARK  status: ('A' for Active; 'I' for Inactive)
REMARK    1  A    between atoms: C1_4  and  C2_6 
REMARK    2  A    between atoms: C2_6  and  C3_7 
REMARK    3  A    between atoms: C3_7  and  C4_8 
REMARK    4  A    between atoms: C3_7  and  O1_15 
REMARK    5  A    between atoms: C4_8  and  C5_9 
REMARK    6  A    between atoms: O1_15  and  C11_16 
REMARK    7  A    between atoms: C11_16  and  C12_17 
REMARK    8  A    between atoms: C12_17  and  O2_18 
REMARK    9  A    between atoms: C12_17  and  C13_20 
REMARK   10  A    between atoms: C13_20  and  N3_21 
REMARK   11  A    between atoms: N3_21  and  S1_23 
REMARK   12  A    between atoms: S1_23  and  C14_26 
ROOT
HETATM    1  C11 UNL     1      36.511  10.215  13.240  1.00  0.00     0.201 C 
ENDROOT
BRANCH   1   2
HETATM    2  O1  UNL     1      36.950   9.609  12.087  1.00  0.00    -0.383 OA
BRANCH   2   3
HETATM    3  C3  UNL     1      38.305   9.873  11.801  1.00  0.00     0.132 C 
BRANCH   3   4
HETATM    4  C2  UNL     1      38.932   8.603  11.395  1.00  0.00     0.104 C 
BRANCH   4   5
HETATM    5  C1  UNL     1      38.134   7.679  10.591  1.00  0.00     0.089 C 
HETATM    6  N1  UNL     1      37.096   7.040  10.975  1.00  0.00    -0.391 N 
ATOM      7  H12 UNL     1      36.539   6.395  10.414  1.00  0.00     0.157 HD
ATOM      8  H11 UNL     1      36.783   7.186  11.935  1.00  0.00     0.157 HD
HETATM    9  N2  UNL     1      38.576   7.474   9.236  1.00  0.00    -0.088 NA
ENDBRANCH   4   5
ENDBRANCH   3   4
BRANCH   3  10
HETATM   10  C4  UNL     1      38.337  11.011  10.853  1.00  0.00     0.070 C 
BRANCH  10  11
HETATM   11  C5  UNL     1      39.511  11.079   9.966  1.00  0.00    -0.056 A 
HETATM   12  C6  UNL     1      40.727  11.407  10.488  1.00  0.00     0.007 A 
HETATM   13  C7  UNL     1      41.871  11.494   9.688  1.00  0.00     0.001 A 
HETATM   14  C8  UNL     1      41.711  11.231   8.345  1.00  0.00     0.000 A 
HETATM   15  C9  UNL     1      40.495  10.902   7.817  1.00  0.00     0.001 A 
HETATM   16  C10 UNL     1      39.394  10.825   8.623  1.00  0.00     0.007 A 
ENDBRANCH  10  11
ENDBRANCH   3  10
ENDBRANCH   2   3
ENDBRANCH   1   2
BRANCH   1  17
HETATM   17  C12 UNL     1      35.025  10.065  13.363  1.00  0.00     0.160 C 
BRANCH  17  18
HETATM   18  O2  UNL     1      34.679  10.005  14.723  1.00  0.00    -0.392 OA
ATOM     19  H2  UNL     1      35.379   9.582  15.205  1.00  0.00     0.210 HD
ENDBRANCH  17  18
BRANCH  17  20
HETATM   20  C13 UNL     1      34.314  11.257  12.744  1.00  0.00     0.166 C 
BRANCH  20  21
HETATM   21  N3  UNL     1      35.033  11.711  11.563  1.00  0.00    -0.313 N 
ATOM     22  H3  UNL     1      36.040  11.865  11.517  1.00  0.00     0.172 HD
BRANCH  21  23
HETATM   23  S1  UNL     1      33.942  11.948  10.256  1.00  0.00     0.258 S 
HETATM   24  O3  UNL     1      34.045  13.408   9.855  1.00  0.00    -0.201 OA
HETATM   25  O4  UNL     1      32.539  11.638  10.688  1.00  0.00    -0.201 OA
BRANCH  23  26
HETATM   26  C14 UNL     1      34.351  10.927   8.921  1.00  0.00     0.079 A 
HETATM   27  C15 UNL     1      33.492  10.779   7.852  1.00  0.00     0.025 A 
HETATM   28  C16 UNL     1      33.812   9.965   6.783  1.00  0.00     0.002 A 
HETATM   29  C17 UNL     1      35.014   9.282   6.776  1.00  0.00     0.000 A 
HETATM   30  C18 UNL     1      35.876   9.420   7.832  1.00  0.00     0.002 A 
HETATM   31  C19 UNL     1      35.543  10.233   8.887  1.00  0.00     0.025 A 
ENDBRANCH  23  26
ENDBRANCH  21  23
ENDBRANCH  20  21
ENDBRANCH  17  20
ENDBRANCH   1  17
TORSDOF 12
ENDMDL
