MODEL 1
REMARK VINA RESULT: -7.549640337      0.000      0.000
REMARK  11 active torsions:
REMARK  status: ('A' for Active; 'I' for Inactive)
REMARK    1  A    between atoms: C2_2  and  C3_3 
REMARK    2  A    between atoms: C3_3  and  N1_4 
REMARK    3  A    between atoms: N1_4  and  C4_5 
REMARK    4  A    between atoms: N1_4  and  C22_29 
REMARK    5  A    between atoms: C7_8  and  C8_9 
REMARK    6  A    between atoms: C8_9  and  N3_21 
REMARK    7  A    between atoms: N2_10  and  O1_12 
REMARK    8  A    between atoms: O1_12  and  C9_13 
REMARK    9  A    between atoms: C9_13  and  C11_15 
REMARK   10  A    between atoms: C11_15  and  C12_17 
REMARK   11  A    between atoms: N3_21  and  C16_23 
ROOT
HETATM    1  C8  UNL     1       6.109  20.855  16.142  1.00  0.00     0.132 C 
HETATM    2  N2  UNL     1       6.603  20.812  15.022  1.00  0.00    -0.249 N 
ATOM      3  H2  UNL     1       7.098  21.678  14.808  1.00  0.00     0.196 HD
ENDROOT
BRANCH   1   4
HETATM    4  C7  UNL     1       6.335  22.131  16.924  1.00  0.00     0.009 A 
HETATM    5  C6  UNL     1       6.887  22.114  18.169  1.00  0.00     0.017 A 
HETATM    6  C5  UNL     1       7.077  23.308  18.837  1.00  0.00     0.030 A 
HETATM    7  C4  UNL     1       6.728  24.520  18.293  1.00  0.00     0.030 A 
HETATM    8  C21 UNL     1       6.174  24.510  17.039  1.00  0.00     0.030 A 
HETATM    9  C20 UNL     1       5.975  23.302  16.345  1.00  0.00     0.017 A 
BRANCH   7  10
HETATM   10  N1  UNL     1       6.878  25.776  19.000  1.00  0.00    -0.374 N 
BRANCH  10  11
HETATM   11  C3  UNL     1       8.198  26.340  18.924  1.00  0.00     0.123 C 
BRANCH  11  12
HETATM   12  C2  UNL     1       8.420  27.361  17.851  1.00  0.00     0.015 C 
HETATM   13  C1  UNL     1       9.085  26.669  16.646  1.00  0.00     0.006 C 
ENDBRANCH  11  12
ENDBRANCH  10  11
BRANCH  10  14
HETATM   14  C22 UNL     1       5.734  26.298  19.629  1.00  0.00     0.110 C 
HETATM   15  C23 UNL     1       5.446  25.730  21.027  1.00  0.00     0.053 C 
HETATM   16  C24 UNL     1       4.368  26.737  21.458  1.00  0.00     0.169 C 
HETATM   17  O3  UNL     1       4.530  27.879  20.688  1.00  0.00    -0.389 OA
HETATM   18  C25 UNL     1       5.779  27.757  20.051  1.00  0.00     0.193 C 
ENDBRANCH  10  14
ENDBRANCH   7  10
ENDBRANCH   1   4
BRANCH   1  19
HETATM   19  N3  UNL     1       5.377  19.870  16.816  1.00  0.00    -0.366 N 
ATOM     20  H3  UNL     1       5.808  19.570  17.691  1.00  0.00     0.162 HD
BRANCH  19  21
HETATM   21  C16 UNL     1       4.166  19.208  16.531  1.00  0.00     0.021 C 
HETATM   22  C17 UNL     1       3.159  19.891  15.677  1.00  0.00     0.037 C 
HETATM   23  C18 UNL     1       4.507  17.864  15.839  1.00  0.00     0.037 C 
HETATM   24  C19 UNL     1       3.443  18.763  17.808  1.00  0.00     0.037 C 
ENDBRANCH  19  21
ENDBRANCH   1  19
BRANCH   2  25
HETATM   25  O1  UNL     1       6.678  19.964  14.015  1.00  0.00    -0.266 OA
BRANCH  25  26
HETATM   26  C9  UNL     1       6.183  20.065  12.706  1.00  0.00     0.218 C 
HETATM   27  C10 UNL     1       6.466  18.757  11.995  1.00  0.00     0.050 C 
BRANCH  26  28
HETATM   28  C11 UNL     1       6.837  21.199  11.958  1.00  0.00     0.162 C 
HETATM   29  O2  UNL     1       7.919  20.964  11.455  1.00  0.00    -0.295 OA
BRANCH  28  30
HETATM   30  C12 UNL     1       6.202  22.518  11.844  1.00  0.00     0.062 A 
HETATM   31  C13 UNL     1       6.849  23.566  11.008  1.00  0.00     0.017 A 
HETATM   32  C14 UNL     1       6.696  23.725  12.531  1.00  0.00    -0.007 A 
HETATM   33  C15 UNL     1       7.931  23.727  13.381  1.00  0.00     0.011 C 
ENDBRANCH  28  30
ENDBRANCH  26  28
ENDBRANCH  25  26
ENDBRANCH   2  25
TORSDOF 11
ENDMDL
MODEL 2
REMARK VINA RESULT: -7.524704862      5.735      9.582
REMARK  11 active torsions:
REMARK  status: ('A' for Active; 'I' for Inactive)
REMARK    1  A    between atoms: C2_2  and  C3_3 
REMARK    2  A    between atoms: C3_3  and  N1_4 
REMARK    3  A    between atoms: N1_4  and  C4_5 
REMARK    4  A    between atoms: N1_4  and  C22_29 
REMARK    5  A    between atoms: C7_8  and  C8_9 
REMARK    6  A    between atoms: C8_9  and  N3_21 
REMARK    7  A    between atoms: N2_10  and  O1_12 
REMARK    8  A    between atoms: O1_12  and  C9_13 
REMARK    9  A    between atoms: C9_13  and  C11_15 
REMARK   10  A    between atoms: C11_15  and  C12_17 
REMARK   11  A    between atoms: N3_21  and  C16_23 
ROOT
HETATM    1  C8  UNL     1       4.087  28.233  19.840  1.00  0.00     0.132 C 
HETATM    2  N2  UNL     1       2.866  28.244  19.926  1.00  0.00    -0.249 N 
ATOM      3  H2  UNL     1       2.524  27.399  20.384  1.00  0.00     0.196 HD
ENDROOT
BRANCH   1   4
HETATM    4  C7  UNL     1       4.787  27.020  20.413  1.00  0.00     0.009 A 
HETATM    5  C6  UNL     1       5.814  26.413  19.756  1.00  0.00     0.017 A 
HETATM    6  C5  UNL     1       6.422  25.312  20.325  1.00  0.00     0.030 A 
HETATM    7  C4  UNL     1       6.029  24.799  21.538  1.00  0.00     0.030 A 
HETATM    8  C21 UNL     1       4.993  25.427  22.180  1.00  0.00     0.030 A 
HETATM    9  C20 UNL     1       4.364  26.551  21.612  1.00  0.00     0.017 A 
BRANCH   7  10
HETATM   10  N1  UNL     1       6.626  23.618  22.126  1.00  0.00    -0.374 N 
BRANCH  10  11
HETATM   11  C3  UNL     1       7.733  23.084  21.381  1.00  0.00     0.123 C 
BRANCH  11  12
HETATM   12  C2  UNL     1       7.519  21.744  20.747  1.00  0.00     0.015 C 
HETATM   13  C1  UNL     1       7.211  21.952  19.252  1.00  0.00     0.006 C 
ENDBRANCH  11  12
ENDBRANCH  10  11
BRANCH  10  14
HETATM   14  C22 UNL     1       6.089  23.167  23.346  1.00  0.00     0.110 C 
HETATM   15  C23 UNL     1       7.111  22.991  24.478  1.00  0.00     0.053 C 
HETATM   16  C24 UNL     1       6.123  22.810  25.642  1.00  0.00     0.169 C 
HETATM   17  O3  UNL     1       4.914  23.369  25.256  1.00  0.00    -0.389 OA
HETATM   18  C25 UNL     1       5.175  24.122  24.097  1.00  0.00     0.193 C 
ENDBRANCH  10  14
ENDBRANCH   7  10
ENDBRANCH   1   4
BRANCH   1  19
HETATM   19  N3  UNL     1       4.937  29.208  19.304  1.00  0.00    -0.366 N 
ATOM     20  H3  UNL     1       5.423  28.904  18.460  1.00  0.00     0.162 HD
BRANCH  19  21
HETATM   21  C16 UNL     1       5.259  30.524  19.694  1.00  0.00     0.021 C 
HETATM   22  C17 UNL     1       4.770  31.022  21.006  1.00  0.00     0.037 C 
HETATM   23  C18 UNL     1       6.803  30.655  19.709  1.00  0.00     0.037 C 
HETATM   24  C19 UNL     1       4.837  31.552  18.638  1.00  0.00     0.037 C 
ENDBRANCH  19  21
ENDBRANCH   1  19
BRANCH   2  25
HETATM   25  O1  UNL     1       1.866  29.037  19.593  1.00  0.00    -0.266 OA
BRANCH  25  26
HETATM   26  C9  UNL     1       0.764  29.472  20.346  1.00  0.00     0.218 C 
HETATM   27  C10 UNL     1       0.810  28.775  21.691  1.00  0.00     0.050 C 
BRANCH  26  28
HETATM   28  C11 UNL     1      -0.535  29.150  19.653  1.00  0.00     0.162 C 
HETATM   29  O2  UNL     1      -1.473  28.852  20.368  1.00  0.00    -0.295 OA
BRANCH  28  30
HETATM   30  C12 UNL     1      -0.662  29.192  18.190  1.00  0.00     0.062 A 
HETATM   31  C13 UNL     1      -0.254  30.423  17.461  1.00  0.00     0.017 A 
HETATM   32  C14 UNL     1      -1.716  29.943  17.483  1.00  0.00    -0.007 A 
HETATM   33  C15 UNL     1      -2.736  30.778  18.198  1.00  0.00     0.011 C 
ENDBRANCH  28  30
ENDBRANCH  26  28
ENDBRANCH  25  26
ENDBRANCH   2  25
TORSDOF 11
ENDMDL
MODEL 3
REMARK VINA RESULT: -7.506114316      1.244      1.806
REMARK  11 active torsions:
REMARK  status: ('A' for Active; 'I' for Inactive)
REMARK    1  A    between atoms: C2_2  and  C3_3 
REMARK    2  A    between atoms: C3_3  and  N1_4 
REMARK    3  A    between atoms: N1_4  and  C4_5 
REMARK    4  A    between atoms: N1_4  and  C22_29 
REMARK    5  A    between atoms: C7_8  and  C8_9 
REMARK    6  A    between atoms: C8_9  and  N3_21 
REMARK    7  A    between atoms: N2_10  and  O1_12 
REMARK    8  A    between atoms: O1_12  and  C9_13 
REMARK    9  A    between atoms: C9_13  and  C11_15 
REMARK   10  A    between atoms: C11_15  and  C12_17 
REMARK   11  A    between atoms: N3_21  and  C16_23 
ROOT
HETATM    1  C8  UNL     1       6.008  21.421  14.604  1.00  0.00     0.132 C 
HETATM    2  N2  UNL     1       6.993  21.138  13.933  1.00  0.00    -0.249 N 
ATOM      3  H2  UNL     1       7.823  21.616  14.284  1.00  0.00     0.196 HD
ENDROOT
BRANCH   1   4
HETATM    4  C7  UNL     1       6.237  22.373  15.758  1.00  0.00     0.009 A 
HETATM    5  C6  UNL     1       6.463  21.920  17.022  1.00  0.00     0.017 A 
HETATM    6  C5  UNL     1       6.672  22.832  18.038  1.00  0.00     0.030 A 
HETATM    7  C4  UNL     1       6.658  24.189  17.823  1.00  0.00     0.030 A 
HETATM    8  C21 UNL     1       6.427  24.620  16.543  1.00  0.00     0.030 A 
HETATM    9  C20 UNL     1       6.214  23.703  15.497  1.00  0.00     0.017 A 
BRANCH   7  10
HETATM   10  N1  UNL     1       6.828  25.158  18.887  1.00  0.00    -0.374 N 
BRANCH  10  11
HETATM   11  C3  UNL     1       8.164  25.672  19.006  1.00  0.00     0.123 C 
BRANCH  11  12
HETATM   12  C2  UNL     1       8.447  26.954  18.285  1.00  0.00     0.015 C 
HETATM   13  C1  UNL     1       8.813  28.031  19.324  1.00  0.00     0.006 C 
ENDBRANCH  11  12
ENDBRANCH  10  11
BRANCH  10  14
HETATM   14  C22 UNL     1       5.685  25.499  19.632  1.00  0.00     0.110 C 
HETATM   15  C23 UNL     1       5.786  25.219  21.138  1.00  0.00     0.053 C 
HETATM   16  C24 UNL     1       4.533  25.986  21.591  1.00  0.00     0.169 C 
HETATM   17  O3  UNL     1       4.235  26.918  20.609  1.00  0.00    -0.389 OA
HETATM   18  C25 UNL     1       5.357  26.978  19.762  1.00  0.00     0.193 C 
ENDBRANCH  10  14
ENDBRANCH   7  10
ENDBRANCH   1   4
BRANCH   1  19
HETATM   19  N3  UNL     1       4.693  20.961  14.468  1.00  0.00    -0.366 N 
ATOM     20  H3  UNL     1       4.107  21.569  13.896  1.00  0.00     0.162 HD
BRANCH  19  21
HETATM   21  C16 UNL     1       4.014  19.829  14.962  1.00  0.00     0.021 C 
HETATM   22  C17 UNL     1       3.504  19.851  16.359  1.00  0.00     0.037 C 
HETATM   23  C18 UNL     1       2.795  19.564  14.042  1.00  0.00     0.037 C 
HETATM   24  C19 UNL     1       4.845  18.550  14.808  1.00  0.00     0.037 C 
ENDBRANCH  19  21
ENDBRANCH   1  19
BRANCH   2  25
HETATM   25  O1  UNL     1       7.284  20.393  12.885  1.00  0.00    -0.266 OA
BRANCH  25  26
HETATM   26  C9  UNL     1       7.155  20.665  11.514  1.00  0.00     0.218 C 
HETATM   27  C10 UNL     1       7.501  19.403  10.750  1.00  0.00     0.050 C 
BRANCH  26  28
HETATM   28  C11 UNL     1       8.073  21.782  11.088  1.00  0.00     0.162 C 
HETATM   29  O2  UNL     1       9.197  21.463  10.752  1.00  0.00    -0.295 OA
BRANCH  28  30
HETATM   30  C12 UNL     1       7.633  23.184  11.079  1.00  0.00     0.062 A 
HETATM   31  C13 UNL     1       6.197  23.496  11.309  1.00  0.00     0.017 A 
HETATM   32  C14 UNL     1       6.886  23.799   9.967  1.00  0.00    -0.007 A 
HETATM   33  C15 UNL     1       6.462  23.031   8.751  1.00  0.00     0.011 C 
ENDBRANCH  28  30
ENDBRANCH  26  28
ENDBRANCH  25  26
ENDBRANCH   2  25
TORSDOF 11
ENDMDL
MODEL 4
REMARK VINA RESULT: -7.496258350      1.617      8.959
REMARK  11 active torsions:
REMARK  status: ('A' for Active; 'I' for Inactive)
REMARK    1  A    between atoms: C2_2  and  C3_3 
REMARK    2  A    between atoms: C3_3  and  N1_4 
REMARK    3  A    between atoms: N1_4  and  C4_5 
REMARK    4  A    between atoms: N1_4  and  C22_29 
REMARK    5  A    between atoms: C7_8  and  C8_9 
REMARK    6  A    between atoms: C8_9  and  N3_21 
REMARK    7  A    between atoms: N2_10  and  O1_12 
REMARK    8  A    between atoms: O1_12  and  C9_13 
REMARK    9  A    between atoms: C9_13  and  C11_15 
REMARK   10  A    between atoms: C11_15  and  C12_17 
REMARK   11  A    between atoms: N3_21  and  C16_23 
ROOT
HETATM    1  C8  UNL     1       6.866  25.387  19.106  1.00  0.00     0.132 C 
HETATM    2  N2  UNL     1       6.058  25.453  20.023  1.00  0.00    -0.249 N 
ATOM      3  H2  UNL     1       5.374  24.698  19.963  1.00  0.00     0.196 HD
ENDROOT
BRANCH   1   4
HETATM    4  C7  UNL     1       6.678  24.246  18.129  1.00  0.00     0.009 A 
HETATM    5  C6  UNL     1       6.348  24.470  16.827  1.00  0.00     0.017 A 
HETATM    6  C5  UNL     1       6.194  23.393  15.976  1.00  0.00     0.030 A 
HETATM    7  C4  UNL     1       6.360  22.095  16.394  1.00  0.00     0.030 A 
HETATM    8  C21 UNL     1       6.691  21.896  17.709  1.00  0.00     0.030 A 
HETATM    9  C20 UNL     1       6.852  22.983  18.588  1.00  0.00     0.017 A 
BRANCH   7  10
HETATM   10  N1  UNL     1       6.156  20.954  15.526  1.00  0.00    -0.374 N 
BRANCH  10  11
HETATM   11  C3  UNL     1       5.376  19.899  16.113  1.00  0.00     0.123 C 
BRANCH  11  12
HETATM   12  C2  UNL     1       3.910  20.164  16.263  1.00  0.00     0.015 C 
HETATM   13  C1  UNL     1       3.181  19.604  15.027  1.00  0.00     0.006 C 
ENDBRANCH  11  12
ENDBRANCH  10  11
BRANCH  10  14
HETATM   14  C22 UNL     1       6.699  21.028  14.231  1.00  0.00     0.110 C 
HETATM   15  C23 UNL     1       7.101  19.679  13.618  1.00  0.00     0.053 C 
HETATM   16  C24 UNL     1       7.332  20.151  12.173  1.00  0.00     0.169 C 
HETATM   17  O3  UNL     1       6.624  21.331  12.001  1.00  0.00    -0.389 OA
HETATM   18  C25 UNL     1       5.764  21.446  13.108  1.00  0.00     0.193 C 
ENDBRANCH  10  14
ENDBRANCH   7  10
ENDBRANCH   1   4
BRANCH   1  19
HETATM   19  N3  UNL     1       7.966  26.213  18.844  1.00  0.00    -0.366 N 
ATOM     20  H3  UNL     1       8.857  25.718  18.852  1.00  0.00     0.162 HD
BRANCH  19  21
HETATM   21  C16 UNL     1       8.091  27.590  18.573  1.00  0.00     0.021 C 
HETATM   22  C17 UNL     1       6.899  28.464  18.733  1.00  0.00     0.037 C 
HETATM   23  C18 UNL     1       9.196  28.162  19.497  1.00  0.00     0.037 C 
HETATM   24  C19 UNL     1       8.651  27.848  17.169  1.00  0.00     0.037 C 
ENDBRANCH  19  21
ENDBRANCH   1  19
BRANCH   2  25
HETATM   25  O1  UNL     1       5.820  26.222  21.068  1.00  0.00    -0.266 OA
BRANCH  25  26
HETATM   26  C9  UNL     1       4.701  26.284  21.912  1.00  0.00     0.218 C 
HETATM   27  C10 UNL     1       4.673  25.019  22.748  1.00  0.00     0.050 C 
BRANCH  26  28
HETATM   28  C11 UNL     1       3.423  26.395  21.121  1.00  0.00     0.162 C 
HETATM   29  O2  UNL     1       2.613  25.499  21.268  1.00  0.00    -0.295 OA
BRANCH  28  30
HETATM   30  C12 UNL     1       3.167  27.527  20.220  1.00  0.00     0.062 A 
HETATM   31  C13 UNL     1       3.602  28.891  20.625  1.00  0.00     0.017 A 
HETATM   32  C14 UNL     1       2.115  28.533  20.449  1.00  0.00    -0.007 A 
HETATM   33  C15 UNL     1       1.231  28.521  21.660  1.00  0.00     0.011 C 
ENDBRANCH  28  30
ENDBRANCH  26  28
ENDBRANCH  25  26
ENDBRANCH   2  25
TORSDOF 11
ENDMDL
MODEL 5
REMARK VINA RESULT: -7.481784728      0.787      1.229
REMARK  11 active torsions:
REMARK  status: ('A' for Active; 'I' for Inactive)
REMARK    1  A    between atoms: C2_2  and  C3_3 
REMARK    2  A    between atoms: C3_3  and  N1_4 
REMARK    3  A    between atoms: N1_4  and  C4_5 
REMARK    4  A    between atoms: N1_4  and  C22_29 
REMARK    5  A    between atoms: C7_8  and  C8_9 
REMARK    6  A    between atoms: C8_9  and  N3_21 
REMARK    7  A    between atoms: N2_10  and  O1_12 
REMARK    8  A    between atoms: O1_12  and  C9_13 
REMARK    9  A    between atoms: C9_13  and  C11_15 
REMARK   10  A    between atoms: C11_15  and  C12_17 
REMARK   11  A    between atoms: N3_21  and  C16_23 
ROOT
HETATM    1  C8  UNL     1       6.241  21.066  15.646  1.00  0.00     0.132 C 
HETATM    2  N2  UNL     1       6.864  21.126  14.594  1.00  0.00    -0.249 N 
ATOM      3  H2  UNL     1       7.399  21.992  14.534  1.00  0.00     0.196 HD
ENDROOT
BRANCH   1   4
HETATM    4  C7  UNL     1       6.400  22.242  16.585  1.00  0.00     0.009 A 
HETATM    5  C6  UNL     1       6.751  22.070  17.889  1.00  0.00     0.017 A 
HETATM    6  C5  UNL     1       6.889  23.178  18.702  1.00  0.00     0.030 A 
HETATM    7  C4  UNL     1       6.682  24.457  18.245  1.00  0.00     0.030 A 
HETATM    8  C21 UNL     1       6.329  24.604  16.928  1.00  0.00     0.030 A 
HETATM    9  C20 UNL     1       6.186  23.485  16.088  1.00  0.00     0.017 A 
BRANCH   7  10
HETATM   10  N1  UNL     1       6.777  25.625  19.096  1.00  0.00    -0.374 N 
BRANCH  10  11
HETATM   11  C3  UNL     1       8.103  26.167  19.207  1.00  0.00     0.123 C 
BRANCH  11  12
HETATM   12  C2  UNL     1       8.479  27.208  18.200  1.00  0.00     0.015 C 
HETATM   13  C1  UNL     1       8.942  28.472  18.951  1.00  0.00     0.006 C 
ENDBRANCH  11  12
ENDBRANCH  10  11
BRANCH  10  14
HETATM   14  C22 UNL     1       5.583  26.100  19.668  1.00  0.00     0.110 C 
HETATM   15  C23 UNL     1       5.313  25.617  21.100  1.00  0.00     0.053 C 
HETATM   16  C24 UNL     1       4.151  26.564  21.439  1.00  0.00     0.169 C 
HETATM   17  O3  UNL     1       4.238  27.655  20.587  1.00  0.00    -0.389 OA
HETATM   18  C25 UNL     1       5.505  27.586  19.979  1.00  0.00     0.193 C 
ENDBRANCH  10  14
ENDBRANCH   7  10
ENDBRANCH   1   4
BRANCH   1  19
HETATM   19  N3  UNL     1       5.413  20.040  16.118  1.00  0.00    -0.366 N 
ATOM     20  H3  UNL     1       5.721  19.646  17.007  1.00  0.00     0.162 HD
BRANCH  19  21
HETATM   21  C16 UNL     1       4.241  19.442  15.615  1.00  0.00     0.021 C 
HETATM   22  C17 UNL     1       3.509  20.116  14.510  1.00  0.00     0.037 C 
HETATM   23  C18 UNL     1       4.605  18.022  15.113  1.00  0.00     0.037 C 
HETATM   24  C19 UNL     1       3.219  19.162  16.724  1.00  0.00     0.037 C 
ENDBRANCH  19  21
ENDBRANCH   1  19
BRANCH   2  25
HETATM   25  O1  UNL     1       7.040  20.389  13.514  1.00  0.00    -0.266 OA
BRANCH  25  26
HETATM   26  C9  UNL     1       6.611  20.596  12.194  1.00  0.00     0.218 C 
HETATM   27  C10 UNL     1       6.333  19.242  11.572  1.00  0.00     0.050 C 
BRANCH  26  28
HETATM   28  C11 UNL     1       7.657  21.319  11.385  1.00  0.00     0.162 C 
HETATM   29  O2  UNL     1       8.383  20.629  10.695  1.00  0.00    -0.295 OA
BRANCH  28  30
HETATM   30  C12 UNL     1       7.795  22.781  11.429  1.00  0.00     0.062 A 
HETATM   31  C13 UNL     1       6.630  23.608  11.847  1.00  0.00     0.017 A 
HETATM   32  C14 UNL     1       7.210  23.687  10.424  1.00  0.00    -0.007 A 
HETATM   33  C15 UNL     1       6.374  23.198   9.279  1.00  0.00     0.011 C 
ENDBRANCH  28  30
ENDBRANCH  26  28
ENDBRANCH  25  26
ENDBRANCH   2  25
TORSDOF 11
ENDMDL
