MODEL 1
REMARK VINA RESULT: -8.397854273      0.000      0.000
REMARK  10 active torsions:
REMARK  status: ('A' for Active; 'I' for Inactive)
REMARK    1  A    between atoms: C2_2  and  C3_3 
REMARK    2  A    between atoms: C3_3  and  N1_4 
REMARK    3  A    between atoms: N1_4  and  C4_6 
REMARK    4  A    between atoms: C4_6  and  C5_8 
REMARK    5  A    between atoms: C5_8  and  S2_9 
REMARK    6  A    between atoms: S2_9  and  C6_10 
REMARK    7  A    between atoms: C7_15  and  C8_16 
REMARK    8  A    between atoms: C8_16  and  S3_17 
REMARK    9  A    between atoms: S3_17  and  C9_18 
REMARK   10  A    between atoms: N4_25  and  C16_26 
ROOT
HETATM    1  C6  UNL     1       5.371  29.148  19.837  1.00  0.00     0.163 A 
HETATM    2  N2  UNL     1       6.342  29.754  19.140  1.00  0.00    -0.278 N 
ATOM      3  H2  UNL     1       6.372  30.728  18.837  1.00  0.00     0.189 HD
HETATM    4  N3  UNL     1       7.239  28.836  18.931  1.00  0.00    -0.286 N 
ATOM      5  H3  UNL     1       8.107  28.994  18.420  1.00  0.00     0.188 HD
HETATM    6  C7  UNL     1       6.888  27.660  19.465  1.00  0.00     0.110 A 
HETATM    7  N4  UNL     1       5.686  27.860  20.049  1.00  0.00    -0.309 N 
ENDROOT
BRANCH   1   8
HETATM    8  S2  UNL     1       3.851  29.944  20.416  1.00  0.00    -0.085 SA
BRANCH   8   9
HETATM    9  C5  UNL     1       2.594  29.941  19.149  1.00  0.00     0.151 C 
BRANCH   9  10
HETATM   10  C4  UNL     1       1.376  29.228  19.534  1.00  0.00     0.083 C 
HETATM   11  S1  UNL     1       0.997  29.102  21.118  1.00  0.00    -0.065 SA
BRANCH  10  12
HETATM   12  N1  UNL     1       0.502  28.638  18.581  1.00  0.00    -0.380 N 
ATOM     13  H1  UNL     1       0.900  27.992  17.900  1.00  0.00     0.160 HD
BRANCH  12  14
HETATM   14  C3  UNL     1      -0.900  28.895  18.523  1.00  0.00     0.147 C 
BRANCH  14  15
HETATM   15  C2  UNL     1      -1.290  30.153  17.863  1.00  0.00    -0.018 C 
HETATM   16  C1  UNL     1      -2.495  30.511  17.514  1.00  0.00     0.008 C 
ENDBRANCH  14  15
ENDBRANCH  12  14
ENDBRANCH  10  12
ENDBRANCH   9  10
ENDBRANCH   8   9
ENDBRANCH   1   8
BRANCH   7  17
HETATM   17  C16 UNL     1       4.889  26.939  20.764  1.00  0.00     0.093 C 
HETATM   18  C17 UNL     1       3.716  26.331  20.093  1.00  0.00     0.026 C 
HETATM   19  C18 UNL     1       2.787  25.824  21.212  1.00  0.00     0.002 C 
HETATM   20  C19 UNL     1       3.463  24.954  22.189  1.00  0.00     0.000 C 
HETATM   21  C20 UNL     1       4.877  25.258  22.507  1.00  0.00     0.002 C 
HETATM   22  C21 UNL     1       5.689  25.797  21.379  1.00  0.00     0.026 C 
ENDBRANCH   7  17
BRANCH   6  23
HETATM   23  C8  UNL     1       7.670  26.404  19.430  1.00  0.00     0.157 C 
BRANCH  23  24
HETATM   24  S3  UNL     1       7.912  25.805  17.790  1.00  0.00    -0.122 SA
BRANCH  24  25
HETATM   25  C9  UNL     1       7.168  24.291  17.343  1.00  0.00     0.001 A 
HETATM   26  C10 UNL     1       7.167  23.296  18.331  1.00  0.00     0.019 A 
HETATM   27  C11 UNL     1       6.644  22.047  18.145  1.00  0.00     0.008 A 
HETATM   28  C12 UNL     1       6.082  21.729  16.923  1.00  0.00    -0.062 A 
HETATM   29  C13 UNL     1       5.506  20.388  16.683  1.00  0.00     0.048 C 
HETATM   30  C14 UNL     1       6.071  22.687  15.939  1.00  0.00     0.008 A 
HETATM   31  C15 UNL     1       6.611  23.954  16.151  1.00  0.00     0.019 A 
ENDBRANCH  24  25
ENDBRANCH  23  24
ENDBRANCH   6  23
TORSDOF 10
ENDMDL
MODEL 2
REMARK VINA RESULT: -8.166291126      1.329      1.888
REMARK  10 active torsions:
REMARK  status: ('A' for Active; 'I' for Inactive)
REMARK    1  A    between atoms: C2_2  and  C3_3 
REMARK    2  A    between atoms: C3_3  and  N1_4 
REMARK    3  A    between atoms: N1_4  and  C4_6 
REMARK    4  A    between atoms: C4_6  and  C5_8 
REMARK    5  A    between atoms: C5_8  and  S2_9 
REMARK    6  A    between atoms: S2_9  and  C6_10 
REMARK    7  A    between atoms: C7_15  and  C8_16 
REMARK    8  A    between atoms: C8_16  and  S3_17 
REMARK    9  A    between atoms: S3_17  and  C9_18 
REMARK   10  A    between atoms: N4_25  and  C16_26 
ROOT
HETATM    1  C6  UNL     1       5.070  30.375  19.950  1.00  0.00     0.163 A 
HETATM    2  N2  UNL     1       5.808  31.392  19.482  1.00  0.00    -0.278 N 
ATOM      3  H2  UNL     1       5.498  32.345  19.293  1.00  0.00     0.189 HD
HETATM    4  N3  UNL     1       7.001  30.904  19.319  1.00  0.00    -0.286 N 
ATOM      5  H3  UNL     1       7.794  31.442  18.970  1.00  0.00     0.188 HD
HETATM    6  C7  UNL     1       7.067  29.611  19.664  1.00  0.00     0.110 A 
HETATM    7  N4  UNL     1       5.825  29.271  20.070  1.00  0.00    -0.309 N 
ENDROOT
BRANCH   1   8
HETATM    8  S2  UNL     1       3.310  30.468  20.366  1.00  0.00    -0.085 SA
BRANCH   8   9
HETATM    9  C5  UNL     1       2.294  29.891  19.017  1.00  0.00     0.151 C 
BRANCH   9  10
HETATM   10  C4  UNL     1       1.151  29.086  19.446  1.00  0.00     0.083 C 
HETATM   11  S1  UNL     1       0.957  28.768  21.037  1.00  0.00    -0.065 SA
BRANCH  10  12
HETATM   12  N1  UNL     1       0.195  28.566  18.532  1.00  0.00    -0.380 N 
ATOM     13  H1  UNL     1       0.508  27.877  17.849  1.00  0.00     0.160 HD
BRANCH  12  14
HETATM   14  C3  UNL     1      -1.178  28.952  18.515  1.00  0.00     0.147 C 
BRANCH  14  15
HETATM   15  C2  UNL     1      -1.474  30.226  17.837  1.00  0.00    -0.018 C 
HETATM   16  C1  UNL     1      -2.642  30.645  17.437  1.00  0.00     0.008 C 
ENDBRANCH  14  15
ENDBRANCH  12  14
ENDBRANCH  10  12
ENDBRANCH   9  10
ENDBRANCH   8   9
ENDBRANCH   1   8
BRANCH   7  17
HETATM   17  C16 UNL     1       5.365  28.024  20.550  1.00  0.00     0.093 C 
HETATM   18  C17 UNL     1       4.629  27.976  21.835  1.00  0.00     0.026 C 
HETATM   19  C18 UNL     1       4.725  26.524  22.339  1.00  0.00     0.002 C 
HETATM   20  C19 UNL     1       4.300  25.526  21.343  1.00  0.00     0.000 C 
HETATM   21  C20 UNL     1       4.592  25.818  19.921  1.00  0.00     0.002 C 
HETATM   22  C21 UNL     1       4.531  27.256  19.533  1.00  0.00     0.026 C 
ENDBRANCH   7  17
BRANCH   6  23
HETATM   23  C8  UNL     1       8.266  28.744  19.618  1.00  0.00     0.157 C 
BRANCH  23  24
HETATM   24  S3  UNL     1       8.356  27.794  18.136  1.00  0.00    -0.122 SA
BRANCH  24  25
HETATM   25  C9  UNL     1       7.895  26.113  18.199  1.00  0.00     0.001 A 
HETATM   26  C10 UNL     1       8.139  25.459  19.416  1.00  0.00     0.019 A 
HETATM   27  C11 UNL     1       7.858  24.139  19.633  1.00  0.00     0.008 A 
HETATM   28  C12 UNL     1       7.302  23.392  18.612  1.00  0.00    -0.062 A 
HETATM   29  C13 UNL     1       6.982  21.962  18.809  1.00  0.00     0.048 C 
HETATM   30  C14 UNL     1       7.052  24.011  17.412  1.00  0.00     0.008 A 
HETATM   31  C15 UNL     1       7.348  25.358  17.212  1.00  0.00     0.019 A 
ENDBRANCH  24  25
ENDBRANCH  23  24
ENDBRANCH   6  23
TORSDOF 10
ENDMDL
MODEL 3
REMARK VINA RESULT: -8.011342670      2.176      8.289
REMARK  10 active torsions:
REMARK  status: ('A' for Active; 'I' for Inactive)
REMARK    1  A    between atoms: C2_2  and  C3_3 
REMARK    2  A    between atoms: C3_3  and  N1_4 
REMARK    3  A    between atoms: N1_4  and  C4_6 
REMARK    4  A    between atoms: C4_6  and  C5_8 
REMARK    5  A    between atoms: C5_8  and  S2_9 
REMARK    6  A    between atoms: S2_9  and  C6_10 
REMARK    7  A    between atoms: C7_15  and  C8_16 
REMARK    8  A    between atoms: C8_16  and  S3_17 
REMARK    9  A    between atoms: S3_17  and  C9_18 
REMARK   10  A    between atoms: N4_25  and  C16_26 
ROOT
HETATM    1  C6  UNL     1       4.875  26.362  19.773  1.00  0.00     0.163 A 
HETATM    2  N2  UNL     1       3.715  25.717  19.953  1.00  0.00    -0.278 N 
ATOM      3  H2  UNL     1       3.528  24.725  19.801  1.00  0.00     0.189 HD
HETATM    4  N3  UNL     1       2.877  26.623  20.362  1.00  0.00    -0.286 N 
ATOM      5  H3  UNL     1       1.900  26.436  20.586  1.00  0.00     0.188 HD
HETATM    6  C7  UNL     1       3.449  27.830  20.455  1.00  0.00     0.110 A 
HETATM    7  N4  UNL     1       4.735  27.663  20.077  1.00  0.00    -0.309 N 
ENDROOT
BRANCH   1   8
HETATM    8  S2  UNL     1       6.416  25.599  19.205  1.00  0.00    -0.085 SA
BRANCH   8   9
HETATM    9  C5  UNL     1       6.119  24.450  17.873  1.00  0.00     0.151 C 
BRANCH   9  10
HETATM   10  C4  UNL     1       6.747  23.145  18.073  1.00  0.00     0.083 C 
HETATM   11  S1  UNL     1       6.296  21.893  17.124  1.00  0.00    -0.065 SA
BRANCH  10  12
HETATM   12  N1  UNL     1       7.740  22.917  19.064  1.00  0.00    -0.380 N 
ATOM     13  H1  UNL     1       8.694  23.216  18.864  1.00  0.00     0.160 HD
BRANCH  12  14
HETATM   14  C3  UNL     1       7.480  22.296  20.321  1.00  0.00     0.147 C 
BRANCH  14  15
HETATM   15  C2  UNL     1       7.645  23.157  21.504  1.00  0.00    -0.018 C 
HETATM   16  C1  UNL     1       6.831  23.255  22.519  1.00  0.00     0.008 C 
ENDBRANCH  14  15
ENDBRANCH  12  14
ENDBRANCH  10  12
ENDBRANCH   9  10
ENDBRANCH   8   9
ENDBRANCH   1   8
BRANCH   7  17
HETATM   17  C16 UNL     1       5.767  28.625  20.012  1.00  0.00     0.093 C 
HETATM   18  C17 UNL     1       7.029  28.280  19.316  1.00  0.00     0.026 C 
HETATM   19  C18 UNL     1       8.099  29.254  19.843  1.00  0.00     0.002 C 
HETATM   20  C19 UNL     1       7.705  30.670  19.747  1.00  0.00     0.000 C 
HETATM   21  C20 UNL     1       6.274  30.992  19.947  1.00  0.00     0.002 C 
HETATM   22  C21 UNL     1       5.308  29.967  19.456  1.00  0.00     0.026 C 
ENDBRANCH   7  17
BRANCH   6  23
HETATM   23  C8  UNL     1       2.800  29.085  20.896  1.00  0.00     0.157 C 
BRANCH  23  24
HETATM   24  S3  UNL     1       1.048  28.929  21.026  1.00  0.00    -0.122 SA
BRANCH  24  25
HETATM   25  C9  UNL     1       0.067  29.470  19.688  1.00  0.00     0.001 A 
HETATM   26  C10 UNL     1      -1.305  29.593  19.949  1.00  0.00     0.019 A 
HETATM   27  C11 UNL     1      -2.220  29.985  19.011  1.00  0.00     0.008 A 
HETATM   28  C12 UNL     1      -1.788  30.281  17.732  1.00  0.00    -0.062 A 
HETATM   29  C13 UNL     1      -2.746  30.709  16.691  1.00  0.00     0.048 C 
HETATM   30  C14 UNL     1      -0.447  30.169  17.454  1.00  0.00     0.008 A 
HETATM   31  C15 UNL     1       0.467  29.766  18.425  1.00  0.00     0.019 A 
ENDBRANCH  24  25
ENDBRANCH  23  24
ENDBRANCH   6  23
TORSDOF 10
ENDMDL
MODEL 4
REMARK VINA RESULT: -7.969017306      4.132      7.270
REMARK  10 active torsions:
REMARK  status: ('A' for Active; 'I' for Inactive)
REMARK    1  A    between atoms: C2_2  and  C3_3 
REMARK    2  A    between atoms: C3_3  and  N1_4 
REMARK    3  A    between atoms: N1_4  and  C4_6 
REMARK    4  A    between atoms: C4_6  and  C5_8 
REMARK    5  A    between atoms: C5_8  and  S2_9 
REMARK    6  A    between atoms: S2_9  and  C6_10 
REMARK    7  A    between atoms: C7_15  and  C8_16 
REMARK    8  A    between atoms: C8_16  and  S3_17 
REMARK    9  A    between atoms: S3_17  and  C9_18 
REMARK   10  A    between atoms: N4_25  and  C16_26 
ROOT
HETATM    1  C6  UNL     1       6.589  23.939  21.460  1.00  0.00     0.163 A 
HETATM    2  N2  UNL     1       7.326  22.858  21.168  1.00  0.00    -0.278 N 
ATOM      3  H2  UNL     1       7.553  22.079  21.786  1.00  0.00     0.189 HD
HETATM    4  N3  UNL     1       7.691  23.015  19.930  1.00  0.00    -0.286 N 
ATOM      5  H3  UNL     1       8.268  22.349  19.418  1.00  0.00     0.188 HD
HETATM    6  C7  UNL     1       7.219  24.154  19.408  1.00  0.00     0.110 A 
HETATM    7  N4  UNL     1       6.510  24.749  20.391  1.00  0.00    -0.309 N 
ENDROOT
BRANCH   1   8
HETATM    8  S2  UNL     1       5.807  24.268  23.059  1.00  0.00    -0.085 SA
BRANCH   8   9
HETATM    9  C5  UNL     1       6.603  23.354  24.370  1.00  0.00     0.151 C 
BRANCH   9  10
HETATM   10  C4  UNL     1       5.711  23.025  25.481  1.00  0.00     0.083 C 
HETATM   11  S1  UNL     1       4.234  23.721  25.546  1.00  0.00    -0.065 SA
BRANCH  10  12
HETATM   12  N1  UNL     1       6.077  22.120  26.514  1.00  0.00    -0.380 N 
ATOM     13  H1  UNL     1       5.400  21.937  27.254  1.00  0.00     0.160 HD
BRANCH  12  14
HETATM   14  C3  UNL     1       7.336  21.453  26.576  1.00  0.00     0.147 C 
BRANCH  14  15
HETATM   15  C2  UNL     1       7.295  19.994  26.380  1.00  0.00    -0.018 C 
HETATM   16  C1  UNL     1       7.218  19.359  25.243  1.00  0.00     0.008 C 
ENDBRANCH  14  15
ENDBRANCH  12  14
ENDBRANCH  10  12
ENDBRANCH   9  10
ENDBRANCH   8   9
ENDBRANCH   1   8
BRANCH   7  17
HETATM   17  C16 UNL     1       5.796  25.968  20.350  1.00  0.00     0.093 C 
HETATM   18  C17 UNL     1       6.391  27.125  19.642  1.00  0.00     0.026 C 
HETATM   19  C18 UNL     1       5.691  28.381  20.192  1.00  0.00     0.002 C 
HETATM   20  C19 UNL     1       4.221  28.308  20.136  1.00  0.00     0.000 C 
HETATM   21  C20 UNL     1       3.598  26.982  20.348  1.00  0.00     0.002 C 
HETATM   22  C21 UNL     1       4.372  25.817  19.832  1.00  0.00     0.026 C 
ENDBRANCH   7  17
BRANCH   6  23
HETATM   23  C8  UNL     1       7.427  24.647  18.028  1.00  0.00     0.157 C 
BRANCH  23  24
HETATM   24  S3  UNL     1       6.181  24.083  16.915  1.00  0.00    -0.122 SA
BRANCH  24  25
HETATM   25  C9  UNL     1       6.634  23.753  15.263  1.00  0.00     0.001 A 
HETATM   26  C10 UNL     1       6.908  24.876  14.469  1.00  0.00     0.019 A 
HETATM   27  C11 UNL     1       7.258  24.801  13.149  1.00  0.00     0.008 A 
HETATM   28  C12 UNL     1       7.353  23.560  12.548  1.00  0.00    -0.062 A 
HETATM   29  C13 UNL     1       7.729  23.437  11.124  1.00  0.00     0.048 C 
HETATM   30  C14 UNL     1       7.089  22.445  13.306  1.00  0.00     0.008 A 
HETATM   31  C15 UNL     1       6.733  22.546  14.649  1.00  0.00     0.019 A 
ENDBRANCH  24  25
ENDBRANCH  23  24
ENDBRANCH   6  23
TORSDOF 10
ENDMDL
MODEL 5
REMARK VINA RESULT: -7.958858323      1.362      1.999
REMARK  10 active torsions:
REMARK  status: ('A' for Active; 'I' for Inactive)
REMARK    1  A    between atoms: C2_2  and  C3_3 
REMARK    2  A    between atoms: C3_3  and  N1_4 
REMARK    3  A    between atoms: N1_4  and  C4_6 
REMARK    4  A    between atoms: C4_6  and  C5_8 
REMARK    5  A    between atoms: C5_8  and  S2_9 
REMARK    6  A    between atoms: S2_9  and  C6_10 
REMARK    7  A    between atoms: C7_15  and  C8_16 
REMARK    8  A    between atoms: C8_16  and  S3_17 
REMARK    9  A    between atoms: S3_17  and  C9_18 
REMARK   10  A    between atoms: N4_25  and  C16_26 
ROOT
HETATM    1  C6  UNL     1       5.952  28.619  19.732  1.00  0.00     0.163 A 
HETATM    2  N2  UNL     1       6.986  28.985  18.961  1.00  0.00    -0.278 N 
ATOM      3  H2  UNL     1       7.209  29.925  18.631  1.00  0.00     0.189 HD
HETATM    4  N3  UNL     1       7.643  27.889  18.722  1.00  0.00    -0.286 N 
ATOM      5  H3  UNL     1       8.489  27.844  18.156  1.00  0.00     0.188 HD
HETATM    6  C7  UNL     1       7.076  26.827  19.308  1.00  0.00     0.110 A 
HETATM    7  N4  UNL     1       5.989  27.296  19.958  1.00  0.00    -0.309 N 
ENDROOT
BRANCH   1   8
HETATM    8  S2  UNL     1       4.686  29.739  20.380  1.00  0.00    -0.085 SA
BRANCH   8   9
HETATM    9  C5  UNL     1       3.663  30.389  19.070  1.00  0.00     0.151 C 
BRANCH   9  10
HETATM   10  C4  UNL     1       2.262  29.982  19.163  1.00  0.00     0.083 C 
HETATM   11  S1  UNL     1       1.694  29.408  20.583  1.00  0.00    -0.065 SA
BRANCH  10  12
HETATM   12  N1  UNL     1       1.367  30.064  18.062  1.00  0.00    -0.380 N 
ATOM     13  H1  UNL     1       1.718  30.447  17.185  1.00  0.00     0.160 HD
BRANCH  12  14
HETATM   14  C3  UNL     1       0.005  29.642  18.112  1.00  0.00     0.147 C 
BRANCH  14  15
HETATM   15  C2  UNL     1      -0.990  30.651  17.713  1.00  0.00    -0.018 C 
HETATM   16  C1  UNL     1      -2.265  30.456  17.514  1.00  0.00     0.008 C 
ENDBRANCH  14  15
ENDBRANCH  12  14
ENDBRANCH  10  12
ENDBRANCH   9  10
ENDBRANCH   8   9
ENDBRANCH   1   8
BRANCH   7  17
HETATM   17  C16 UNL     1       5.057  26.583  20.745  1.00  0.00     0.093 C 
HETATM   18  C17 UNL     1       3.830  26.054  20.103  1.00  0.00     0.026 C 
HETATM   19  C18 UNL     1       2.813  25.817  21.234  1.00  0.00     0.002 C 
HETATM   20  C19 UNL     1       3.340  24.995  22.337  1.00  0.00     0.000 C 
HETATM   21  C20 UNL     1       4.773  25.149  22.675  1.00  0.00     0.002 C 
HETATM   22  C21 UNL     1       5.679  25.432  21.525  1.00  0.00     0.026 C 
ENDBRANCH   7  17
BRANCH   6  23
HETATM   23  C8  UNL     1       7.559  25.428  19.260  1.00  0.00     0.157 C 
BRANCH  23  24
HETATM   24  S3  UNL     1       6.582  24.413  18.199  1.00  0.00    -0.122 SA
BRANCH  24  25
HETATM   25  C9  UNL     1       6.919  24.439  16.487  1.00  0.00     0.001 A 
HETATM   26  C10 UNL     1       6.429  23.349  15.753  1.00  0.00     0.019 A 
HETATM   27  C11 UNL     1       6.618  23.199  14.407  1.00  0.00     0.008 A 
HETATM   28  C12 UNL     1       7.328  24.162  13.716  1.00  0.00    -0.062 A 
HETATM   29  C13 UNL     1       7.553  24.035  12.260  1.00  0.00     0.048 C 
HETATM   30  C14 UNL     1       7.818  25.239  14.414  1.00  0.00     0.008 A 
HETATM   31  C15 UNL     1       7.613  25.371  15.786  1.00  0.00     0.019 A 
ENDBRANCH  24  25
ENDBRANCH  23  24
ENDBRANCH   6  23
TORSDOF 10
ENDMDL
