MODEL 1
REMARK VINA RESULT: -5.300528036      0.000      0.000
REMARK  8 active torsions:
REMARK  status: ('A' for Active; 'I' for Inactive)
REMARK    1  A    between atoms: N1_2  and  O1_3 
REMARK    2  A    between atoms: N1_2  and  N2_5 
REMARK    3  A    between atoms: N2_5  and  N3_7 
REMARK    4  A    between atoms: N3_7  and  C2_9 
REMARK    5  A    between atoms: C4_16  and  N6_17 
REMARK    6  A    between atoms: C4_16  and  C6_25 
REMARK       I    between atoms: N6_17  and  C5_19 
REMARK    7  A    between atoms: C5_19  and  O3_21 
REMARK    8  A    between atoms: O3_21  and  N7_22 
ROOT
HETATM    1  C2  UNL     1      -0.165  -4.232   1.699  1.00  0.00     0.164 C 
HETATM    2  N4  UNL     1      -1.291  -4.750   1.186  1.00  0.00    -0.351 N 
ATOM      3  H4  UNL     1      -1.379  -5.121   0.240  1.00  0.00     0.162 HD
HETATM    4  C3  UNL     1      -2.348  -4.709   2.143  1.00  0.00     0.360 C 
HETATM    5  N5  UNL     1      -1.501  -4.754   3.391  1.00  0.00    -0.015 N 
ATOM      6  H51 UNL     1      -1.125  -5.665   3.655  1.00  0.00     0.283 HD
ATOM      7  H52 UNL     1      -1.988  -4.621   4.278  1.00  0.00     0.283 HD
HETATM    8  C4  UNL     1      -0.544  -3.745   3.027  1.00  0.00     0.350 C 
ENDROOT
BRANCH   8   9
HETATM    9  N6  UNL     1       0.538  -3.442   3.878  1.00  0.00    -0.287 N 
HETATM   10  C5  UNL     1       0.485  -3.681   5.269  1.00  0.00     0.384 C 
HETATM   11  O2  UNL     1      -0.541  -4.161   5.877  1.00  0.00    -0.236 OA
ATOM     12  H6  UNL     1       1.385  -3.038   3.478  1.00  0.00     0.168 HD
BRANCH  10  13
HETATM   13  O3  UNL     1       1.542  -3.405   6.122  1.00  0.00    -0.188 OA
BRANCH  13  14
HETATM   14  N7  UNL     1       1.376  -3.070   7.429  1.00  0.00    -0.301 N 
ATOM     15  H72 UNL     1       0.423  -3.054   7.792  1.00  0.00     0.184 HD
ATOM     16  H71 UNL     1       2.151  -2.839   8.050  1.00  0.00     0.184 HD
ENDBRANCH  13  14
ENDBRANCH  10  13
ENDBRANCH   8   9
BRANCH   8  17
HETATM   17  C6  UNL     1      -1.410  -2.506   2.847  1.00  0.00     0.241 C 
HETATM   18  O4  UNL     1      -1.700  -1.955   1.802  1.00  0.00    -0.644 OA
HETATM   19  O5  UNL     1      -1.895  -1.982   4.092  1.00  0.00    -0.644 OA
ENDBRANCH   8  17
BRANCH   1  20
HETATM   20  N3  UNL     1       1.031  -4.247   0.894  1.00  0.00    -0.269 N 
ATOM     21  H3  UNL     1       1.925  -4.551   1.279  1.00  0.00     0.190 HD
BRANCH  20  22
HETATM   22  N2  UNL     1       0.917  -3.820  -0.461  1.00  0.00    -0.220 N 
ATOM     23  H2  UNL     1       1.122  -2.863  -0.748  1.00  0.00     0.210 HD
BRANCH  22  24
HETATM   24  N1  UNL     1       0.515  -4.776  -1.352  1.00  0.00    -0.192 N 
HETATM   25  C1  UNL     1      -0.030  -4.321  -2.641  1.00  0.00     0.209 C 
BRANCH  24  26
HETATM   26  O1  UNL     1       0.613  -5.995  -1.069  1.00  0.00    -0.272 OA
ATOM     27  H1  UNL     1       1.429  -6.374  -0.767  1.00  0.00     0.246 HD
ENDBRANCH  24  26
ENDBRANCH  22  24
ENDBRANCH  20  22
ENDBRANCH   1  20
TORSDOF 8
ENDMDL
MODEL 2
REMARK VINA RESULT: -5.235490397      1.956      5.731
REMARK  8 active torsions:
REMARK  status: ('A' for Active; 'I' for Inactive)
REMARK    1  A    between atoms: N1_2  and  O1_3 
REMARK    2  A    between atoms: N1_2  and  N2_5 
REMARK    3  A    between atoms: N2_5  and  N3_7 
REMARK    4  A    between atoms: N3_7  and  C2_9 
REMARK    5  A    between atoms: C4_16  and  N6_17 
REMARK    6  A    between atoms: C4_16  and  C6_25 
REMARK       I    between atoms: N6_17  and  C5_19 
REMARK    7  A    between atoms: C5_19  and  O3_21 
REMARK    8  A    between atoms: O3_21  and  N7_22 
ROOT
HETATM    1  C2  UNL     1       0.018  -2.930   4.091  1.00  0.00     0.164 C 
HETATM    2  N4  UNL     1      -1.078  -2.336   4.585  1.00  0.00    -0.351 N 
ATOM      3  H4  UNL     1      -1.146  -1.928   5.518  1.00  0.00     0.162 HD
HETATM    4  C3  UNL     1      -2.137  -2.353   3.629  1.00  0.00     0.360 C 
HETATM    5  N5  UNL     1      -1.291  -2.396   2.381  1.00  0.00    -0.015 N 
ATOM      6  H51 UNL     1      -0.868  -1.516   2.087  1.00  0.00     0.283 HD
ATOM      7  H52 UNL     1      -1.785  -2.533   1.499  1.00  0.00     0.283 HD
HETATM    8  C4  UNL     1      -0.388  -3.441   2.780  1.00  0.00     0.350 C 
ENDROOT
BRANCH   8   9
HETATM    9  N6  UNL     1       0.676  -3.830   1.941  1.00  0.00    -0.287 N 
HETATM   10  C5  UNL     1       0.515  -3.965   0.544  1.00  0.00     0.384 C 
HETATM   11  O2  UNL     1      -0.598  -3.778  -0.073  1.00  0.00    -0.236 OA
ATOM     12  H6  UNL     1       1.589  -4.019   2.354  1.00  0.00     0.168 HD
BRANCH  10  13
HETATM   13  O3  UNL     1       1.549  -4.332  -0.302  1.00  0.00    -0.188 OA
BRANCH  13  14
HETATM   14  N7  UNL     1       1.352  -4.777  -1.571  1.00  0.00    -0.301 N 
ATOM     15  H72 UNL     1       1.974  -5.508  -1.914  1.00  0.00     0.184 HD
ATOM     16  H71 UNL     1       0.620  -4.415  -2.183  1.00  0.00     0.184 HD
ENDBRANCH  13  14
ENDBRANCH  10  13
ENDBRANCH   8   9
BRANCH   8  17
HETATM   17  C6  UNL     1      -1.318  -4.626   3.002  1.00  0.00     0.241 C 
HETATM   18  O4  UNL     1      -2.232  -4.988   2.285  1.00  0.00    -0.644 OA
HETATM   19  O5  UNL     1      -1.029  -5.340   4.213  1.00  0.00    -0.644 OA
ENDBRANCH   8  17
BRANCH   1  20
HETATM   20  N3  UNL     1       1.214  -2.951   4.896  1.00  0.00    -0.269 N 
ATOM     21  H3  UNL     1       1.947  -2.252   4.774  1.00  0.00     0.190 HD
BRANCH  20  22
HETATM   22  N2  UNL     1       1.333  -3.985   5.869  1.00  0.00    -0.220 N 
ATOM     23  H2  UNL     1       1.504  -4.957   5.610  1.00  0.00     0.210 HD
BRANCH  22  24
HETATM   24  N1  UNL     1       1.206  -3.591   7.172  1.00  0.00    -0.192 N 
HETATM   25  C1  UNL     1       2.215  -4.068   8.130  1.00  0.00     0.209 C 
BRANCH  24  26
HETATM   26  O1  UNL     1       0.257  -2.849   7.525  1.00  0.00    -0.272 OA
ATOM     27  H1  UNL     1      -0.452  -3.169   8.069  1.00  0.00     0.246 HD
ENDBRANCH  24  26
ENDBRANCH  22  24
ENDBRANCH  20  22
ENDBRANCH   1  20
TORSDOF 8
ENDMDL
MODEL 3
REMARK VINA RESULT: -5.128570890      1.832      3.229
REMARK  8 active torsions:
REMARK  status: ('A' for Active; 'I' for Inactive)
REMARK    1  A    between atoms: N1_2  and  O1_3 
REMARK    2  A    between atoms: N1_2  and  N2_5 
REMARK    3  A    between atoms: N2_5  and  N3_7 
REMARK    4  A    between atoms: N3_7  and  C2_9 
REMARK    5  A    between atoms: C4_16  and  N6_17 
REMARK    6  A    between atoms: C4_16  and  C6_25 
REMARK       I    between atoms: N6_17  and  C5_19 
REMARK    7  A    between atoms: C5_19  and  O3_21 
REMARK    8  A    between atoms: O3_21  and  N7_22 
ROOT
HETATM    1  C2  UNL     1      -0.492  -4.264   2.128  1.00  0.00     0.164 C 
HETATM    2  N4  UNL     1       0.759  -4.742   2.203  1.00  0.00    -0.351 N 
ATOM      3  H4  UNL     1       1.181  -5.368   1.518  1.00  0.00     0.162 HD
HETATM    4  C3  UNL     1       1.418  -4.256   3.371  1.00  0.00     0.360 C 
HETATM    5  N5  UNL     1       0.645  -2.969   3.526  1.00  0.00    -0.015 N 
ATOM      6  H51 UNL     1       0.906  -2.204   2.905  1.00  0.00     0.283 HD
ATOM      7  H52 UNL     1       0.820  -2.431   4.376  1.00  0.00     0.283 HD
HETATM    8  C4  UNL     1      -0.680  -3.503   3.366  1.00  0.00     0.350 C 
ENDROOT
BRANCH   8   9
HETATM    9  N6  UNL     1      -1.803  -2.652   3.374  1.00  0.00    -0.287 N 
HETATM   10  C5  UNL     1      -1.678  -1.252   3.516  1.00  0.00     0.384 C 
HETATM   11  O2  UNL     1      -0.558  -0.642   3.675  1.00  0.00    -0.236 OA
ATOM     12  H6  UNL     1      -2.733  -3.058   3.274  1.00  0.00     0.168 HD
BRANCH  10  13
HETATM   13  O3  UNL     1      -2.767  -0.395   3.511  1.00  0.00    -0.188 OA
BRANCH  13  14
HETATM   14  N7  UNL     1      -3.375   0.043   4.646  1.00  0.00    -0.301 N 
ATOM     15  H72 UNL     1      -3.649  -0.660   5.332  1.00  0.00     0.184 HD
ATOM     16  H71 UNL     1      -3.564   1.027   4.835  1.00  0.00     0.184 HD
ENDBRANCH  13  14
ENDBRANCH  10  13
ENDBRANCH   8   9
BRANCH   8  17
HETATM   17  C6  UNL     1      -0.787  -4.494   4.518  1.00  0.00     0.241 C 
HETATM   18  O4  UNL     1      -0.985  -5.692   4.443  1.00  0.00    -0.644 OA
HETATM   19  O5  UNL     1      -0.634  -3.871   5.802  1.00  0.00    -0.644 OA
ENDBRANCH   8  17
BRANCH   1  20
HETATM   20  N3  UNL     1      -1.292  -4.598   0.976  1.00  0.00    -0.269 N 
ATOM     21  H3  UNL     1      -2.071  -5.252   1.045  1.00  0.00     0.190 HD
BRANCH  20  22
HETATM   22  N2  UNL     1      -0.951  -3.981  -0.262  1.00  0.00    -0.220 N 
ATOM     23  H2  UNL     1      -1.268  -3.042  -0.505  1.00  0.00     0.210 HD
BRANCH  22  24
HETATM   24  N1  UNL     1      -0.174  -4.727  -1.103  1.00  0.00    -0.192 N 
HETATM   25  C1  UNL     1       0.107  -4.177  -2.438  1.00  0.00     0.209 C 
BRANCH  24  26
HETATM   26  O1  UNL     1       0.278  -5.840  -0.737  1.00  0.00    -0.272 OA
ATOM     27  H1  UNL     1       0.396  -6.054   0.180  1.00  0.00     0.246 HD
ENDBRANCH  24  26
ENDBRANCH  22  24
ENDBRANCH  20  22
ENDBRANCH   1  20
TORSDOF 8
ENDMDL
MODEL 4
REMARK VINA RESULT: -5.032740711      1.568      1.792
REMARK  8 active torsions:
REMARK  status: ('A' for Active; 'I' for Inactive)
REMARK    1  A    between atoms: N1_2  and  O1_3 
REMARK    2  A    between atoms: N1_2  and  N2_5 
REMARK    3  A    between atoms: N2_5  and  N3_7 
REMARK    4  A    between atoms: N3_7  and  C2_9 
REMARK    5  A    between atoms: C4_16  and  N6_17 
REMARK    6  A    between atoms: C4_16  and  C6_25 
REMARK       I    between atoms: N6_17  and  C5_19 
REMARK    7  A    between atoms: C5_19  and  O3_21 
REMARK    8  A    between atoms: O3_21  and  N7_22 
ROOT
HETATM    1  C2  UNL     1      -0.446  -3.547   2.355  1.00  0.00     0.164 C 
HETATM    2  N4  UNL     1      -1.523  -2.893   1.898  1.00  0.00    -0.351 N 
ATOM      3  H4  UNL     1      -1.881  -2.960   0.946  1.00  0.00     0.162 HD
HETATM    4  C3  UNL     1      -2.101  -2.089   2.926  1.00  0.00     0.360 C 
HETATM    5  N5  UNL     1      -1.639  -2.903   4.111  1.00  0.00    -0.015 N 
ATOM      6  H51 UNL     1      -2.161  -3.757   4.308  1.00  0.00     0.283 HD
ATOM      7  H52 UNL     1      -1.810  -2.503   5.034  1.00  0.00     0.283 HD
HETATM    8  C4  UNL     1      -0.263  -3.065   3.726  1.00  0.00     0.350 C 
ENDROOT
BRANCH   8   9
HETATM    9  N6  UNL     1       0.615  -3.835   4.514  1.00  0.00    -0.287 N 
HETATM   10  C5  UNL     1       0.548  -3.838   5.925  1.00  0.00     0.384 C 
HETATM   11  O2  UNL     1      -0.284  -3.133   6.606  1.00  0.00    -0.236 OA
ATOM     12  H6  UNL     1       1.322  -4.408   4.051  1.00  0.00     0.168 HD
BRANCH  10  13
HETATM   13  O3  UNL     1       1.392  -4.599   6.718  1.00  0.00    -0.188 OA
BRANCH  13  14
HETATM   14  N7  UNL     1       1.986  -4.122   7.844  1.00  0.00    -0.301 N 
ATOM     15  H72 UNL     1       1.627  -3.248   8.229  1.00  0.00     0.184 HD
ATOM     16  H71 UNL     1       2.761  -4.593   8.310  1.00  0.00     0.184 HD
ENDBRANCH  13  14
ENDBRANCH  10  13
ENDBRANCH   8   9
BRANCH   8  17
HETATM   17  C6  UNL     1       0.241  -1.629   3.660  1.00  0.00     0.241 C 
HETATM   18  O4  UNL     1      -0.397  -0.615   3.871  1.00  0.00    -0.644 OA
HETATM   19  O5  UNL     1       1.626  -1.544   3.294  1.00  0.00    -0.644 OA
ENDBRANCH   8  17
BRANCH   1  20
HETATM   20  N3  UNL     1       0.234  -4.460   1.470  1.00  0.00    -0.269 N 
ATOM     21  H3  UNL     1       1.091  -4.934   1.755  1.00  0.00     0.190 HD
BRANCH  20  22
HETATM   22  N2  UNL     1      -0.338  -4.676   0.183  1.00  0.00    -0.220 N 
ATOM     23  H2  UNL     1      -1.299  -4.996   0.063  1.00  0.00     0.210 HD
BRANCH  22  24
HETATM   24  N1  UNL     1       0.484  -4.427  -0.880  1.00  0.00    -0.192 N 
HETATM   25  C1  UNL     1      -0.105  -4.494  -2.227  1.00  0.00     0.209 C 
BRANCH  24  26
HETATM   26  O1  UNL     1       1.696  -4.151  -0.701  1.00  0.00    -0.272 OA
ATOM     27  H1  UNL     1       1.994  -3.689   0.072  1.00  0.00     0.246 HD
ENDBRANCH  24  26
ENDBRANCH  22  24
ENDBRANCH  20  22
ENDBRANCH   1  20
TORSDOF 8
ENDMDL
MODEL 5
REMARK VINA RESULT: -4.997017163      3.017      5.907
REMARK  8 active torsions:
REMARK  status: ('A' for Active; 'I' for Inactive)
REMARK    1  A    between atoms: N1_2  and  O1_3 
REMARK    2  A    between atoms: N1_2  and  N2_5 
REMARK    3  A    between atoms: N2_5  and  N3_7 
REMARK    4  A    between atoms: N3_7  and  C2_9 
REMARK    5  A    between atoms: C4_16  and  N6_17 
REMARK    6  A    between atoms: C4_16  and  C6_25 
REMARK       I    between atoms: N6_17  and  C5_19 
REMARK    7  A    between atoms: C5_19  and  O3_21 
REMARK    8  A    between atoms: O3_21  and  N7_22 
ROOT
HETATM    1  C2  UNL     1      -0.203  -3.870   5.342  1.00  0.00     0.164 C 
HETATM    2  N4  UNL     1       0.160  -5.138   5.099  1.00  0.00    -0.351 N 
ATOM      3  H4  UNL     1       0.605  -5.753   5.780  1.00  0.00     0.162 HD
HETATM    4  C3  UNL     1      -0.160  -5.508   3.759  1.00  0.00     0.360 C 
HETATM    5  N5  UNL     1      -1.316  -4.560   3.552  1.00  0.00    -0.015 N 
ATOM      6  H51 UNL     1      -2.206  -4.828   3.975  1.00  0.00     0.283 HD
ATOM      7  H52 UNL     1      -1.701  -4.509   2.608  1.00  0.00     0.283 HD
HETATM    8  C4  UNL     1      -0.698  -3.366   4.059  1.00  0.00     0.350 C 
ENDROOT
BRANCH   8   9
HETATM    9  N6  UNL     1      -1.423  -2.160   4.136  1.00  0.00    -0.287 N 
HETATM   10  C5  UNL     1      -1.962  -1.537   2.989  1.00  0.00     0.384 C 
HETATM   11  O2  UNL     1      -1.821  -1.988   1.793  1.00  0.00    -0.236 OA
ATOM     12  H6  UNL     1      -1.563  -1.723   5.048  1.00  0.00     0.168 HD
BRANCH  10  13
HETATM   13  O3  UNL     1      -2.690  -0.359   3.043  1.00  0.00    -0.188 OA
BRANCH  13  14
HETATM   14  N7  UNL     1      -3.319   0.077   4.167  1.00  0.00    -0.301 N 
ATOM     15  H72 UNL     1      -3.945  -0.577   4.637  1.00  0.00     0.184 HD
ATOM     16  H71 UNL     1      -3.193   1.013   4.551  1.00  0.00     0.184 HD
ENDBRANCH  13  14
ENDBRANCH  10  13
ENDBRANCH   8   9
BRANCH   8  17
HETATM   17  C6  UNL     1       0.495  -3.182   3.131  1.00  0.00     0.241 C 
HETATM   18  O4  UNL     1       0.811  -3.886   2.191  1.00  0.00    -0.644 OA
HETATM   19  O5  UNL     1       1.291  -2.038   3.470  1.00  0.00    -0.644 OA
ENDBRANCH   8  17
BRANCH   1  20
HETATM   20  N3  UNL     1      -0.014  -3.340   6.670  1.00  0.00    -0.269 N 
ATOM     21  H3  UNL     1      -0.798  -3.230   7.313  1.00  0.00     0.190 HD
BRANCH  20  22
HETATM   22  N2  UNL     1       1.310  -2.977   7.050  1.00  0.00    -0.220 N 
ATOM     23  H2  UNL     1       1.942  -2.488   6.416  1.00  0.00     0.210 HD
BRANCH  22  24
HETATM   24  N1  UNL     1       1.679  -3.324   8.320  1.00  0.00    -0.192 N 
HETATM   25  C1  UNL     1       2.522  -4.520   8.481  1.00  0.00     0.209 C 
BRANCH  24  26
HETATM   26  O1  UNL     1       1.307  -2.640   9.304  1.00  0.00    -0.272 OA
ATOM     27  H1  UNL     1       1.438  -1.700   9.338  1.00  0.00     0.246 HD
ENDBRANCH  24  26
ENDBRANCH  22  24
ENDBRANCH  20  22
ENDBRANCH   1  20
TORSDOF 8
ENDMDL
