MODEL 1
REMARK VINA RESULT: -8.121123325      0.000      0.000
REMARK  4 active torsions:
REMARK  status: ('A' for Active; 'I' for Inactive)
REMARK    1  A    between atoms: C1_2  and  O2_4 
REMARK    2  A    between atoms: O2_4  and  N2_5 
REMARK       I    between atoms: N2_5  and  C2_6 
REMARK       I    between atoms: C2_6  and  N3_7 
REMARK       I    between atoms: C2_6  and  N4_11 
REMARK       I    between atoms: N4_11  and  C3_13 
REMARK    3  A    between atoms: C3_13  and  C4_15 
REMARK    4  A    between atoms: C4_15  and  C5_17 
ROOT
HETATM    1  N2  UNL     1      -0.189  -5.717  -1.614  1.00  0.00    -0.035 NA
HETATM    2  C2  UNL     1       0.209  -4.550  -0.832  1.00  0.00     0.407 C 
HETATM    3  N3  UNL     1       1.571  -4.172  -1.086  1.00  0.00    -0.042 N 
ATOM      4  H31 UNL     1       1.849  -3.357  -0.540  1.00  0.00     0.278 HD
ATOM      5  H32 UNL     1       1.735  -4.024  -2.081  1.00  0.00     0.278 HD
ATOM      6  H33 UNL     1       2.208  -4.955  -0.933  1.00  0.00     0.278 HD
HETATM    7  N4  UNL     1      -0.030  -4.804   0.562  1.00  0.00    -0.312 N 
ATOM      8  H4  UNL     1       0.487  -5.556   1.017  1.00  0.00     0.166 HD
HETATM    9  C3  UNL     1      -0.977  -4.032   1.355  1.00  0.00     0.295 C 
HETATM   10  O3  UNL     1      -1.553  -3.137   0.701  1.00  0.00    -0.264 OA
ENDROOT
BRANCH   9  11
HETATM   11  C4  UNL     1      -1.146  -4.358   2.730  1.00  0.00     0.256 C 
HETATM   12  O4  UNL     1      -1.472  -5.582   2.974  1.00  0.00    -0.281 OA
BRANCH  11  13
HETATM   13  C5  UNL     1      -0.991  -3.469   3.860  1.00  0.00     0.106 A 
HETATM   14  C6  UNL     1      -0.220  -3.783   5.007  1.00  0.00     0.128 A 
HETATM   15  N5  UNL     1      -0.290  -2.752   5.853  1.00  0.00    -0.308 N 
HETATM   16  N6  UNL     1      -1.039  -1.800   5.352  1.00  0.00    -0.266 N 
ATOM     17  H5  UNL     1       0.174  -2.712   6.760  1.00  0.00     0.186 HD
HETATM   18  C7  UNL     1      -1.479  -2.221   4.130  1.00  0.00     0.275 A 
ATOM     19  H6  UNL     1      -1.254  -0.906   5.796  1.00  0.00     0.190 HD
HETATM   20  O5  UNL     1      -2.231  -1.525   3.381  1.00  0.00    -0.266 OA
ENDBRANCH  11  13
ENDBRANCH   9  11
BRANCH   1  21
HETATM   21  O2  UNL     1      -0.079  -5.476  -2.955  1.00  0.00    -0.188 OA
BRANCH  21  22
HETATM   22  C1  UNL     1      -0.738  -4.461  -3.620  1.00  0.00     0.391 C 
HETATM   23  N1  UNL     1      -1.844  -4.713  -4.483  1.00  0.00    -0.031 NA
HETATM   24  O1  UNL     1      -0.348  -3.277  -3.456  1.00  0.00    -0.241 OA
ENDBRANCH  21  22
ENDBRANCH   1  21
TORSDOF 4
ENDMDL
MODEL 2
REMARK VINA RESULT: -7.988742657      0.780      1.365
REMARK  4 active torsions:
REMARK  status: ('A' for Active; 'I' for Inactive)
REMARK    1  A    between atoms: C1_2  and  O2_4 
REMARK    2  A    between atoms: O2_4  and  N2_5 
REMARK       I    between atoms: N2_5  and  C2_6 
REMARK       I    between atoms: C2_6  and  N3_7 
REMARK       I    between atoms: C2_6  and  N4_11 
REMARK       I    between atoms: N4_11  and  C3_13 
REMARK    3  A    between atoms: C3_13  and  C4_15 
REMARK    4  A    between atoms: C4_15  and  C5_17 
ROOT
HETATM    1  N2  UNL     1      -0.159  -5.592  -1.647  1.00  0.00    -0.035 NA
HETATM    2  C2  UNL     1       0.212  -4.441  -0.829  1.00  0.00     0.407 C 
HETATM    3  N3  UNL     1       1.589  -4.074  -1.012  1.00  0.00    -0.042 N 
ATOM      4  H31 UNL     1       1.849  -3.270  -0.440  1.00  0.00     0.278 HD
ATOM      5  H32 UNL     1       1.803  -3.913  -1.996  1.00  0.00     0.278 HD
ATOM      6  H33 UNL     1       2.210  -4.866  -0.840  1.00  0.00     0.278 HD
HETATM    7  N4  UNL     1      -0.095  -4.713   0.548  1.00  0.00    -0.312 N 
ATOM      8  H4  UNL     1       0.391  -5.478   1.016  1.00  0.00     0.166 HD
HETATM    9  C3  UNL     1      -1.072  -3.943   1.306  1.00  0.00     0.295 C 
HETATM   10  O3  UNL     1      -1.607  -3.031   0.638  1.00  0.00    -0.264 OA
ENDROOT
BRANCH   9  11
HETATM   11  C4  UNL     1      -1.310  -4.286   2.666  1.00  0.00     0.256 C 
HETATM   12  O4  UNL     1      -1.799  -5.464   2.863  1.00  0.00    -0.281 OA
BRANCH  11  13
HETATM   13  C5  UNL     1      -1.063  -3.463   3.829  1.00  0.00     0.106 A 
HETATM   14  C6  UNL     1      -1.399  -2.088   3.904  1.00  0.00     0.128 A 
HETATM   15  N5  UNL     1      -1.037  -1.634   5.106  1.00  0.00    -0.308 N 
HETATM   16  N6  UNL     1      -0.495  -2.595   5.814  1.00  0.00    -0.266 N 
ATOM     17  H5  UNL     1      -1.163  -0.674   5.428  1.00  0.00     0.186 HD
HETATM   18  C7  UNL     1      -0.502  -3.726   5.047  1.00  0.00     0.275 A 
ATOM     19  H6  UNL     1      -0.135  -2.514   6.765  1.00  0.00     0.190 HD
HETATM   20  O5  UNL     1      -0.044  -4.841   5.444  1.00  0.00    -0.266 OA
ENDBRANCH  11  13
ENDBRANCH   9  11
BRANCH   1  21
HETATM   21  O2  UNL     1       0.018  -5.332  -2.977  1.00  0.00    -0.188 OA
BRANCH  21  22
HETATM   22  C1  UNL     1      -0.623  -4.321  -3.665  1.00  0.00     0.391 C 
HETATM   23  N1  UNL     1      -1.801  -4.555  -4.433  1.00  0.00    -0.031 NA
HETATM   24  O1  UNL     1      -0.151  -3.157  -3.609  1.00  0.00    -0.241 OA
ENDBRANCH  21  22
ENDBRANCH   1  21
TORSDOF 4
ENDMDL
MODEL 3
REMARK VINA RESULT: -7.860932905      1.160      1.230
REMARK  4 active torsions:
REMARK  status: ('A' for Active; 'I' for Inactive)
REMARK    1  A    between atoms: C1_2  and  O2_4 
REMARK    2  A    between atoms: O2_4  and  N2_5 
REMARK       I    between atoms: N2_5  and  C2_6 
REMARK       I    between atoms: C2_6  and  N3_7 
REMARK       I    between atoms: C2_6  and  N4_11 
REMARK       I    between atoms: N4_11  and  C3_13 
REMARK    3  A    between atoms: C3_13  and  C4_15 
REMARK    4  A    between atoms: C4_15  and  C5_17 
ROOT
HETATM    1  N2  UNL     1      -0.379  -5.226  -2.275  1.00  0.00    -0.035 NA
HETATM    2  C2  UNL     1      -0.007  -4.060  -1.478  1.00  0.00     0.407 C 
HETATM    3  N3  UNL     1       1.135  -3.379  -2.022  1.00  0.00    -0.042 N 
ATOM      4  H31 UNL     1       1.394  -2.565  -1.464  1.00  0.00     0.278 HD
ATOM      5  H32 UNL     1       0.985  -3.127  -2.998  1.00  0.00     0.278 HD
ATOM      6  H33 UNL     1       1.924  -4.015  -2.139  1.00  0.00     0.278 HD
HETATM    7  N4  UNL     1       0.203  -4.460  -0.113  1.00  0.00    -0.312 N 
ATOM      8  H4  UNL     1       0.957  -5.115   0.093  1.00  0.00     0.166 HD
HETATM    9  C3  UNL     1      -0.615  -3.972   0.988  1.00  0.00     0.295 C 
HETATM   10  O3  UNL     1      -1.509  -3.177   0.624  1.00  0.00    -0.264 OA
ENDROOT
BRANCH   9  11
HETATM   11  C4  UNL     1      -0.332  -4.426   2.307  1.00  0.00     0.256 C 
HETATM   12  O4  UNL     1       0.047  -5.655   2.401  1.00  0.00    -0.281 OA
BRANCH  11  13
HETATM   13  C5  UNL     1      -0.423  -3.660   3.529  1.00  0.00     0.106 A 
HETATM   14  C6  UNL     1       0.455  -3.826   4.629  1.00  0.00     0.128 A 
HETATM   15  N5  UNL     1       0.094  -2.968   5.587  1.00  0.00    -0.308 N 
HETATM   16  N6  UNL     1      -0.942  -2.263   5.202  1.00  0.00    -0.266 N 
ATOM     17  H5  UNL     1       0.557  -2.876   6.490  1.00  0.00     0.186 HD
HETATM   18  C7  UNL     1      -1.275  -2.673   3.942  1.00  0.00     0.275 A 
ATOM     19  H6  UNL     1      -1.414  -1.539   5.744  1.00  0.00     0.190 HD
HETATM   20  O5  UNL     1      -2.242  -2.183   3.281  1.00  0.00    -0.266 OA
ENDBRANCH  11  13
ENDBRANCH   9  11
BRANCH   1  21
HETATM   21  O2  UNL     1      -0.693  -4.869  -3.557  1.00  0.00    -0.188 OA
BRANCH  21  22
HETATM   22  C1  UNL     1      -1.981  -4.769  -4.044  1.00  0.00     0.391 C 
HETATM   23  N1  UNL     1      -2.821  -3.658  -3.742  1.00  0.00    -0.031 NA
HETATM   24  O1  UNL     1      -2.423  -5.688  -4.778  1.00  0.00    -0.241 OA
ENDBRANCH  21  22
ENDBRANCH   1  21
TORSDOF 4
ENDMDL
MODEL 4
REMARK VINA RESULT: -7.635431223      1.209      1.659
REMARK  4 active torsions:
REMARK  status: ('A' for Active; 'I' for Inactive)
REMARK    1  A    between atoms: C1_2  and  O2_4 
REMARK    2  A    between atoms: O2_4  and  N2_5 
REMARK       I    between atoms: N2_5  and  C2_6 
REMARK       I    between atoms: C2_6  and  N3_7 
REMARK       I    between atoms: C2_6  and  N4_11 
REMARK       I    between atoms: N4_11  and  C3_13 
REMARK    3  A    between atoms: C3_13  and  C4_15 
REMARK    4  A    between atoms: C4_15  and  C5_17 
ROOT
HETATM    1  N2  UNL     1      -0.280  -5.268  -2.210  1.00  0.00    -0.035 NA
HETATM    2  C2  UNL     1       0.048  -4.080  -1.427  1.00  0.00     0.407 C 
HETATM    3  N3  UNL     1       1.173  -3.371  -1.971  1.00  0.00    -0.042 N 
ATOM      4  H31 UNL     1       1.402  -2.542  -1.424  1.00  0.00     0.278 HD
ATOM      5  H32 UNL     1       1.025  -3.138  -2.952  1.00  0.00     0.278 HD
ATOM      6  H33 UNL     1       1.983  -3.983  -2.072  1.00  0.00     0.278 HD
HETATM    7  N4  UNL     1       0.259  -4.453  -0.055  1.00  0.00    -0.312 N 
ATOM      8  H4  UNL     1       1.031  -5.080   0.168  1.00  0.00     0.166 HD
HETATM    9  C3  UNL     1      -0.584  -3.974   1.032  1.00  0.00     0.295 C 
HETATM   10  O3  UNL     1      -1.499  -3.213   0.649  1.00  0.00    -0.264 OA
ENDROOT
BRANCH   9  11
HETATM   11  C4  UNL     1      -0.298  -4.399   2.360  1.00  0.00     0.256 C 
HETATM   12  O4  UNL     1       0.142  -5.607   2.473  1.00  0.00    -0.281 OA
BRANCH  11  13
HETATM   13  C5  UNL     1      -0.448  -3.627   3.573  1.00  0.00     0.106 A 
HETATM   14  C6  UNL     1      -0.690  -2.230   3.590  1.00  0.00     0.128 A 
HETATM   15  N5  UNL     1      -0.776  -1.836   4.863  1.00  0.00    -0.308 N 
HETATM   16  N6  UNL     1      -0.610  -2.857   5.670  1.00  0.00    -0.266 N 
ATOM     17  H5  UNL     1      -0.945  -0.877   5.165  1.00  0.00     0.186 HD
HETATM   18  C7  UNL     1      -0.408  -3.965   4.897  1.00  0.00     0.275 A 
ATOM     19  H6  UNL     1      -0.629  -2.829   6.689  1.00  0.00     0.190 HD
HETATM   20  O5  UNL     1      -0.214  -5.124   5.376  1.00  0.00    -0.266 OA
ENDBRANCH  11  13
ENDBRANCH   9  11
BRANCH   1  21
HETATM   21  O2  UNL     1      -0.593  -4.940  -3.499  1.00  0.00    -0.188 OA
BRANCH  21  22
HETATM   22  C1  UNL     1      -1.866  -4.635  -3.937  1.00  0.00     0.391 C 
HETATM   23  N1  UNL     1      -2.549  -5.437  -4.898  1.00  0.00    -0.031 NA
HETATM   24  O1  UNL     1      -2.439  -3.617  -3.473  1.00  0.00    -0.241 OA
ENDBRANCH  21  22
ENDBRANCH   1  21
TORSDOF 4
ENDMDL
MODEL 5
REMARK VINA RESULT: -6.792949730      1.101      1.925
REMARK  4 active torsions:
REMARK  status: ('A' for Active; 'I' for Inactive)
REMARK    1  A    between atoms: C1_2  and  O2_4 
REMARK    2  A    between atoms: O2_4  and  N2_5 
REMARK       I    between atoms: N2_5  and  C2_6 
REMARK       I    between atoms: C2_6  and  N3_7 
REMARK       I    between atoms: C2_6  and  N4_11 
REMARK       I    between atoms: N4_11  and  C3_13 
REMARK    3  A    between atoms: C3_13  and  C4_15 
REMARK    4  A    between atoms: C4_15  and  C5_17 
ROOT
HETATM    1  N2  UNL     1      -0.285  -5.532  -0.957  1.00  0.00    -0.035 NA
HETATM    2  C2  UNL     1       0.081  -4.210  -0.456  1.00  0.00     0.407 C 
HETATM    3  N3  UNL     1       1.454  -3.891  -0.732  1.00  0.00    -0.042 N 
ATOM      4  H31 UNL     1       1.710  -2.968  -0.382  1.00  0.00     0.278 HD
ATOM      5  H32 UNL     1       1.663  -3.981  -1.727  1.00  0.00     0.278 HD
ATOM      6  H33 UNL     1       2.082  -4.611  -0.372  1.00  0.00     0.278 HD
HETATM    7  N4  UNL     1      -0.219  -4.129   0.948  1.00  0.00    -0.312 N 
ATOM      8  H4  UNL     1       0.275  -4.749   1.589  1.00  0.00     0.166 HD
HETATM    9  C3  UNL     1      -1.198  -3.200   1.494  1.00  0.00     0.295 C 
HETATM   10  O3  UNL     1      -1.743  -2.489   0.623  1.00  0.00    -0.264 OA
ENDROOT
BRANCH   9  11
HETATM   11  C4  UNL     1      -1.428  -3.194   2.899  1.00  0.00     0.256 C 
HETATM   12  O4  UNL     1      -2.502  -2.591   3.282  1.00  0.00    -0.281 OA
BRANCH  11  13
HETATM   13  C5  UNL     1      -0.593  -3.785   3.920  1.00  0.00     0.106 A 
HETATM   14  C6  UNL     1      -0.302  -3.158   5.158  1.00  0.00     0.128 A 
HETATM   15  N5  UNL     1       0.491  -3.969   5.862  1.00  0.00    -0.308 N 
HETATM   16  N6  UNL     1       0.738  -5.066   5.187  1.00  0.00    -0.266 N 
ATOM     17  H5  UNL     1       0.853  -3.765   6.793  1.00  0.00     0.186 HD
HETATM   18  C7  UNL     1       0.083  -4.971   3.992  1.00  0.00     0.275 A 
ATOM     19  H6  UNL     1       1.316  -5.847   5.497  1.00  0.00     0.190 HD
HETATM   20  O5  UNL     1       0.119  -5.876   3.102  1.00  0.00    -0.266 OA
ENDBRANCH  11  13
ENDBRANCH   9  11
BRANCH   1  21
HETATM   21  O2  UNL     1      -0.115  -5.612  -2.311  1.00  0.00    -0.188 OA
BRANCH  21  22
HETATM   22  C1  UNL     1      -0.557  -4.660  -3.208  1.00  0.00     0.391 C 
HETATM   23  N1  UNL     1      -1.608  -4.923  -4.136  1.00  0.00    -0.031 NA
HETATM   24  O1  UNL     1      -0.014  -3.527  -3.206  1.00  0.00    -0.241 OA
ENDBRANCH  21  22
ENDBRANCH   1  21
TORSDOF 4
ENDMDL
