MODEL 1
REMARK VINA RESULT: -7.398638174      0.000      0.000
REMARK  11 active torsions:
REMARK  status: ('A' for Active; 'I' for Inactive)
REMARK    1  A    between atoms: N1_1  and  C1_4 
REMARK    2  A    between atoms: C2_7  and  N3_8 
REMARK    3  A    between atoms: N4_11  and  C3_12 
REMARK    4  A    between atoms: C3_12  and  C4_13 
REMARK    5  A    between atoms: C4_13  and  C5_14 
REMARK    6  A    between atoms: C5_14  and  C6_15 
REMARK    7  A    between atoms: C6_15  and  N5_16 
REMARK       I    between atoms: N5_16  and  C7_18 
REMARK    8  A    between atoms: C7_18  and  C8_20 
REMARK    9  A    between atoms: C8_20  and  C9_21 
REMARK   10  A    between atoms: C9_21  and  C10_22 
REMARK   11  A    between atoms: C10_22  and  C11_23 
ROOT
HETATM    1  C4  UNL     1      13.372   5.166  15.034  1.00  0.00     0.022 C 
ENDROOT
BRANCH   1   2
HETATM    2  C3  UNL     1      14.323   4.713  16.105  1.00  0.00     0.153 C 
BRANCH   2   3
HETATM    3  N4  UNL     1      15.647   4.431  15.602  1.00  0.00    -0.132 N 
HETATM    4  C2  UNL     1      16.486   5.451  15.380  1.00  0.00     0.696 A 
HETATM    5  N2  UNL     1      17.736   5.171  14.930  1.00  0.00    -0.022 N 
HETATM    6  C1  UNL     1      18.144   3.917  14.704  1.00  0.00     0.694 A 
ATOM      7  H2  UNL     1      18.383   5.940  14.759  1.00  0.00     0.203 HD
HETATM    8  N10 UNL     1      17.274   2.923  14.939  1.00  0.00    -0.140 N 
HETATM    9  C12 UNL     1      16.019   3.151  15.387  1.00  0.00     0.355 A 
ATOM     10  H10 UNL     1      17.569   1.961  14.773  1.00  0.00     0.189 HD
HETATM   11  O2  UNL     1      15.246   2.181  15.593  1.00  0.00    -0.245 OA
BRANCH   4  12
HETATM   12  N3  UNL     1      16.211   6.690  15.556  1.00  0.00    -0.234 N 
ATOM     13  H32 UNL     1      16.893   7.449  15.582  1.00  0.00     0.174 HD
ATOM     14  H31 UNL     1      15.225   6.921  15.680  1.00  0.00     0.174 HD
ENDBRANCH   4  12
BRANCH   6  15
HETATM   15  N1  UNL     1      19.354   3.674  14.270  1.00  0.00    -0.234 N 
ATOM     16  H12 UNL     1      19.555   3.594  13.273  1.00  0.00     0.174 HD
ATOM     17  H11 UNL     1      20.130   3.558  14.922  1.00  0.00     0.174 HD
ENDBRANCH   6  15
ENDBRANCH   2   3
ENDBRANCH   1   2
BRANCH   1  18
HETATM   18  C5  UNL     1      12.708   4.091  14.250  1.00  0.00     0.021 C 
BRANCH  18  19
HETATM   19  C6  UNL     1      11.739   3.279  15.084  1.00  0.00     0.122 C 
BRANCH  19  20
HETATM   20  N5  UNL     1      12.148   1.936  15.347  1.00  0.00    -0.361 N 
HETATM   21  C7  UNL     1      12.182   1.376  16.650  1.00  0.00     0.217 C 
HETATM   22  O1  UNL     1      11.833   2.114  17.599  1.00  0.00    -0.274 OA
ATOM     23  H5  UNL     1      12.430   1.352  14.560  1.00  0.00     0.162 HD
BRANCH  21  24
HETATM   24  C8  UNL     1      12.610  -0.015  16.853  1.00  0.00     0.103 C 
BRANCH  24  25
HETATM   25  C9  UNL     1      13.732  -0.142  17.819  1.00  0.00     0.017 C 
BRANCH  25  26
HETATM   26  C10 UNL     1      14.612  -1.339  17.601  1.00  0.00     0.079 C 
BRANCH  26  27
HETATM   27  C11 UNL     1      16.005  -0.799  17.484  1.00  0.00     0.106 A 
HETATM   28  N6  UNL     1      17.080  -1.567  17.261  1.00  0.00    -0.274 N 
HETATM   29  N7  UNL     1      18.115  -0.738  17.221  1.00  0.00    -0.007 NA
ATOM     30  H6  UNL     1      17.099  -2.581  17.146  1.00  0.00     0.185 HD
HETATM   31  N8  UNL     1      17.746   0.517  17.408  1.00  0.00    -0.007 NA
HETATM   32  N9  UNL     1      16.413   0.457  17.571  1.00  0.00    -0.274 N 
ATOM     33  H9  UNL     1      15.807   1.260  17.738  1.00  0.00     0.185 HD
ENDBRANCH  26  27
ENDBRANCH  25  26
ENDBRANCH  24  25
ENDBRANCH  21  24
ENDBRANCH  19  20
ENDBRANCH  18  19
ENDBRANCH   1  18
TORSDOF 11
ENDMDL
MODEL 2
REMARK VINA RESULT: -7.079325522      1.167      1.921
REMARK  11 active torsions:
REMARK  status: ('A' for Active; 'I' for Inactive)
REMARK    1  A    between atoms: N1_1  and  C1_4 
REMARK    2  A    between atoms: C2_7  and  N3_8 
REMARK    3  A    between atoms: N4_11  and  C3_12 
REMARK    4  A    between atoms: C3_12  and  C4_13 
REMARK    5  A    between atoms: C4_13  and  C5_14 
REMARK    6  A    between atoms: C5_14  and  C6_15 
REMARK    7  A    between atoms: C6_15  and  N5_16 
REMARK       I    between atoms: N5_16  and  C7_18 
REMARK    8  A    between atoms: C7_18  and  C8_20 
REMARK    9  A    between atoms: C8_20  and  C9_21 
REMARK   10  A    between atoms: C9_21  and  C10_22 
REMARK   11  A    between atoms: C10_22  and  C11_23 
ROOT
HETATM    1  C4  UNL     1      14.092   3.838  14.954  1.00  0.00     0.022 C 
ENDROOT
BRANCH   1   2
HETATM    2  C3  UNL     1      15.153   3.626  15.997  1.00  0.00     0.153 C 
BRANCH   2   3
HETATM    3  N4  UNL     1      16.455   4.090  15.579  1.00  0.00    -0.132 N 
HETATM    4  C2  UNL     1      17.273   3.239  14.946  1.00  0.00     0.696 A 
HETATM    5  N2  UNL     1      18.485   3.694  14.537  1.00  0.00    -0.022 N 
HETATM    6  C1  UNL     1      18.878   4.955  14.749  1.00  0.00     0.694 A 
ATOM      7  H2  UNL     1      19.114   3.055  14.052  1.00  0.00     0.203 HD
HETATM    8  N10 UNL     1      18.030   5.776  15.386  1.00  0.00    -0.140 N 
HETATM    9  C12 UNL     1      16.813   5.371  15.813  1.00  0.00     0.355 A 
ATOM     10  H10 UNL     1      18.313   6.742  15.555  1.00  0.00     0.189 HD
HETATM   11  O2  UNL     1      16.057   6.184  16.403  1.00  0.00    -0.245 OA
BRANCH   4  12
HETATM   12  N3  UNL     1      17.011   2.011  14.688  1.00  0.00    -0.234 N 
ATOM     13  H32 UNL     1      16.433   1.681  13.914  1.00  0.00     0.174 HD
ATOM     14  H31 UNL     1      17.419   1.320  15.317  1.00  0.00     0.174 HD
ENDBRANCH   4  12
BRANCH   6  15
HETATM   15  N1  UNL     1      20.051   5.368  14.344  1.00  0.00    -0.234 N 
ATOM     16  H12 UNL     1      20.354   6.332  14.486  1.00  0.00     0.174 HD
ATOM     17  H11 UNL     1      20.696   4.732  13.873  1.00  0.00     0.174 HD
ENDBRANCH   6  15
ENDBRANCH   2   3
ENDBRANCH   1   2
BRANCH   1  18
HETATM   18  C5  UNL     1      12.704   4.014  15.457  1.00  0.00     0.021 C 
BRANCH  18  19
HETATM   19  C6  UNL     1      11.770   2.924  14.974  1.00  0.00     0.122 C 
BRANCH  19  20
HETATM   20  N5  UNL     1      12.098   1.607  15.421  1.00  0.00    -0.361 N 
HETATM   21  C7  UNL     1      12.119   1.235  16.790  1.00  0.00     0.217 C 
HETATM   22  O1  UNL     1      11.836   2.120  17.627  1.00  0.00    -0.274 OA
ATOM     23  H5  UNL     1      12.327   0.901  14.722  1.00  0.00     0.162 HD
BRANCH  21  24
HETATM   24  C8  UNL     1      12.461  -0.138  17.184  1.00  0.00     0.103 C 
BRANCH  24  25
HETATM   25  C9  UNL     1      13.783  -0.238  17.856  1.00  0.00     0.017 C 
BRANCH  25  26
HETATM   26  C10 UNL     1      14.647  -1.367  17.374  1.00  0.00     0.079 C 
BRANCH  26  27
HETATM   27  C11 UNL     1      16.048  -0.835  17.384  1.00  0.00     0.106 A 
HETATM   28  N6  UNL     1      16.346   0.459  17.561  1.00  0.00    -0.274 N 
HETATM   29  N7  UNL     1      17.670   0.535  17.508  1.00  0.00    -0.007 NA
ATOM     30  H6  UNL     1      15.691   1.228  17.707  1.00  0.00     0.185 HD
HETATM   31  N8  UNL     1      18.222  -0.648  17.306  1.00  0.00    -0.007 NA
HETATM   32  N9  UNL     1      17.183  -1.497  17.231  1.00  0.00    -0.274 N 
ATOM     33  H9  UNL     1      17.259  -2.503  17.078  1.00  0.00     0.185 HD
ENDBRANCH  26  27
ENDBRANCH  25  26
ENDBRANCH  24  25
ENDBRANCH  21  24
ENDBRANCH  19  20
ENDBRANCH  18  19
ENDBRANCH   1  18
TORSDOF 11
ENDMDL
MODEL 3
REMARK VINA RESULT: -6.937077089      3.476      4.889
REMARK  11 active torsions:
REMARK  status: ('A' for Active; 'I' for Inactive)
REMARK    1  A    between atoms: N1_1  and  C1_4 
REMARK    2  A    between atoms: C2_7  and  N3_8 
REMARK    3  A    between atoms: N4_11  and  C3_12 
REMARK    4  A    between atoms: C3_12  and  C4_13 
REMARK    5  A    between atoms: C4_13  and  C5_14 
REMARK    6  A    between atoms: C5_14  and  C6_15 
REMARK    7  A    between atoms: C6_15  and  N5_16 
REMARK       I    between atoms: N5_16  and  C7_18 
REMARK    8  A    between atoms: C7_18  and  C8_20 
REMARK    9  A    between atoms: C8_20  and  C9_21 
REMARK   10  A    between atoms: C9_21  and  C10_22 
REMARK   11  A    between atoms: C10_22  and  C11_23 
ROOT
HETATM    1  C4  UNL     1      11.856   3.963  13.117  1.00  0.00     0.022 C 
ENDROOT
BRANCH   1   2
HETATM    2  C3  UNL     1      12.476   5.279  13.494  1.00  0.00     0.153 C 
BRANCH   2   3
HETATM    3  N4  UNL     1      11.497   6.307  13.761  1.00  0.00    -0.132 N 
HETATM    4  C2  UNL     1      11.267   6.667  15.030  1.00  0.00     0.696 A 
HETATM    5  N2  UNL     1      10.363   7.652  15.267  1.00  0.00    -0.022 N 
HETATM    6  C1  UNL     1       9.703   8.262  14.276  1.00  0.00     0.694 A 
ATOM      7  H2  UNL     1      10.181   7.934  16.229  1.00  0.00     0.203 HD
HETATM    8  N10 UNL     1       9.962   7.873  13.018  1.00  0.00    -0.140 N 
HETATM    9  C12 UNL     1      10.853   6.898  12.732  1.00  0.00     0.355 A 
ATOM     10  H10 UNL     1       9.469   8.329  12.251  1.00  0.00     0.189 HD
HETATM   11  O2  UNL     1      11.059   6.574  11.534  1.00  0.00    -0.245 OA
BRANCH   4  12
HETATM   12  N3  UNL     1      11.832   6.156  16.061  1.00  0.00    -0.234 N 
ATOM     13  H32 UNL     1      12.359   6.676  16.764  1.00  0.00     0.174 HD
ATOM     14  H31 UNL     1      11.741   5.147  16.172  1.00  0.00     0.174 HD
ENDBRANCH   4  12
BRANCH   6  15
HETATM   15  N1  UNL     1       8.836   9.208  14.531  1.00  0.00    -0.234 N 
ATOM     16  H12 UNL     1       9.102  10.192  14.510  1.00  0.00     0.174 HD
ATOM     17  H11 UNL     1       7.867   8.982  14.760  1.00  0.00     0.174 HD
ENDBRANCH   6  15
ENDBRANCH   2   3
ENDBRANCH   1   2
BRANCH   1  18
HETATM   18  C5  UNL     1      11.586   3.021  14.235  1.00  0.00     0.021 C 
BRANCH  18  19
HETATM   19  C6  UNL     1      12.824   2.726  15.056  1.00  0.00     0.122 C 
BRANCH  19  20
HETATM   20  N5  UNL     1      12.856   1.430  15.656  1.00  0.00    -0.361 N 
HETATM   21  C7  UNL     1      12.342   1.161  16.951  1.00  0.00     0.217 C 
HETATM   22  O1  UNL     1      11.845   2.122  17.580  1.00  0.00    -0.274 OA
ATOM     23  H5  UNL     1      13.268   0.662  15.128  1.00  0.00     0.162 HD
BRANCH  21  24
HETATM   24  C8  UNL     1      12.403  -0.196  17.510  1.00  0.00     0.103 C 
BRANCH  24  25
HETATM   25  C9  UNL     1      13.726  -0.521  18.104  1.00  0.00     0.017 C 
BRANCH  25  26
HETATM   26  C10 UNL     1      14.634  -1.316  17.211  1.00  0.00     0.079 C 
BRANCH  26  27
HETATM   27  C11 UNL     1      15.927  -0.559  17.175  1.00  0.00     0.106 A 
HETATM   28  N6  UNL     1      17.100  -1.079  17.564  1.00  0.00    -0.274 N 
HETATM   29  N7  UNL     1      17.997  -0.119  17.386  1.00  0.00    -0.007 NA
ATOM     30  H6  UNL     1      17.267  -2.020  17.923  1.00  0.00     0.185 HD
HETATM   31  N8  UNL     1      17.450   0.982  16.904  1.00  0.00    -0.007 NA
HETATM   32  N9  UNL     1      16.145   0.684  16.777  1.00  0.00    -0.274 N 
ATOM     33  H9  UNL     1      15.430   1.321  16.427  1.00  0.00     0.185 HD
ENDBRANCH  26  27
ENDBRANCH  25  26
ENDBRANCH  24  25
ENDBRANCH  21  24
ENDBRANCH  19  20
ENDBRANCH  18  19
ENDBRANCH   1  18
TORSDOF 11
ENDMDL
MODEL 4
REMARK VINA RESULT: -6.877811501      3.156      4.998
REMARK  11 active torsions:
REMARK  status: ('A' for Active; 'I' for Inactive)
REMARK    1  A    between atoms: N1_1  and  C1_4 
REMARK    2  A    between atoms: C2_7  and  N3_8 
REMARK    3  A    between atoms: N4_11  and  C3_12 
REMARK    4  A    between atoms: C3_12  and  C4_13 
REMARK    5  A    between atoms: C4_13  and  C5_14 
REMARK    6  A    between atoms: C5_14  and  C6_15 
REMARK    7  A    between atoms: C6_15  and  N5_16 
REMARK       I    between atoms: N5_16  and  C7_18 
REMARK    8  A    between atoms: C7_18  and  C8_20 
REMARK    9  A    between atoms: C8_20  and  C9_21 
REMARK   10  A    between atoms: C9_21  and  C10_22 
REMARK   11  A    between atoms: C10_22  and  C11_23 
ROOT
HETATM    1  C4  UNL     1      13.758   5.391  14.693  1.00  0.00     0.022 C 
ENDROOT
BRANCH   1   2
HETATM    2  C3  UNL     1      12.618   4.806  13.908  1.00  0.00     0.153 C 
BRANCH   2   3
HETATM    3  N4  UNL     1      11.413   5.596  13.991  1.00  0.00    -0.132 N 
HETATM    4  C2  UNL     1      10.638   5.485  15.078  1.00  0.00     0.696 A 
HETATM    5  N2  UNL     1       9.521   6.251  15.155  1.00  0.00    -0.022 N 
HETATM    6  C1  UNL     1       9.176   7.104  14.183  1.00  0.00     0.694 A 
ATOM      7  H2  UNL     1       8.925   6.175  15.979  1.00  0.00     0.203 HD
HETATM    8  N10 UNL     1       9.978   7.186  13.110  1.00  0.00    -0.140 N 
HETATM    9  C12 UNL     1      11.101   6.445  12.988  1.00  0.00     0.355 A 
ATOM     10  H10 UNL     1       9.731   7.832  12.360  1.00  0.00     0.189 HD
HETATM   11  O2  UNL     1      11.818   6.565  11.961  1.00  0.00    -0.245 OA
BRANCH   4  12
HETATM   12  N3  UNL     1      10.861   4.705  16.071  1.00  0.00    -0.234 N 
ATOM     13  H32 UNL     1      10.210   4.006  16.430  1.00  0.00     0.174 HD
ATOM     14  H31 UNL     1      11.767   4.804  16.529  1.00  0.00     0.174 HD
ENDBRANCH   4  12
BRANCH   6  15
HETATM   15  N1  UNL     1       8.093   7.830  14.281  1.00  0.00    -0.234 N 
ATOM     16  H12 UNL     1       8.133   8.805  14.580  1.00  0.00     0.174 HD
ATOM     17  H11 UNL     1       7.178   7.437  14.062  1.00  0.00     0.174 HD
ENDBRANCH   6  15
ENDBRANCH   2   3
ENDBRANCH   1   2
BRANCH   1  18
HETATM   18  C5  UNL     1      14.307   4.543  15.784  1.00  0.00     0.021 C 
BRANCH  18  19
HETATM   19  C6  UNL     1      14.511   3.106  15.354  1.00  0.00     0.122 C 
BRANCH  19  20
HETATM   20  N5  UNL     1      14.054   2.125  16.288  1.00  0.00    -0.361 N 
HETATM   21  C7  UNL     1      12.797   1.477  16.180  1.00  0.00     0.217 C 
HETATM   22  O1  UNL     1      12.070   1.797  15.214  1.00  0.00    -0.274 OA
ATOM     23  H5  UNL     1      14.662   1.880  17.069  1.00  0.00     0.162 HD
BRANCH  21  24
HETATM   24  C8  UNL     1      12.387   0.475  17.173  1.00  0.00     0.103 C 
BRANCH  24  25
HETATM   25  C9  UNL     1      13.536  -0.132  17.894  1.00  0.00     0.017 C 
BRANCH  25  26
HETATM   26  C10 UNL     1      14.263  -1.199  17.127  1.00  0.00     0.079 C 
BRANCH  26  27
HETATM   27  C11 UNL     1      15.718  -0.982  17.416  1.00  0.00     0.106 A 
HETATM   28  N6  UNL     1      16.255   0.225  17.640  1.00  0.00    -0.274 N 
HETATM   29  N7  UNL     1      17.547   0.011  17.855  1.00  0.00    -0.007 NA
ATOM     30  H6  UNL     1      15.771   1.124  17.645  1.00  0.00     0.185 HD
HETATM   31  N8  UNL     1      17.851  -1.272  17.777  1.00  0.00    -0.007 NA
HETATM   32  N9  UNL     1      16.685  -1.880  17.500  1.00  0.00    -0.274 N 
ATOM     33  H9  UNL     1      16.565  -2.885  17.374  1.00  0.00     0.185 HD
ENDBRANCH  26  27
ENDBRANCH  25  26
ENDBRANCH  24  25
ENDBRANCH  21  24
ENDBRANCH  19  20
ENDBRANCH  18  19
ENDBRANCH   1  18
TORSDOF 11
ENDMDL
MODEL 5
REMARK VINA RESULT: -6.834225315      2.929      4.774
REMARK  11 active torsions:
REMARK  status: ('A' for Active; 'I' for Inactive)
REMARK    1  A    between atoms: N1_1  and  C1_4 
REMARK    2  A    between atoms: C2_7  and  N3_8 
REMARK    3  A    between atoms: N4_11  and  C3_12 
REMARK    4  A    between atoms: C3_12  and  C4_13 
REMARK    5  A    between atoms: C4_13  and  C5_14 
REMARK    6  A    between atoms: C5_14  and  C6_15 
REMARK    7  A    between atoms: C6_15  and  N5_16 
REMARK       I    between atoms: N5_16  and  C7_18 
REMARK    8  A    between atoms: C7_18  and  C8_20 
REMARK    9  A    between atoms: C8_20  and  C9_21 
REMARK   10  A    between atoms: C9_21  and  C10_22 
REMARK   11  A    between atoms: C10_22  and  C11_23 
ROOT
HETATM    1  C4  UNL     1      13.420   4.600  16.183  1.00  0.00     0.022 C 
ENDROOT
BRANCH   1   2
HETATM    2  C3  UNL     1      13.112   6.020  15.799  1.00  0.00     0.153 C 
BRANCH   2   3
HETATM    3  N4  UNL     1      11.697   6.274  15.669  1.00  0.00    -0.132 N 
HETATM    4  C2  UNL     1      11.169   6.392  14.444  1.00  0.00     0.696 A 
HETATM    5  N2  UNL     1       9.834   6.607  14.334  1.00  0.00    -0.022 N 
HETATM    6  C1  UNL     1       9.040   6.703  15.407  1.00  0.00     0.694 A 
ATOM      7  H2  UNL     1       9.422   6.697  13.406  1.00  0.00     0.203 HD
HETATM    8  N10 UNL     1       9.606   6.578  16.617  1.00  0.00    -0.140 N 
HETATM    9  C12 UNL     1      10.931   6.364  16.778  1.00  0.00     0.355 A 
ATOM     10  H10 UNL     1       9.016   6.648  17.446  1.00  0.00     0.189 HD
HETATM   11  O2  UNL     1      11.408   6.253  17.936  1.00  0.00    -0.245 OA
BRANCH   4  12
HETATM   12  N3  UNL     1      11.825   6.321  13.344  1.00  0.00    -0.234 N 
ATOM     13  H32 UNL     1      11.611   5.694  12.569  1.00  0.00     0.174 HD
ATOM     14  H31 UNL     1      12.623   6.949  13.253  1.00  0.00     0.174 HD
ENDBRANCH   4  12
BRANCH   6  15
HETATM   15  N1  UNL     1       7.756   6.911  15.274  1.00  0.00    -0.234 N 
ATOM     16  H12 UNL     1       7.390   7.531  14.551  1.00  0.00     0.174 HD
ATOM     17  H11 UNL     1       7.085   6.456  15.895  1.00  0.00     0.174 HD
ENDBRANCH   6  15
ENDBRANCH   2   3
ENDBRANCH   1   2
BRANCH   1  18
HETATM   18  C5  UNL     1      13.466   3.615  15.070  1.00  0.00     0.021 C 
BRANCH  18  19
HETATM   19  C6  UNL     1      12.248   2.715  15.043  1.00  0.00     0.122 C 
BRANCH  19  20
HETATM   20  N5  UNL     1      12.454   1.405  15.574  1.00  0.00    -0.361 N 
HETATM   21  C7  UNL     1      12.209   1.069  16.930  1.00  0.00     0.217 C 
HETATM   22  O1  UNL     1      11.796   1.981  17.679  1.00  0.00    -0.274 OA
ATOM     23  H5  UNL     1      12.793   0.675  14.946  1.00  0.00     0.162 HD
BRANCH  21  24
HETATM   24  C8  UNL     1      12.439  -0.300  17.413  1.00  0.00     0.103 C 
BRANCH  24  25
HETATM   25  C9  UNL     1      13.768  -0.475  18.053  1.00  0.00     0.017 C 
BRANCH  25  26
HETATM   26  C10 UNL     1      14.731  -1.323  17.273  1.00  0.00     0.079 C 
BRANCH  26  27
HETATM   27  C11 UNL     1      16.007  -0.539  17.219  1.00  0.00     0.106 A 
HETATM   28  N6  UNL     1      16.080   0.725  16.780  1.00  0.00    -0.274 N 
HETATM   29  N7  UNL     1      17.357   1.071  16.885  1.00  0.00    -0.007 NA
ATOM     30  H6  UNL     1      15.312   1.303  16.436  1.00  0.00     0.185 HD
HETATM   31  N8  UNL     1      18.093   0.086  17.369  1.00  0.00    -0.007 NA
HETATM   32  N9  UNL     1      17.224  -0.918  17.573  1.00  0.00    -0.274 N 
ATOM     33  H9  UNL     1      17.467  -1.836  17.945  1.00  0.00     0.185 HD
ENDBRANCH  26  27
ENDBRANCH  25  26
ENDBRANCH  24  25
ENDBRANCH  21  24
ENDBRANCH  19  20
ENDBRANCH  18  19
ENDBRANCH   1  18
TORSDOF 11
ENDMDL
