MODEL 1
REMARK VINA RESULT: -7.741119391      0.000      0.000
REMARK  11 active torsions:
REMARK  status: ('A' for Active; 'I' for Inactive)
REMARK       I    between atoms: C1_4  and  N3_6 
REMARK    1  A    between atoms: N3_6  and  C2_8 
REMARK    2  A    between atoms: C2_8  and  C3_9 
REMARK    3  A    between atoms: C3_9  and  C4_10 
REMARK    4  A    between atoms: C4_10  and  N5_14 
REMARK    5  A    between atoms: N5_14  and  C5_16 
REMARK    6  A    between atoms: C5_16  and  C6_17 
REMARK    7  A    between atoms: C7_19  and  C8_20 
REMARK    8  A    between atoms: C8_20  and  N6_21 
REMARK    9  A    between atoms: C10_23  and  C11_24 
REMARK   10  A    between atoms: C11_24  and  N7_25 
REMARK   11  A    between atoms: N7_25  and  N8_26 
ROOT
HETATM    1  C6  UNL     1      14.411   5.272  16.357  1.00  0.00     0.233 C 
HETATM    2  O1  UNL     1      13.399   4.384  16.748  1.00  0.00    -0.349 OA
HETATM    3  C7  UNL     1      13.816   3.165  16.296  1.00  0.00     0.243 C 
HETATM    4  N11 UNL     1      14.272   3.440  14.980  1.00  0.00    -0.331 N 
ATOM      5  H11 UNL     1      14.128   2.888  14.135  1.00  0.00     0.165 HD
HETATM    6  C12 UNL     1      14.991   4.693  15.124  1.00  0.00     0.250 C 
HETATM    7  O2  UNL     1      15.875   5.115  14.350  1.00  0.00    -0.271 OA
ENDROOT
BRANCH   1   8
HETATM    8  C5  UNL     1      13.745   6.583  15.910  1.00  0.00     0.162 C 
BRANCH   8   9
HETATM    9  N5  UNL     1      13.265   6.423  14.572  1.00  0.00    -0.377 N 
ATOM     10  H5  UNL     1      13.942   6.302  13.819  1.00  0.00     0.160 HD
BRANCH   9  11
HETATM   11  C4  UNL     1      11.866   6.426  14.246  1.00  0.00     0.072 C 
HETATM   12  N4  UNL     1      11.129   7.460  14.241  1.00  0.00    -0.389 N 
ATOM     13  H42 UNL     1      10.136   7.462  14.010  1.00  0.00     0.157 HD
ATOM     14  H41 UNL     1      11.498   8.381  14.476  1.00  0.00     0.157 HD
BRANCH  11  15
HETATM   15  C3  UNL     1      11.322   5.067  13.898  1.00  0.00     0.095 C 
BRANCH  15  16
HETATM   16  C2  UNL     1      11.826   4.642  12.552  1.00  0.00     0.130 C 
BRANCH  16  17
HETATM   17  N3  UNL     1      11.725   3.246  12.322  1.00  0.00    -0.364 N 
HETATM   18  C1  UNL     1      11.638   2.795  10.924  1.00  0.00     0.181 C 
HETATM   19  N1  UNL     1      10.539   2.454  10.482  1.00  0.00    -0.374 N 
HETATM   20  N2  UNL     1      12.894   2.816  10.228  1.00  0.00    -0.064 NA
ATOM     21  H12 UNL     1      10.479   2.141   9.512  1.00  0.00     0.158 HD
ATOM     22  H11 UNL     1       9.647   2.439  10.976  1.00  0.00     0.158 HD
ATOM     23  H3  UNL     1      11.712   2.581  13.096  1.00  0.00     0.162 HD
ENDBRANCH  16  17
ENDBRANCH  15  16
ENDBRANCH  11  15
ENDBRANCH   9  11
ENDBRANCH   8   9
ENDBRANCH   1   8
BRANCH   3  24
HETATM   24  C8  UNL     1      12.697   2.140  16.325  1.00  0.00     0.199 C 
BRANCH  24  25
HETATM   25  N6  UNL     1      13.190   0.973  17.021  1.00  0.00    -0.281 N 
HETATM   26  C9  UNL     1      14.396   0.443  16.782  1.00  0.00     0.135 A 
HETATM   27  C10 UNL     1      14.555  -0.665  17.659  1.00  0.00     0.057 A 
HETATM   28  N9  UNL     1      13.463  -0.736  18.358  1.00  0.00    -0.285 N 
HETATM   29  N10 UNL     1      12.625   0.255  17.985  1.00  0.00    -0.020 NA
ATOM     30  H9  UNL     1      13.268  -1.432  19.077  1.00  0.00     0.184 HD
BRANCH  27  31
HETATM   31  C11 UNL     1      15.835  -1.449  17.607  1.00  0.00     0.194 C 
BRANCH  31  32
HETATM   32  N7  UNL     1      16.641  -0.889  16.550  1.00  0.00    -0.142 NA
BRANCH  32  33
HETATM   33  N8  UNL     1      17.885  -0.557  17.144  1.00  0.00    -0.348 N 
ATOM     34  H82 UNL     1      18.759  -0.372  16.652  1.00  0.00     0.172 HD
ATOM     35  H81 UNL     1      17.718  -0.542  18.150  1.00  0.00     0.172 HD
ENDBRANCH  32  33
ENDBRANCH  31  32
ENDBRANCH  27  31
ENDBRANCH  24  25
ENDBRANCH   3  24
TORSDOF 11
ENDMDL
MODEL 2
REMARK VINA RESULT: -7.321810938      2.558      5.758
REMARK  11 active torsions:
REMARK  status: ('A' for Active; 'I' for Inactive)
REMARK       I    between atoms: C1_4  and  N3_6 
REMARK    1  A    between atoms: N3_6  and  C2_8 
REMARK    2  A    between atoms: C2_8  and  C3_9 
REMARK    3  A    between atoms: C3_9  and  C4_10 
REMARK    4  A    between atoms: C4_10  and  N5_14 
REMARK    5  A    between atoms: N5_14  and  C5_16 
REMARK    6  A    between atoms: C5_16  and  C6_17 
REMARK    7  A    between atoms: C7_19  and  C8_20 
REMARK    8  A    between atoms: C8_20  and  N6_21 
REMARK    9  A    between atoms: C10_23  and  C11_24 
REMARK   10  A    between atoms: C11_24  and  N7_25 
REMARK   11  A    between atoms: N7_25  and  N8_26 
ROOT
HETATM    1  C6  UNL     1      16.130   0.263  17.623  1.00  0.00     0.233 C 
HETATM    2  O1  UNL     1      14.824   0.667  17.310  1.00  0.00    -0.349 OA
HETATM    3  C7  UNL     1      14.029  -0.340  17.777  1.00  0.00     0.243 C 
HETATM    4  N11 UNL     1      14.703  -1.515  17.351  1.00  0.00    -0.331 N 
ATOM      5  H11 UNL     1      14.300  -2.366  16.959  1.00  0.00     0.165 HD
HETATM    6  C12 UNL     1      16.101  -1.217  17.604  1.00  0.00     0.250 C 
HETATM    7  O2  UNL     1      17.006  -2.063  17.758  1.00  0.00    -0.271 OA
ENDROOT
BRANCH   1   8
HETATM    8  C5  UNL     1      17.043   0.661  16.453  1.00  0.00     0.162 C 
BRANCH   8   9
HETATM    9  N5  UNL     1      16.321   1.536  15.581  1.00  0.00    -0.377 N 
ATOM     10  H5  UNL     1      15.463   1.196  15.147  1.00  0.00     0.160 HD
BRANCH   9  11
HETATM   11  C4  UNL     1      16.757   2.873  15.291  1.00  0.00     0.072 C 
HETATM   12  N4  UNL     1      17.873   3.170  14.765  1.00  0.00    -0.389 N 
ATOM     13  H42 UNL     1      18.182   4.119  14.559  1.00  0.00     0.157 HD
ATOM     14  H41 UNL     1      18.551   2.453  14.509  1.00  0.00     0.157 HD
BRANCH  11  15
HETATM   15  C3  UNL     1      15.755   3.931  15.669  1.00  0.00     0.095 C 
BRANCH  15  16
HETATM   16  C2  UNL     1      16.112   5.232  15.014  1.00  0.00     0.130 C 
BRANCH  16  17
HETATM   17  N3  UNL     1      14.986   6.025  14.677  1.00  0.00    -0.364 N 
HETATM   18  C1  UNL     1      15.179   7.080  13.668  1.00  0.00     0.181 C 
HETATM   19  N1  UNL     1      15.277   8.249  14.049  1.00  0.00    -0.374 N 
HETATM   20  N2  UNL     1      15.235   6.591  12.319  1.00  0.00    -0.064 NA
ATOM     21  H12 UNL     1      15.411   8.979  13.350  1.00  0.00     0.158 HD
ATOM     22  H11 UNL     1      15.238   8.596  15.007  1.00  0.00     0.158 HD
ATOM     23  H3  UNL     1      14.078   5.872  15.116  1.00  0.00     0.162 HD
ENDBRANCH  16  17
ENDBRANCH  15  16
ENDBRANCH  11  15
ENDBRANCH   9  11
ENDBRANCH   8   9
ENDBRANCH   1   8
BRANCH   3  24
HETATM   24  C8  UNL     1      12.617  -0.244  17.230  1.00  0.00     0.199 C 
BRANCH  24  25
HETATM   25  N6  UNL     1      12.400   1.123  16.816  1.00  0.00    -0.281 N 
HETATM   26  C9  UNL     1      12.554   1.529  15.550  1.00  0.00     0.135 A 
HETATM   27  C10 UNL     1      12.233   2.913  15.505  1.00  0.00     0.057 A 
HETATM   28  N9  UNL     1      11.912   3.253  16.717  1.00  0.00    -0.285 N 
HETATM   29  N10 UNL     1      12.006   2.175  17.525  1.00  0.00    -0.020 NA
ATOM     30  H9  UNL     1      11.633   4.188  17.013  1.00  0.00     0.184 HD
BRANCH  27  31
HETATM   31  C11 UNL     1      12.314   3.632  14.189  1.00  0.00     0.194 C 
BRANCH  31  32
HETATM   32  N7  UNL     1      11.372   3.004  13.295  1.00  0.00    -0.142 NA
BRANCH  32  33
HETATM   33  N8  UNL     1      11.739   3.419  11.990  1.00  0.00    -0.348 N 
ATOM     34  H82 UNL     1      11.620   4.352  11.597  1.00  0.00     0.172 HD
ATOM     35  H81 UNL     1      12.139   2.597  11.538  1.00  0.00     0.172 HD
ENDBRANCH  32  33
ENDBRANCH  31  32
ENDBRANCH  27  31
ENDBRANCH  24  25
ENDBRANCH   3  24
TORSDOF 11
ENDMDL
MODEL 3
REMARK VINA RESULT: -7.242966918      3.136      6.278
REMARK  11 active torsions:
REMARK  status: ('A' for Active; 'I' for Inactive)
REMARK       I    between atoms: C1_4  and  N3_6 
REMARK    1  A    between atoms: N3_6  and  C2_8 
REMARK    2  A    between atoms: C2_8  and  C3_9 
REMARK    3  A    between atoms: C3_9  and  C4_10 
REMARK    4  A    between atoms: C4_10  and  N5_14 
REMARK    5  A    between atoms: N5_14  and  C5_16 
REMARK    6  A    between atoms: C5_16  and  C6_17 
REMARK    7  A    between atoms: C7_19  and  C8_20 
REMARK    8  A    between atoms: C8_20  and  N6_21 
REMARK    9  A    between atoms: C10_23  and  C11_24 
REMARK   10  A    between atoms: C11_24  and  N7_25 
REMARK   11  A    between atoms: N7_25  and  N8_26 
ROOT
HETATM    1  C6  UNL     1      15.870   0.076  17.985  1.00  0.00     0.233 C 
HETATM    2  O1  UNL     1      14.558   0.534  17.796  1.00  0.00    -0.349 OA
HETATM    3  C7  UNL     1      13.780  -0.579  17.939  1.00  0.00     0.243 C 
HETATM    4  N11 UNL     1      14.475  -1.564  17.189  1.00  0.00    -0.331 N 
ATOM      5  H11 UNL     1      14.088  -2.268  16.560  1.00  0.00     0.165 HD
HETATM    6  C12 UNL     1      15.868  -1.332  17.528  1.00  0.00     0.250 C 
HETATM    7  O2  UNL     1      16.787  -2.171  17.432  1.00  0.00    -0.271 OA
ENDROOT
BRANCH   1   8
HETATM    8  C5  UNL     1      16.779   0.818  16.992  1.00  0.00     0.162 C 
BRANCH   8   9
HETATM    9  N5  UNL     1      16.084   1.967  16.500  1.00  0.00    -0.377 N 
ATOM     10  H5  UNL     1      15.265   2.299  17.009  1.00  0.00     0.160 HD
BRANCH   9  11
HETATM   11  C4  UNL     1      16.494   2.672  15.317  1.00  0.00     0.072 C 
HETATM   12  N4  UNL     1      17.131   2.152  14.352  1.00  0.00    -0.389 N 
ATOM     13  H42 UNL     1      17.422   2.652  13.512  1.00  0.00     0.157 HD
ATOM     14  H41 UNL     1      17.401   1.168  14.358  1.00  0.00     0.157 HD
BRANCH  11  15
HETATM   15  C3  UNL     1      16.094   4.124  15.309  1.00  0.00     0.095 C 
BRANCH  15  16
HETATM   16  C2  UNL     1      17.245   4.974  15.756  1.00  0.00     0.130 C 
BRANCH  16  17
HETATM   17  N3  UNL     1      17.937   5.600  14.688  1.00  0.00    -0.364 N 
HETATM   18  C1  UNL     1      19.309   5.143  14.412  1.00  0.00     0.181 C 
HETATM   19  N1  UNL     1      20.251   5.844  14.788  1.00  0.00    -0.374 N 
HETATM   20  N2  UNL     1      19.375   3.888  13.716  1.00  0.00    -0.064 NA
ATOM     21  H12 UNL     1      21.201   5.527  14.597  1.00  0.00     0.158 HD
ATOM     22  H11 UNL     1      20.204   6.735  15.282  1.00  0.00     0.158 HD
ATOM     23  H3  UNL     1      17.502   6.337  14.133  1.00  0.00     0.162 HD
ENDBRANCH  16  17
ENDBRANCH  15  16
ENDBRANCH  11  15
ENDBRANCH   9  11
ENDBRANCH   8   9
ENDBRANCH   1   8
BRANCH   3  24
HETATM   24  C8  UNL     1      12.368  -0.349  17.434  1.00  0.00     0.199 C 
BRANCH  24  25
HETATM   25  N6  UNL     1      12.288   1.016  16.966  1.00  0.00    -0.281 N 
HETATM   26  C9  UNL     1      12.544   1.362  15.699  1.00  0.00     0.135 A 
HETATM   27  C10 UNL     1      12.341   2.766  15.593  1.00  0.00     0.057 A 
HETATM   28  N9  UNL     1      11.983   3.173  16.773  1.00  0.00    -0.285 N 
HETATM   29  N10 UNL     1      11.942   2.120  17.617  1.00  0.00    -0.020 NA
ATOM     30  H9  UNL     1      11.767   4.138  17.022  1.00  0.00     0.184 HD
BRANCH  27  31
HETATM   31  C11 UNL     1      12.556   3.429  14.261  1.00  0.00     0.194 C 
BRANCH  31  32
HETATM   32  N7  UNL     1      11.415   3.115  13.435  1.00  0.00    -0.142 NA
BRANCH  32  33
HETATM   33  N8  UNL     1      11.790   3.453  12.111  1.00  0.00    -0.348 N 
ATOM     34  H82 UNL     1      12.615   3.119  11.613  1.00  0.00     0.172 HD
ATOM     35  H81 UNL     1      11.070   4.090  11.770  1.00  0.00     0.172 HD
ENDBRANCH  32  33
ENDBRANCH  31  32
ENDBRANCH  27  31
ENDBRANCH  24  25
ENDBRANCH   3  24
TORSDOF 11
ENDMDL
MODEL 4
REMARK VINA RESULT: -7.178631311      1.933      3.313
REMARK  11 active torsions:
REMARK  status: ('A' for Active; 'I' for Inactive)
REMARK       I    between atoms: C1_4  and  N3_6 
REMARK    1  A    between atoms: N3_6  and  C2_8 
REMARK    2  A    between atoms: C2_8  and  C3_9 
REMARK    3  A    between atoms: C3_9  and  C4_10 
REMARK    4  A    between atoms: C4_10  and  N5_14 
REMARK    5  A    between atoms: N5_14  and  C5_16 
REMARK    6  A    between atoms: C5_16  and  C6_17 
REMARK    7  A    between atoms: C7_19  and  C8_20 
REMARK    8  A    between atoms: C8_20  and  N6_21 
REMARK    9  A    between atoms: C10_23  and  C11_24 
REMARK   10  A    between atoms: C11_24  and  N7_25 
REMARK   11  A    between atoms: N7_25  and  N8_26 
ROOT
HETATM    1  C6  UNL     1      14.456   5.380  15.292  1.00  0.00     0.233 C 
HETATM    2  O1  UNL     1      14.896   4.116  14.875  1.00  0.00    -0.349 OA
HETATM    3  C7  UNL     1      15.917   3.807  15.727  1.00  0.00     0.243 C 
HETATM    4  N11 UNL     1      16.666   5.011  15.793  1.00  0.00    -0.331 N 
ATOM      5  H11 UNL     1      17.680   5.125  15.787  1.00  0.00     0.165 HD
HETATM    6  C12 UNL     1      15.647   6.043  15.871  1.00  0.00     0.250 C 
HETATM    7  O2  UNL     1      15.812   7.192  16.330  1.00  0.00    -0.271 OA
ENDROOT
BRANCH   1   8
HETATM    8  C5  UNL     1      14.111   6.201  14.039  1.00  0.00     0.162 C 
BRANCH   8   9
HETATM    9  N5  UNL     1      12.754   6.644  14.137  1.00  0.00    -0.377 N 
ATOM     10  H5  UNL     1      12.568   7.571  14.520  1.00  0.00     0.160 HD
BRANCH   9  11
HETATM   11  C4  UNL     1      11.643   5.837  13.717  1.00  0.00     0.072 C 
HETATM   12  N4  UNL     1      11.587   5.203  12.619  1.00  0.00    -0.389 N 
ATOM     13  H42 UNL     1      10.798   4.630  12.321  1.00  0.00     0.157 HD
ATOM     14  H41 UNL     1      12.352   5.231  11.946  1.00  0.00     0.157 HD
BRANCH  11  15
HETATM   15  C3  UNL     1      10.514   5.796  14.712  1.00  0.00     0.095 C 
BRANCH  15  16
HETATM   16  C2  UNL     1      10.860   4.874  15.842  1.00  0.00     0.130 C 
BRANCH  16  17
HETATM   17  N3  UNL     1      10.719   3.500  15.518  1.00  0.00    -0.364 N 
HETATM   18  C1  UNL     1      11.895   2.636  15.708  1.00  0.00     0.181 C 
HETATM   19  N1  UNL     1      12.546   2.301  14.716  1.00  0.00    -0.374 N 
HETATM   20  N2  UNL     1      12.142   2.284  17.078  1.00  0.00    -0.064 NA
ATOM     21  H12 UNL     1      13.361   1.702  14.848  1.00  0.00     0.158 HD
ATOM     22  H11 UNL     1      12.371   2.551  13.743  1.00  0.00     0.158 HD
ATOM     23  H3  UNL     1       9.837   3.126  15.167  1.00  0.00     0.162 HD
ENDBRANCH  16  17
ENDBRANCH  15  16
ENDBRANCH  11  15
ENDBRANCH   9  11
ENDBRANCH   8   9
ENDBRANCH   1   8
BRANCH   3  24
HETATM   24  C8  UNL     1      16.738   2.635  15.222  1.00  0.00     0.199 C 
BRANCH  24  25
HETATM   25  N6  UNL     1      16.593   1.557  16.173  1.00  0.00    -0.281 N 
HETATM   26  C9  UNL     1      15.411   1.000  16.462  1.00  0.00     0.135 A 
HETATM   27  C10 UNL     1      15.649  -0.036  17.407  1.00  0.00     0.057 A 
HETATM   28  N9  UNL     1      16.929  -0.043  17.626  1.00  0.00    -0.285 N 
HETATM   29  N10 UNL     1      17.517   0.917  16.881  1.00  0.00    -0.020 NA
ATOM     30  H9  UNL     1      17.414  -0.675  18.263  1.00  0.00     0.184 HD
BRANCH  27  31
HETATM   31  C11 UNL     1      14.482  -0.841  17.906  1.00  0.00     0.194 C 
BRANCH  31  32
HETATM   32  N7  UNL     1      13.829  -1.413  16.754  1.00  0.00    -0.142 NA
BRANCH  32  33
HETATM   33  N8  UNL     1      12.509  -0.897  16.760  1.00  0.00    -0.348 N 
ATOM     34  H82 UNL     1      12.221   0.021  17.097  1.00  0.00     0.172 HD
ATOM     35  H81 UNL     1      11.920  -1.629  16.362  1.00  0.00     0.172 HD
ENDBRANCH  32  33
ENDBRANCH  31  32
ENDBRANCH  27  31
ENDBRANCH  24  25
ENDBRANCH   3  24
TORSDOF 11
ENDMDL
MODEL 5
REMARK VINA RESULT: -7.116958698      4.833      7.539
REMARK  11 active torsions:
REMARK  status: ('A' for Active; 'I' for Inactive)
REMARK       I    between atoms: C1_4  and  N3_6 
REMARK    1  A    between atoms: N3_6  and  C2_8 
REMARK    2  A    between atoms: C2_8  and  C3_9 
REMARK    3  A    between atoms: C3_9  and  C4_10 
REMARK    4  A    between atoms: C4_10  and  N5_14 
REMARK    5  A    between atoms: N5_14  and  C5_16 
REMARK    6  A    between atoms: C5_16  and  C6_17 
REMARK    7  A    between atoms: C7_19  and  C8_20 
REMARK    8  A    between atoms: C8_20  and  N6_21 
REMARK    9  A    between atoms: C10_23  and  C11_24 
REMARK   10  A    between atoms: C11_24  and  N7_25 
REMARK   11  A    between atoms: N7_25  and  N8_26 
ROOT
HETATM    1  C6  UNL     1       9.594   5.947  15.884  1.00  0.00     0.233 C 
HETATM    2  O1  UNL     1      10.390   6.504  16.896  1.00  0.00    -0.349 OA
HETATM    3  C7  UNL     1       9.565   7.380  17.541  1.00  0.00     0.243 C 
HETATM    4  N11 UNL     1       8.908   8.056  16.479  1.00  0.00    -0.331 N 
ATOM      5  H11 UNL     1       8.696   9.050  16.400  1.00  0.00     0.165 HD
HETATM    6  C12 UNL     1       8.609   6.996  15.533  1.00  0.00     0.250 C 
HETATM    7  O2  UNL     1       7.717   7.032  14.660  1.00  0.00    -0.271 OA
ENDROOT
BRANCH   1   8
HETATM    8  C5  UNL     1      10.468   5.782  14.630  1.00  0.00     0.162 C 
BRANCH   8   9
HETATM    9  N5  UNL     1      11.724   5.216  15.014  1.00  0.00    -0.377 N 
ATOM     10  H5  UNL     1      12.473   5.842  15.309  1.00  0.00     0.160 HD
BRANCH   9  11
HETATM   11  C4  UNL     1      11.973   3.802  14.999  1.00  0.00     0.072 C 
HETATM   12  N4  UNL     1      12.164   3.114  13.951  1.00  0.00    -0.389 N 
ATOM     13  H42 UNL     1      12.340   2.110  13.940  1.00  0.00     0.157 HD
ATOM     14  H41 UNL     1      12.150   3.538  13.023  1.00  0.00     0.157 HD
BRANCH  11  15
HETATM   15  C3  UNL     1      11.993   3.177  16.369  1.00  0.00     0.095 C 
BRANCH  15  16
HETATM   16  C2  UNL     1      12.877   1.966  16.366  1.00  0.00     0.130 C 
BRANCH  16  17
HETATM   17  N3  UNL     1      12.162   0.741  16.352  1.00  0.00    -0.364 N 
HETATM   18  C1  UNL     1      12.632  -0.327  17.248  1.00  0.00     0.181 C 
HETATM   19  N1  UNL     1      13.277  -1.260  16.765  1.00  0.00    -0.374 N 
HETATM   20  N2  UNL     1      12.267  -0.134  18.623  1.00  0.00    -0.064 NA
ATOM     21  H12 UNL     1      13.602  -2.001  17.387  1.00  0.00     0.158 HD
ATOM     22  H11 UNL     1      13.536  -1.398  15.788  1.00  0.00     0.158 HD
ATOM     23  H3  UNL     1      11.354   0.606  15.743  1.00  0.00     0.162 HD
ENDBRANCH  16  17
ENDBRANCH  15  16
ENDBRANCH  11  15
ENDBRANCH   9  11
ENDBRANCH   8   9
ENDBRANCH   1   8
BRANCH   3  24
HETATM   24  C8  UNL     1      10.339   8.323  18.444  1.00  0.00     0.199 C 
BRANCH  24  25
HETATM   25  N6  UNL     1      10.072   7.937  19.811  1.00  0.00    -0.281 N 
HETATM   26  C9  UNL     1      10.942   7.236  20.548  1.00  0.00     0.135 A 
HETATM   27  C10 UNL     1      10.365   7.065  21.837  1.00  0.00     0.057 A 
HETATM   28  N9  UNL     1       9.210   7.658  21.801  1.00  0.00    -0.285 N 
HETATM   29  N10 UNL     1       9.019   8.196  20.578  1.00  0.00    -0.020 NA
ATOM     30  H9  UNL     1       8.550   7.709  22.577  1.00  0.00     0.184 HD
BRANCH  27  31
HETATM   31  C11 UNL     1      11.139   6.310  22.880  1.00  0.00     0.194 C 
BRANCH  31  32
HETATM   32  N7  UNL     1      10.667   6.753  24.170  1.00  0.00    -0.142 NA
BRANCH  32  33
HETATM   33  N8  UNL     1       9.919   5.672  24.701  1.00  0.00    -0.348 N 
ATOM     34  H82 UNL     1       9.794   5.451  25.689  1.00  0.00     0.172 HD
ATOM     35  H81 UNL     1       9.540   5.172  23.896  1.00  0.00     0.172 HD
ENDBRANCH  32  33
ENDBRANCH  31  32
ENDBRANCH  27  31
ENDBRANCH  24  25
ENDBRANCH   3  24
TORSDOF 11
ENDMDL
