MODEL 1
REMARK VINA RESULT: -7.023232556      0.000      0.000
REMARK  14 active torsions:
REMARK  status: ('A' for Active; 'I' for Inactive)
REMARK    1  A    between atoms: C2_2  and  N1_3 
REMARK    2  A    between atoms: N1_3  and  C3_4 
REMARK    3  A    between atoms: N1_3  and  C5_8 
REMARK    4  A    between atoms: C3_4  and  C4_5 
REMARK    5  A    between atoms: C4_5  and  O1_6 
REMARK    6  A    between atoms: C5_8  and  C6_9 
REMARK    7  A    between atoms: C6_9  and  N2_10 
REMARK       I    between atoms: N2_10  and  C7_12 
REMARK    8  A    between atoms: C7_12  and  C8_14 
REMARK    9  A    between atoms: C8_14  and  N3_15 
REMARK   10  A    between atoms: N3_15  and  C9_17 
REMARK   11  A    between atoms: C10_20  and  N5_21 
REMARK   12  A    between atoms: C12_28  and  N8_29 
REMARK   13  A    between atoms: N8_29  and  N9_30 
REMARK   14  A    between atoms: N8_29  and  O3_33 
ROOT
HETATM    1  C9  UNL     1      15.197   1.421  16.091  1.00  0.00     0.146 A 
HETATM    2  N4  UNL     1      13.879   1.569  16.268  1.00  0.00    -0.175 N 
ATOM      3  H4  UNL     1      13.404   2.347  15.810  1.00  0.00     0.186 HD
HETATM    4  C10 UNL     1      13.157   0.718  17.034  1.00  0.00     0.678 A 
HETATM    5  N6  UNL     1      13.754  -0.319  17.648  1.00  0.00    -0.177 N 
ATOM      6  H6  UNL     1      13.196  -0.953  18.220  1.00  0.00     0.185 HD
HETATM    7  C11 UNL     1      15.094  -0.535  17.514  1.00  0.00     0.161 A 
HETATM    8  N7  UNL     1      15.713  -1.628  18.168  1.00  0.00    -0.080 NA
HETATM    9  C12 UNL     1      15.792   0.356  16.725  1.00  0.00     0.144 A 
ENDROOT
BRANCH   1  10
HETATM   10  N3  UNL     1      15.889   2.223  15.385  1.00  0.00    -0.365 N 
ATOM     11  H3  UNL     1      16.074   1.922  14.429  1.00  0.00     0.161 HD
BRANCH  10  12
HETATM   12  C8  UNL     1      16.440   3.481  15.750  1.00  0.00     0.224 C 
BRANCH  12  13
HETATM   13  C7  UNL     1      15.531   4.586  15.389  1.00  0.00     0.235 C 
HETATM   14  N2  UNL     1      14.538   5.033  16.295  1.00  0.00    -0.355 N 
ATOM     15  H2  UNL     1      14.452   4.580  17.205  1.00  0.00     0.162 HD
HETATM   16  O2  UNL     1      15.624   5.146  14.272  1.00  0.00    -0.272 OA
BRANCH  14  17
HETATM   17  C6  UNL     1      13.638   6.123  15.959  1.00  0.00     0.167 C 
BRANCH  17  18
HETATM   18  C5  UNL     1      12.235   5.845  16.391  1.00  0.00     0.082 C 
BRANCH  18  19
HETATM   19  N1  UNL     1      11.353   5.316  15.434  1.00  0.00    -0.371 N 
BRANCH  19  20
HETATM   20  C2  UNL     1      10.353   6.200  15.024  1.00  0.00     0.059 C 
HETATM   21  C1  UNL     1      10.572   6.939  13.752  1.00  0.00     0.055 C 
ENDBRANCH  19  20
BRANCH  19  22
HETATM   22  C3  UNL     1      11.160   3.939  15.313  1.00  0.00     0.153 C 
BRANCH  22  23
HETATM   23  C4  UNL     1      11.681   3.348  13.995  1.00  0.00     0.184 C 
BRANCH  23  24
HETATM   24  O1  UNL     1      13.044   3.284  14.030  1.00  0.00    -0.399 OA
ATOM     25  H1  UNL     1      13.406   3.871  13.377  1.00  0.00     0.209 HD
ENDBRANCH  23  24
ENDBRANCH  22  23
ENDBRANCH  19  22
ENDBRANCH  18  19
ENDBRANCH  17  18
ENDBRANCH  14  17
ENDBRANCH  12  13
ENDBRANCH  10  12
ENDBRANCH   1  10
BRANCH   9  26
HETATM   26  N8  UNL     1      17.198   0.136  16.578  1.00  0.00    -0.070 NA
BRANCH  26  27
HETATM   27  N9  UNL     1      17.859   0.312  17.805  1.00  0.00    -0.336 NA
ATOM     28  H92 UNL     1      18.502   1.093  17.672  1.00  0.00     0.173 HD
ATOM     29  H91 UNL     1      18.437  -0.500  18.023  1.00  0.00     0.173 HD
ENDBRANCH  26  27
BRANCH  26  30
HETATM   30  O3  UNL     1      17.345  -1.172  16.253  1.00  0.00    -0.289 OA
ATOM     31  H3  UNL     1      17.846  -1.190  15.446  1.00  0.00     0.239 HD
ENDBRANCH  26  30
ENDBRANCH   9  26
BRANCH   4  32
HETATM   32  N5  UNL     1      11.881   0.860  17.208  1.00  0.00    -0.234 N 
ATOM     33  H52 UNL     1      11.376   0.086  17.637  1.00  0.00     0.174 HD
ATOM     34  H51 UNL     1      11.387   1.709  16.931  1.00  0.00     0.174 HD
ENDBRANCH   4  32
TORSDOF 14
ENDMDL
MODEL 2
REMARK VINA RESULT: -6.938588755      4.355      6.250
REMARK  14 active torsions:
REMARK  status: ('A' for Active; 'I' for Inactive)
REMARK    1  A    between atoms: C2_2  and  N1_3 
REMARK    2  A    between atoms: N1_3  and  C3_4 
REMARK    3  A    between atoms: N1_3  and  C5_8 
REMARK    4  A    between atoms: C3_4  and  C4_5 
REMARK    5  A    between atoms: C4_5  and  O1_6 
REMARK    6  A    between atoms: C5_8  and  C6_9 
REMARK    7  A    between atoms: C6_9  and  N2_10 
REMARK       I    between atoms: N2_10  and  C7_12 
REMARK    8  A    between atoms: C7_12  and  C8_14 
REMARK    9  A    between atoms: C8_14  and  N3_15 
REMARK   10  A    between atoms: N3_15  and  C9_17 
REMARK   11  A    between atoms: C10_20  and  N5_21 
REMARK   12  A    between atoms: C12_28  and  N8_29 
REMARK   13  A    between atoms: N8_29  and  N9_30 
REMARK   14  A    between atoms: N8_29  and  O3_33 
ROOT
HETATM    1  C9  UNL     1      15.709   1.730  15.829  1.00  0.00     0.146 A 
HETATM    2  N4  UNL     1      14.432   2.122  15.753  1.00  0.00    -0.175 N 
ATOM      3  H4  UNL     1      14.202   2.955  15.211  1.00  0.00     0.186 HD
HETATM    4  C10 UNL     1      13.435   1.447  16.374  1.00  0.00     0.678 A 
HETATM    5  N6  UNL     1      13.705   0.344  17.094  1.00  0.00    -0.177 N 
ATOM      6  H6  UNL     1      12.944  -0.154  17.554  1.00  0.00     0.185 HD
HETATM    7  C11 UNL     1      14.983  -0.117  17.217  1.00  0.00     0.161 A 
HETATM    8  N7  UNL     1      15.256  -1.278  17.981  1.00  0.00    -0.080 NA
HETATM    9  C12 UNL     1      15.968   0.600  16.569  1.00  0.00     0.144 A 
ENDROOT
BRANCH   1  10
HETATM   10  N3  UNL     1      16.656   2.364  15.262  1.00  0.00    -0.365 N 
ATOM     11  H3  UNL     1      17.351   1.787  14.788  1.00  0.00     0.161 HD
BRANCH  10  12
HETATM   12  C8  UNL     1      16.876   3.766  15.201  1.00  0.00     0.224 C 
BRANCH  12  13
HETATM   13  C7  UNL     1      18.216   4.073  14.662  1.00  0.00     0.235 C 
HETATM   14  N2  UNL     1      18.853   5.302  14.962  1.00  0.00    -0.355 N 
ATOM     15  H2  UNL     1      18.374   5.981  15.554  1.00  0.00     0.162 HD
HETATM   16  O2  UNL     1      18.810   3.248  13.930  1.00  0.00    -0.272 OA
BRANCH  14  17
HETATM   17  C6  UNL     1      20.173   5.618  14.445  1.00  0.00     0.167 C 
BRANCH  17  18
HETATM   18  C5  UNL     1      20.119   6.642  13.358  1.00  0.00     0.082 C 
BRANCH  18  19
HETATM   19  N1  UNL     1      21.338   7.173  12.905  1.00  0.00    -0.371 N 
BRANCH  19  20
HETATM   20  C2  UNL     1      22.130   7.731  13.910  1.00  0.00     0.059 C 
HETATM   21  C1  UNL     1      23.563   7.333  13.953  1.00  0.00     0.055 C 
ENDBRANCH  19  20
BRANCH  19  22
HETATM   22  C3  UNL     1      21.499   7.584  11.581  1.00  0.00     0.153 C 
BRANCH  22  23
HETATM   23  C4  UNL     1      20.947   6.591  10.547  1.00  0.00     0.184 C 
BRANCH  23  24
HETATM   24  O1  UNL     1      21.695   6.655   9.407  1.00  0.00    -0.399 OA
ATOM     25  H1  UNL     1      21.133   6.852   8.668  1.00  0.00     0.209 HD
ENDBRANCH  23  24
ENDBRANCH  22  23
ENDBRANCH  19  22
ENDBRANCH  18  19
ENDBRANCH  17  18
ENDBRANCH  14  17
ENDBRANCH  12  13
ENDBRANCH  10  12
ENDBRANCH   1  10
BRANCH   9  26
HETATM   26  N8  UNL     1      17.311   0.122  16.690  1.00  0.00    -0.070 NA
BRANCH  26  27
HETATM   27  N9  UNL     1      17.745   0.194  18.025  1.00  0.00    -0.336 NA
ATOM     28  H92 UNL     1      18.354   1.010  18.082  1.00  0.00     0.173 HD
ATOM     29  H91 UNL     1      18.324  -0.612  18.259  1.00  0.00     0.173 HD
ENDBRANCH  26  27
BRANCH  26  30
HETATM   30  O3  UNL     1      17.275  -1.195  16.374  1.00  0.00    -0.289 OA
ATOM     31  H3  UNL     1      18.147  -1.531  16.540  1.00  0.00     0.239 HD
ENDBRANCH  26  30
ENDBRANCH   9  26
BRANCH   4  32
HETATM   32  N5  UNL     1      12.199   1.826  16.303  1.00  0.00    -0.234 N 
ATOM     33  H52 UNL     1      11.952   2.492  15.572  1.00  0.00     0.174 HD
ATOM     34  H51 UNL     1      11.487   1.480  16.948  1.00  0.00     0.174 HD
ENDBRANCH   4  32
TORSDOF 14
ENDMDL
MODEL 3
REMARK VINA RESULT: -6.897186875      1.682      2.842
REMARK  14 active torsions:
REMARK  status: ('A' for Active; 'I' for Inactive)
REMARK    1  A    between atoms: C2_2  and  N1_3 
REMARK    2  A    between atoms: N1_3  and  C3_4 
REMARK    3  A    between atoms: N1_3  and  C5_8 
REMARK    4  A    between atoms: C3_4  and  C4_5 
REMARK    5  A    between atoms: C4_5  and  O1_6 
REMARK    6  A    between atoms: C5_8  and  C6_9 
REMARK    7  A    between atoms: C6_9  and  N2_10 
REMARK       I    between atoms: N2_10  and  C7_12 
REMARK    8  A    between atoms: C7_12  and  C8_14 
REMARK    9  A    between atoms: C8_14  and  N3_15 
REMARK   10  A    between atoms: N3_15  and  C9_17 
REMARK   11  A    between atoms: C10_20  and  N5_21 
REMARK   12  A    between atoms: C12_28  and  N8_29 
REMARK   13  A    between atoms: N8_29  and  N9_30 
REMARK   14  A    between atoms: N8_29  and  O3_33 
ROOT
HETATM    1  C9  UNL     1      14.912   1.108  16.216  1.00  0.00     0.146 A 
HETATM    2  N4  UNL     1      15.765   0.144  16.584  1.00  0.00    -0.175 N 
ATOM      3  H4  UNL     1      16.726   0.180  16.245  1.00  0.00     0.186 HD
HETATM    4  C10 UNL     1      15.390  -0.877  17.391  1.00  0.00     0.678 A 
HETATM    5  N6  UNL     1      14.131  -0.950  17.856  1.00  0.00    -0.177 N 
ATOM      6  H6  UNL     1      13.864  -1.723  18.465  1.00  0.00     0.185 HD
HETATM    7  C11 UNL     1      13.206  -0.004  17.525  1.00  0.00     0.161 A 
HETATM    8  N7  UNL     1      11.881  -0.093  18.018  1.00  0.00    -0.080 NA
HETATM    9  C12 UNL     1      13.629   1.018  16.700  1.00  0.00     0.144 A 
ENDROOT
BRANCH   1  10
HETATM   10  N3  UNL     1      15.248   2.064  15.446  1.00  0.00    -0.365 N 
ATOM     11  H3  UNL     1      14.859   2.029  14.504  1.00  0.00     0.161 HD
BRANCH  10  12
HETATM   12  C8  UNL     1      16.093   3.173  15.721  1.00  0.00     0.224 C 
BRANCH  12  13
HETATM   13  C7  UNL     1      15.378   4.449  15.526  1.00  0.00     0.235 C 
HETATM   14  N2  UNL     1      14.392   4.875  16.449  1.00  0.00    -0.355 N 
ATOM     15  H2  UNL     1      14.174   4.287  17.254  1.00  0.00     0.162 HD
HETATM   16  O2  UNL     1      15.634   5.177  14.538  1.00  0.00    -0.272 OA
BRANCH  14  17
HETATM   17  C6  UNL     1      13.682   6.131  16.277  1.00  0.00     0.167 C 
BRANCH  17  18
HETATM   18  C5  UNL     1      12.206   5.968  16.446  1.00  0.00     0.082 C 
BRANCH  18  19
HETATM   19  N1  UNL     1      11.425   5.877  15.282  1.00  0.00    -0.371 N 
BRANCH  19  20
HETATM   20  C2  UNL     1      10.161   5.319  15.482  1.00  0.00     0.059 C 
HETATM   21  C1  UNL     1       9.017   6.255  15.646  1.00  0.00     0.055 C 
ENDBRANCH  19  20
BRANCH  19  22
HETATM   22  C3  UNL     1      12.014   5.837  14.018  1.00  0.00     0.153 C 
BRANCH  22  23
HETATM   23  C4  UNL     1      11.944   4.460  13.340  1.00  0.00     0.184 C 
BRANCH  23  24
HETATM   24  O1  UNL     1      12.977   3.682  13.777  1.00  0.00    -0.399 OA
ATOM     25  H1  UNL     1      12.639   2.980  14.319  1.00  0.00     0.209 HD
ENDBRANCH  23  24
ENDBRANCH  22  23
ENDBRANCH  19  22
ENDBRANCH  18  19
ENDBRANCH  17  18
ENDBRANCH  14  17
ENDBRANCH  12  13
ENDBRANCH  10  12
ENDBRANCH   1  10
BRANCH   9  26
HETATM   26  N8  UNL     1      12.665   2.016  16.350  1.00  0.00    -0.070 NA
BRANCH  26  27
HETATM   27  N9  UNL     1      11.837   1.563  15.310  1.00  0.00    -0.336 NA
ATOM     28  H92 UNL     1      11.404   0.702  15.645  1.00  0.00     0.173 HD
ATOM     29  H91 UNL     1      12.391   1.305  14.494  1.00  0.00     0.173 HD
ENDBRANCH  26  27
BRANCH  26  30
HETATM   30  O3  UNL     1      11.864   2.167  17.433  1.00  0.00    -0.289 OA
ATOM     31  H3  UNL     1      11.359   1.366  17.503  1.00  0.00     0.239 HD
ENDBRANCH  26  30
ENDBRANCH   9  26
BRANCH   4  32
HETATM   32  N5  UNL     1      16.213  -1.811  17.747  1.00  0.00    -0.234 N 
ATOM     33  H52 UNL     1      16.819  -1.626  18.546  1.00  0.00     0.174 HD
ATOM     34  H51 UNL     1      16.266  -2.704  17.256  1.00  0.00     0.174 HD
ENDBRANCH   4  32
TORSDOF 14
ENDMDL
MODEL 4
REMARK VINA RESULT: -6.882786018      4.037      5.545
REMARK  14 active torsions:
REMARK  status: ('A' for Active; 'I' for Inactive)
REMARK    1  A    between atoms: C2_2  and  N1_3 
REMARK    2  A    between atoms: N1_3  and  C3_4 
REMARK    3  A    between atoms: N1_3  and  C5_8 
REMARK    4  A    between atoms: C3_4  and  C4_5 
REMARK    5  A    between atoms: C4_5  and  O1_6 
REMARK    6  A    between atoms: C5_8  and  C6_9 
REMARK    7  A    between atoms: C6_9  and  N2_10 
REMARK       I    between atoms: N2_10  and  C7_12 
REMARK    8  A    between atoms: C7_12  and  C8_14 
REMARK    9  A    between atoms: C8_14  and  N3_15 
REMARK   10  A    between atoms: N3_15  and  C9_17 
REMARK   11  A    between atoms: C10_20  and  N5_21 
REMARK   12  A    between atoms: C12_28  and  N8_29 
REMARK   13  A    between atoms: N8_29  and  N9_30 
REMARK   14  A    between atoms: N8_29  and  O3_33 
ROOT
HETATM    1  C9  UNL     1      15.793   1.817  15.842  1.00  0.00     0.146 A 
HETATM    2  N4  UNL     1      14.519   2.209  15.730  1.00  0.00    -0.175 N 
ATOM      3  H4  UNL     1      14.307   3.052  15.195  1.00  0.00     0.186 HD
HETATM    4  C10 UNL     1      13.502   1.524  16.305  1.00  0.00     0.678 A 
HETATM    5  N6  UNL     1      13.749   0.408  17.014  1.00  0.00    -0.177 N 
ATOM      6  H6  UNL     1      12.973  -0.099  17.440  1.00  0.00     0.185 HD
HETATM    7  C11 UNL     1      15.022  -0.054  17.172  1.00  0.00     0.161 A 
HETATM    8  N7  UNL     1      15.270  -1.228  17.925  1.00  0.00    -0.080 NA
HETATM    9  C12 UNL     1      16.028   0.674  16.571  1.00  0.00     0.144 A 
ENDROOT
BRANCH   1  10
HETATM   10  N3  UNL     1      16.758   2.461  15.319  1.00  0.00    -0.365 N 
ATOM     11  H3  UNL     1      17.469   1.893  14.859  1.00  0.00     0.161 HD
BRANCH  10  12
HETATM   12  C8  UNL     1      16.979   3.864  15.290  1.00  0.00     0.224 C 
BRANCH  12  13
HETATM   13  C7  UNL     1      18.272   4.188  14.657  1.00  0.00     0.235 C 
HETATM   14  N2  UNL     1      18.880   5.452  14.855  1.00  0.00    -0.355 N 
ATOM     15  H2  UNL     1      18.411   6.145  15.439  1.00  0.00     0.162 HD
HETATM   16  O2  UNL     1      18.853   3.346  13.933  1.00  0.00    -0.272 OA
BRANCH  14  17
HETATM   17  C6  UNL     1      20.155   5.786  14.244  1.00  0.00     0.167 C 
BRANCH  17  18
HETATM   18  C5  UNL     1      20.146   7.152  13.639  1.00  0.00     0.082 C 
BRANCH  18  19
HETATM   19  N1  UNL     1      19.790   7.260  12.284  1.00  0.00    -0.371 N 
BRANCH  19  20
HETATM   20  C2  UNL     1      18.523   7.803  12.064  1.00  0.00     0.059 C 
HETATM   21  C1  UNL     1      18.080   7.959  10.653  1.00  0.00     0.055 C 
ENDBRANCH  19  20
BRANCH  19  22
HETATM   22  C3  UNL     1      20.377   6.444  11.316  1.00  0.00     0.153 C 
BRANCH  22  23
HETATM   23  C4  UNL     1      21.615   7.058  10.647  1.00  0.00     0.184 C 
BRANCH  23  24
HETATM   24  O1  UNL     1      21.674   6.661   9.342  1.00  0.00    -0.399 OA
ATOM     25  H1  UNL     1      20.796   6.504   9.017  1.00  0.00     0.209 HD
ENDBRANCH  23  24
ENDBRANCH  22  23
ENDBRANCH  19  22
ENDBRANCH  18  19
ENDBRANCH  17  18
ENDBRANCH  14  17
ENDBRANCH  12  13
ENDBRANCH  10  12
ENDBRANCH   1  10
BRANCH   9  26
HETATM   26  N8  UNL     1      17.366   0.195  16.729  1.00  0.00    -0.070 NA
BRANCH  26  27
HETATM   27  N9  UNL     1      17.736   0.194  18.085  1.00  0.00    -0.336 NA
ATOM     28  H92 UNL     1      17.546   1.134  18.432  1.00  0.00     0.173 HD
ATOM     29  H91 UNL     1      18.741   0.050  18.184  1.00  0.00     0.173 HD
ENDBRANCH  26  27
BRANCH  26  30
HETATM   30  O3  UNL     1      17.353  -1.103  16.340  1.00  0.00    -0.289 OA
ATOM     31  H3  UNL     1      16.448  -1.313  16.146  1.00  0.00     0.239 HD
ENDBRANCH  26  30
ENDBRANCH   9  26
BRANCH   4  32
HETATM   32  N5  UNL     1      12.268   1.903  16.199  1.00  0.00    -0.234 N 
ATOM     33  H52 UNL     1      11.942   2.624  16.842  1.00  0.00     0.174 HD
ATOM     34  H51 UNL     1      11.635   1.506  15.505  1.00  0.00     0.174 HD
ENDBRANCH   4  32
TORSDOF 14
ENDMDL
MODEL 5
REMARK VINA RESULT: -6.849536330      1.951      3.239
REMARK  14 active torsions:
REMARK  status: ('A' for Active; 'I' for Inactive)
REMARK    1  A    between atoms: C2_2  and  N1_3 
REMARK    2  A    between atoms: N1_3  and  C3_4 
REMARK    3  A    between atoms: N1_3  and  C5_8 
REMARK    4  A    between atoms: C3_4  and  C4_5 
REMARK    5  A    between atoms: C4_5  and  O1_6 
REMARK    6  A    between atoms: C5_8  and  C6_9 
REMARK    7  A    between atoms: C6_9  and  N2_10 
REMARK       I    between atoms: N2_10  and  C7_12 
REMARK    8  A    between atoms: C7_12  and  C8_14 
REMARK    9  A    between atoms: C8_14  and  N3_15 
REMARK   10  A    between atoms: N3_15  and  C9_17 
REMARK   11  A    between atoms: C10_20  and  N5_21 
REMARK   12  A    between atoms: C12_28  and  N8_29 
REMARK   13  A    between atoms: N8_29  and  N9_30 
REMARK   14  A    between atoms: N8_29  and  O3_33 
ROOT
HETATM    1  C9  UNL     1      14.999   1.274  16.568  1.00  0.00     0.146 A 
HETATM    2  N4  UNL     1      15.875   0.316  16.890  1.00  0.00    -0.175 N 
ATOM      3  H4  UNL     1      16.873   0.504  16.788  1.00  0.00     0.186 HD
HETATM    4  C10 UNL     1      15.479  -0.896  17.346  1.00  0.00     0.678 A 
HETATM    5  N6  UNL     1      14.172  -1.174  17.493  1.00  0.00    -0.177 N 
ATOM      6  H6  UNL     1      13.889  -2.090  17.840  1.00  0.00     0.185 HD
HETATM    7  C11 UNL     1      13.220  -0.247  17.186  1.00  0.00     0.161 A 
HETATM    8  N7  UNL     1      11.845  -0.552  17.342  1.00  0.00    -0.080 NA
HETATM    9  C12 UNL     1      13.666   0.974  16.724  1.00  0.00     0.144 A 
ENDROOT
BRANCH   1  10
HETATM   10  N3  UNL     1      15.359   2.412  16.124  1.00  0.00    -0.365 N 
ATOM     11  H3  UNL     1      14.622   3.114  16.063  1.00  0.00     0.161 HD
BRANCH  10  12
HETATM   12  C8  UNL     1      16.648   2.835  15.700  1.00  0.00     0.224 C 
BRANCH  12  13
HETATM   13  C7  UNL     1      16.591   4.168  15.070  1.00  0.00     0.235 C 
HETATM   14  N2  UNL     1      15.368   4.877  14.983  1.00  0.00    -0.355 N 
ATOM     15  H2  UNL     1      14.519   4.455  15.358  1.00  0.00     0.162 HD
HETATM   16  O2  UNL     1      17.628   4.693  14.601  1.00  0.00    -0.272 OA
BRANCH  14  17
HETATM   17  C6  UNL     1      15.295   6.193  14.371  1.00  0.00     0.167 C 
BRANCH  17  18
HETATM   18  C5  UNL     1      13.965   6.443  13.738  1.00  0.00     0.082 C 
BRANCH  18  19
HETATM   19  N1  UNL     1      12.819   6.091  14.472  1.00  0.00    -0.371 N 
BRANCH  19  20
HETATM   20  C2  UNL     1      11.761   5.620  13.692  1.00  0.00     0.059 C 
HETATM   21  C1  UNL     1      11.930   4.294  13.040  1.00  0.00     0.055 C 
ENDBRANCH  19  20
BRANCH  19  22
HETATM   22  C3  UNL     1      12.568   6.644  15.728  1.00  0.00     0.153 C 
BRANCH  22  23
HETATM   23  C4  UNL     1      12.258   5.606  16.817  1.00  0.00     0.184 C 
BRANCH  23  24
HETATM   24  O1  UNL     1      13.248   4.668  16.849  1.00  0.00    -0.399 OA
ATOM     25  H1  UNL     1      12.864   3.799  16.837  1.00  0.00     0.209 HD
ENDBRANCH  23  24
ENDBRANCH  22  23
ENDBRANCH  19  22
ENDBRANCH  18  19
ENDBRANCH  17  18
ENDBRANCH  14  17
ENDBRANCH  12  13
ENDBRANCH  10  12
ENDBRANCH   1  10
BRANCH   9  26
HETATM   26  N8  UNL     1      12.675   1.953  16.401  1.00  0.00    -0.070 NA
BRANCH  26  27
HETATM   27  N9  UNL     1      11.895   1.530  15.312  1.00  0.00    -0.336 NA
ATOM     28  H92 UNL     1      12.498   0.934  14.745  1.00  0.00     0.173 HD
ATOM     29  H91 UNL     1      11.639   2.322  14.722  1.00  0.00     0.173 HD
ENDBRANCH  26  27
BRANCH  26  30
HETATM   30  O3  UNL     1      11.838   2.011  17.465  1.00  0.00    -0.289 OA
ATOM     31  H3  UNL     1      12.140   2.734  18.002  1.00  0.00     0.239 HD
ENDBRANCH  26  30
ENDBRANCH   9  26
BRANCH   4  32
HETATM   32  N5  UNL     1      16.326  -1.826  17.657  1.00  0.00    -0.234 N 
ATOM     33  H52 UNL     1      17.318  -1.603  17.580  1.00  0.00     0.174 HD
ATOM     34  H51 UNL     1      16.027  -2.751  17.967  1.00  0.00     0.174 HD
ENDBRANCH   4  32
TORSDOF 14
ENDMDL
