MODEL 1
REMARK VINA RESULT: -6.839493854      0.000      0.000
REMARK  11 active torsions:
REMARK  status: ('A' for Active; 'I' for Inactive)
REMARK    1  A    between atoms: C2_3  and  O1_4 
REMARK    2  A    between atoms: C3_7  and  N2_8 
REMARK    3  A    between atoms: N2_8  and  C4_10 
REMARK    4  A    between atoms: C4_10  and  C5_11 
REMARK    5  A    between atoms: C5_11  and  C6_12 
REMARK    6  A    between atoms: C6_12  and  N3_13 
REMARK    7  A    between atoms: N3_13  and  C7_15 
REMARK    8  A    between atoms: C7_15  and  C8_16 
REMARK    9  A    between atoms: C8_16  and  C9_17 
REMARK   10  A    between atoms: C9_17  and  N4_18 
REMARK   11  A    between atoms: C11_23  and  O3_24 
ROOT
HETATM    1  N1  UNL     1      11.733   3.418  11.052  1.00  0.00    -0.191 NA
HETATM    2  C1  UNL     1      11.877   3.602  12.200  1.00  0.00     0.130 C 
HETATM    3  C2  UNL     1      12.073   3.861  13.645  1.00  0.00     0.286 C 
HETATM    4  O2  UNL     1      13.157   4.686  13.769  1.00  0.00    -0.314 OA
HETATM    5  C3  UNL     1      13.731   4.709  15.081  1.00  0.00     0.256 C 
HETATM    6  C11 UNL     1      12.991   5.601  15.970  1.00  0.00     0.197 C 
HETATM    7  C12 UNL     1      11.530   5.770  15.657  1.00  0.00     0.221 C 
HETATM    8  C13 UNL     1      11.207   6.120  14.244  1.00  0.00     0.075 C 
HETATM    9  C14 UNL     1      10.870   4.638  14.126  1.00  0.00     0.266 C 
HETATM   10  N7  UNL     1      10.820   4.512  15.556  1.00  0.00    -0.058 N 
ATOM     11  H71 UNL     1       9.930   4.378  16.034  1.00  0.00     0.278 HD
ATOM     12  H72 UNL     1      11.179   3.675  16.016  1.00  0.00     0.278 HD
ENDROOT
BRANCH   3  13
HETATM   13  O1  UNL     1      12.203   2.630  14.231  1.00  0.00    -0.352 OA
ATOM     14  H1  UNL     1      12.656   2.780  15.053  1.00  0.00     0.214 HD
ENDBRANCH   3  13
BRANCH   5  15
HETATM   15  N2  UNL     1      15.125   5.000  14.842  1.00  0.00    -0.374 N 
ATOM     16  H2  UNL     1      15.396   5.809  14.283  1.00  0.00     0.161 HD
BRANCH  15  17
HETATM   17  C4  UNL     1      16.090   4.164  15.385  1.00  0.00     0.059 C 
BRANCH  17  18
HETATM   18  C5  UNL     1      15.864   2.910  16.083  1.00  0.00     0.063 C 
BRANCH  18  19
HETATM   19  C6  UNL     1      16.356   1.645  15.380  1.00  0.00     0.123 C 
BRANCH  19  20
HETATM   20  N3  UNL     1      16.993   0.840  16.374  1.00  0.00    -0.402 N 
ATOM     21  H3  UNL     1      17.972   0.568  16.280  1.00  0.00     0.158 HD
BRANCH  20  22
HETATM   22  C7  UNL     1      16.234   0.434  17.486  1.00  0.00     0.057 C 
BRANCH  22  23
HETATM   23  C8  UNL     1      15.713  -0.972  17.232  1.00  0.00     0.063 C 
BRANCH  23  24
HETATM   24  C9  UNL     1      14.203  -1.042  17.212  1.00  0.00     0.127 C 
BRANCH  24  25
HETATM   25  N4  UNL     1      13.578   0.218  17.076  1.00  0.00    -0.367 N 
HETATM   26  C10 UNL     1      12.467   0.647  17.505  1.00  0.00     0.196 C 
HETATM   27  N5  UNL     1      12.142   2.004  17.177  1.00  0.00    -0.067 NA
HETATM   28  N6  UNL     1      11.509  -0.060  18.270  1.00  0.00    -0.067 NA
ATOM     29  H4  UNL     1      14.114   0.900  16.541  1.00  0.00     0.161 HD
ENDBRANCH  24  25
ENDBRANCH  23  24
ENDBRANCH  22  23
ENDBRANCH  20  22
ENDBRANCH  19  20
ENDBRANCH  18  19
ENDBRANCH  17  18
ENDBRANCH  15  17
ENDBRANCH   5  15
BRANCH   6  30
HETATM   30  O3  UNL     1      12.997   5.043  17.296  1.00  0.00    -0.389 OA
ATOM     31  H3  UNL     1      13.844   5.206  17.693  1.00  0.00     0.210 HD
ENDBRANCH   6  30
TORSDOF 11
ENDMDL
MODEL 2
REMARK VINA RESULT: -6.781743686      1.741      4.057
REMARK  11 active torsions:
REMARK  status: ('A' for Active; 'I' for Inactive)
REMARK    1  A    between atoms: C2_3  and  O1_4 
REMARK    2  A    between atoms: C3_7  and  N2_8 
REMARK    3  A    between atoms: N2_8  and  C4_10 
REMARK    4  A    between atoms: C4_10  and  C5_11 
REMARK    5  A    between atoms: C5_11  and  C6_12 
REMARK    6  A    between atoms: C6_12  and  N3_13 
REMARK    7  A    between atoms: N3_13  and  C7_15 
REMARK    8  A    between atoms: C7_15  and  C8_16 
REMARK    9  A    between atoms: C8_16  and  C9_17 
REMARK   10  A    between atoms: C9_17  and  N4_18 
REMARK   11  A    between atoms: C11_23  and  O3_24 
ROOT
HETATM    1  N1  UNL     1      14.912   6.542  17.419  1.00  0.00    -0.191 NA
HETATM    2  C1  UNL     1      14.376   5.937  16.571  1.00  0.00     0.130 C 
HETATM    3  C2  UNL     1      13.684   5.156  15.520  1.00  0.00     0.286 C 
HETATM    4  O2  UNL     1      13.363   3.940  16.058  1.00  0.00    -0.314 OA
HETATM    5  C3  UNL     1      13.067   2.928  15.089  1.00  0.00     0.256 C 
HETATM    6  C11 UNL     1      11.692   3.040  14.607  1.00  0.00     0.197 C 
HETATM    7  C12 UNL     1      11.104   4.424  14.627  1.00  0.00     0.221 C 
HETATM    8  C13 UNL     1      11.224   5.159  15.919  1.00  0.00     0.075 C 
HETATM    9  C14 UNL     1      12.382   5.863  15.222  1.00  0.00     0.266 C 
HETATM   10  N7  UNL     1      11.924   5.401  13.942  1.00  0.00    -0.058 N 
ATOM     11  H71 UNL     1      11.509   6.050  13.274  1.00  0.00     0.278 HD
ATOM     12  H72 UNL     1      12.590   5.110  13.226  1.00  0.00     0.278 HD
ENDROOT
BRANCH   3  13
HETATM   13  O1  UNL     1      14.544   5.117  14.454  1.00  0.00    -0.352 OA
ATOM     14  H1  UNL     1      15.240   4.521  14.704  1.00  0.00     0.214 HD
ENDBRANCH   3  13
BRANCH   5  15
HETATM   15  N2  UNL     1      13.452   1.701  15.744  1.00  0.00    -0.374 N 
ATOM     16  H2  UNL     1      14.241   1.154  15.396  1.00  0.00     0.161 HD
BRANCH  15  17
HETATM   17  C4  UNL     1      12.735   1.274  16.852  1.00  0.00     0.059 C 
BRANCH  17  18
HETATM   18  C5  UNL     1      12.835  -0.016  17.513  1.00  0.00     0.063 C 
BRANCH  18  19
HETATM   19  C6  UNL     1      13.793  -1.028  16.883  1.00  0.00     0.123 C 
BRANCH  19  20
HETATM   20  N3  UNL     1      14.817  -1.283  17.845  1.00  0.00    -0.402 N 
ATOM     21  H3  UNL     1      14.619  -1.240  18.845  1.00  0.00     0.158 HD
BRANCH  20  22
HETATM   22  C7  UNL     1      16.106  -1.595  17.377  1.00  0.00     0.057 C 
BRANCH  22  23
HETATM   23  C8  UNL     1      17.057  -0.485  17.794  1.00  0.00     0.063 C 
BRANCH  23  24
HETATM   24  C9  UNL     1      16.605   0.880  17.326  1.00  0.00     0.127 C 
BRANCH  24  25
HETATM   25  N4  UNL     1      16.844   1.118  15.954  1.00  0.00    -0.367 N 
HETATM   26  C10 UNL     1      16.976   2.198  15.307  1.00  0.00     0.196 C 
HETATM   27  N5  UNL     1      17.215   2.068  13.900  1.00  0.00    -0.067 NA
HETATM   28  N6  UNL     1      16.914   3.517  15.814  1.00  0.00    -0.067 NA
ATOM     29  H4  UNL     1      16.924   0.275  15.387  1.00  0.00     0.161 HD
ENDBRANCH  24  25
ENDBRANCH  23  24
ENDBRANCH  22  23
ENDBRANCH  20  22
ENDBRANCH  19  20
ENDBRANCH  18  19
ENDBRANCH  17  18
ENDBRANCH  15  17
ENDBRANCH   5  15
BRANCH   6  30
HETATM   30  O3  UNL     1      11.658   2.671  13.216  1.00  0.00    -0.389 OA
ATOM     31  H3  UNL     1      10.881   3.048  12.819  1.00  0.00     0.210 HD
ENDBRANCH   6  30
TORSDOF 11
ENDMDL
MODEL 3
REMARK VINA RESULT: -6.638677711      1.286      1.510
REMARK  11 active torsions:
REMARK  status: ('A' for Active; 'I' for Inactive)
REMARK    1  A    between atoms: C2_3  and  O1_4 
REMARK    2  A    between atoms: C3_7  and  N2_8 
REMARK    3  A    between atoms: N2_8  and  C4_10 
REMARK    4  A    between atoms: C4_10  and  C5_11 
REMARK    5  A    between atoms: C5_11  and  C6_12 
REMARK    6  A    between atoms: C6_12  and  N3_13 
REMARK    7  A    between atoms: N3_13  and  C7_15 
REMARK    8  A    between atoms: C7_15  and  C8_16 
REMARK    9  A    between atoms: C8_16  and  C9_17 
REMARK   10  A    between atoms: C9_17  and  N4_18 
REMARK   11  A    between atoms: C11_23  and  O3_24 
ROOT
HETATM    1  N1  UNL     1      11.114   6.203  11.667  1.00  0.00    -0.191 NA
HETATM    2  C1  UNL     1      11.532   5.552  12.547  1.00  0.00     0.130 C 
HETATM    3  C2  UNL     1      12.066   4.754  13.674  1.00  0.00     0.286 C 
HETATM    4  O2  UNL     1      12.953   5.545  14.351  1.00  0.00    -0.314 OA
HETATM    5  C3  UNL     1      13.853   4.825  15.201  1.00  0.00     0.256 C 
HETATM    6  C11 UNL     1      13.226   4.493  16.478  1.00  0.00     0.197 C 
HETATM    7  C12 UNL     1      11.733   4.321  16.448  1.00  0.00     0.221 C 
HETATM    8  C13 UNL     1      10.967   5.429  15.807  1.00  0.00     0.075 C 
HETATM    9  C14 UNL     1      10.914   4.483  14.613  1.00  0.00     0.266 C 
HETATM   10  N7  UNL     1      11.289   3.374  15.446  1.00  0.00    -0.058 N 
ATOM     11  H71 UNL     1      10.612   2.649  15.681  1.00  0.00     0.278 HD
ATOM     12  H72 UNL     1      11.921   2.653  15.097  1.00  0.00     0.278 HD
ENDROOT
BRANCH   3  13
HETATM   13  O1  UNL     1      12.596   3.623  13.114  1.00  0.00    -0.352 OA
ATOM     14  H1  UNL     1      12.929   3.106  13.838  1.00  0.00     0.214 HD
ENDBRANCH   3  13
BRANCH   5  15
HETATM   15  N2  UNL     1      15.038   5.649  15.227  1.00  0.00    -0.374 N 
ATOM     16  H2  UNL     1      14.970   6.646  15.430  1.00  0.00     0.161 HD
BRANCH  15  17
HETATM   17  C4  UNL     1      16.270   5.064  14.971  1.00  0.00     0.059 C 
BRANCH  17  18
HETATM   18  C5  UNL     1      16.853   3.923  15.657  1.00  0.00     0.063 C 
BRANCH  18  19
HETATM   19  C6  UNL     1      16.595   2.552  15.032  1.00  0.00     0.123 C 
BRANCH  19  20
HETATM   20  N3  UNL     1      16.013   1.737  16.050  1.00  0.00    -0.402 N 
ATOM     21  H3  UNL     1      15.100   1.964  16.445  1.00  0.00     0.158 HD
BRANCH  20  22
HETATM   22  C7  UNL     1      16.733   0.612  16.493  1.00  0.00     0.057 C 
BRANCH  22  23
HETATM   23  C8  UNL     1      16.068   0.074  17.751  1.00  0.00     0.063 C 
BRANCH  23  24
HETATM   24  C9  UNL     1      15.085  -1.038  17.464  1.00  0.00     0.127 C 
BRANCH  24  25
HETATM   25  N4  UNL     1      13.790  -0.799  17.976  1.00  0.00    -0.367 N 
HETATM   26  C10 UNL     1      12.828  -0.115  17.520  1.00  0.00     0.196 C 
HETATM   27  N5  UNL     1      11.635  -0.092  18.314  1.00  0.00    -0.067 NA
HETATM   28  N6  UNL     1      12.795   0.627  16.316  1.00  0.00    -0.067 NA
ATOM     29  H4  UNL     1      13.598  -1.255  18.867  1.00  0.00     0.161 HD
ENDBRANCH  24  25
ENDBRANCH  23  24
ENDBRANCH  22  23
ENDBRANCH  20  22
ENDBRANCH  19  20
ENDBRANCH  18  19
ENDBRANCH  17  18
ENDBRANCH  15  17
ENDBRANCH   5  15
BRANCH   6  30
HETATM   30  O3  UNL     1      13.711   3.210  16.913  1.00  0.00    -0.389 OA
ATOM     31  H3  UNL     1      13.125   2.536  16.590  1.00  0.00     0.210 HD
ENDBRANCH   6  30
TORSDOF 11
ENDMDL
MODEL 4
REMARK VINA RESULT: -6.545662180      2.034      6.362
REMARK  11 active torsions:
REMARK  status: ('A' for Active; 'I' for Inactive)
REMARK    1  A    between atoms: C2_3  and  O1_4 
REMARK    2  A    between atoms: C3_7  and  N2_8 
REMARK    3  A    between atoms: N2_8  and  C4_10 
REMARK    4  A    between atoms: C4_10  and  C5_11 
REMARK    5  A    between atoms: C5_11  and  C6_12 
REMARK    6  A    between atoms: C6_12  and  N3_13 
REMARK    7  A    between atoms: N3_13  and  C7_15 
REMARK    8  A    between atoms: C7_15  and  C8_16 
REMARK    9  A    between atoms: C8_16  and  C9_17 
REMARK   10  A    between atoms: C9_17  and  N4_18 
REMARK   11  A    between atoms: C11_23  and  O3_24 
ROOT
HETATM    1  N1  UNL     1      17.496  -1.245  16.548  1.00  0.00    -0.191 NA
HETATM    2  C1  UNL     1      16.514  -0.700  16.881  1.00  0.00     0.130 C 
HETATM    3  C2  UNL     1      15.263  -0.012  17.274  1.00  0.00     0.286 C 
HETATM    4  O2  UNL     1      14.779   0.624  16.164  1.00  0.00    -0.314 OA
HETATM    5  C3  UNL     1      13.823   1.653  16.444  1.00  0.00     0.256 C 
HETATM    6  C11 UNL     1      12.491   1.095  16.665  1.00  0.00     0.197 C 
HETATM    7  C12 UNL     1      12.451  -0.303  17.218  1.00  0.00     0.221 C 
HETATM    8  C13 UNL     1      13.282  -1.308  16.494  1.00  0.00     0.075 C 
HETATM    9  C14 UNL     1      14.261  -1.082  17.640  1.00  0.00     0.266 C 
HETATM   10  N7  UNL     1      13.233  -0.459  18.426  1.00  0.00    -0.058 N 
ATOM     11  H71 UNL     1      12.842  -0.934  19.240  1.00  0.00     0.278 HD
ATOM     12  H72 UNL     1      13.446   0.347  19.015  1.00  0.00     0.278 HD
ENDROOT
BRANCH   3  13
HETATM   13  O1  UNL     1      15.598   0.808  18.319  1.00  0.00    -0.352 OA
ATOM     14  H1  UNL     1      14.869   0.766  18.926  1.00  0.00     0.214 HD
ENDBRANCH   3  13
BRANCH   5  15
HETATM   15  N2  UNL     1      13.991   2.585  15.355  1.00  0.00    -0.374 N 
ATOM     16  H2  UNL     1      13.533   2.421  14.458  1.00  0.00     0.161 HD
BRANCH  15  17
HETATM   17  C4  UNL     1      14.783   3.708  15.546  1.00  0.00     0.059 C 
BRANCH  17  18
HETATM   18  C5  UNL     1      14.334   5.039  15.921  1.00  0.00     0.063 C 
BRANCH  18  19
HETATM   19  C6  UNL     1      12.925   5.140  16.504  1.00  0.00     0.123 C 
BRANCH  19  20
HETATM   20  N3  UNL     1      12.167   5.963  15.616  1.00  0.00    -0.402 N 
ATOM     21  H3  UNL     1      12.355   6.962  15.539  1.00  0.00     0.158 HD
BRANCH  20  22
HETATM   22  C7  UNL     1      11.155   5.357  14.850  1.00  0.00     0.057 C 
BRANCH  22  23
HETATM   23  C8  UNL     1      11.490   5.531  13.376  1.00  0.00     0.063 C 
BRANCH  23  24
HETATM   24  C9  UNL     1      12.261   4.360  12.808  1.00  0.00     0.127 C 
BRANCH  24  25
HETATM   25  N4  UNL     1      11.462   3.457  12.072  1.00  0.00    -0.367 N 
HETATM   26  C10 UNL     1      11.689   2.831  10.997  1.00  0.00     0.196 C 
HETATM   27  N5  UNL     1      10.636   1.981  10.524  1.00  0.00    -0.067 NA
HETATM   28  N6  UNL     1      12.862   2.873  10.207  1.00  0.00    -0.067 NA
ATOM     29  H4  UNL     1      10.543   3.280  12.478  1.00  0.00     0.161 HD
ENDBRANCH  24  25
ENDBRANCH  23  24
ENDBRANCH  22  23
ENDBRANCH  20  22
ENDBRANCH  19  20
ENDBRANCH  18  19
ENDBRANCH  17  18
ENDBRANCH  15  17
ENDBRANCH   5  15
BRANCH   6  30
HETATM   30  O3  UNL     1      11.820   1.881  17.667  1.00  0.00    -0.389 OA
ATOM     31  H3  UNL     1      10.983   1.477  17.863  1.00  0.00     0.210 HD
ENDBRANCH   6  30
TORSDOF 11
ENDMDL
MODEL 5
REMARK VINA RESULT: -6.540997131      1.497      2.896
REMARK  11 active torsions:
REMARK  status: ('A' for Active; 'I' for Inactive)
REMARK    1  A    between atoms: C2_3  and  O1_4 
REMARK    2  A    between atoms: C3_7  and  N2_8 
REMARK    3  A    between atoms: N2_8  and  C4_10 
REMARK    4  A    between atoms: C4_10  and  C5_11 
REMARK    5  A    between atoms: C5_11  and  C6_12 
REMARK    6  A    between atoms: C6_12  and  N3_13 
REMARK    7  A    between atoms: N3_13  and  C7_15 
REMARK    8  A    between atoms: C7_15  and  C8_16 
REMARK    9  A    between atoms: C8_16  and  C9_17 
REMARK   10  A    between atoms: C9_17  and  N4_18 
REMARK   11  A    between atoms: C11_23  and  O3_24 
ROOT
HETATM    1  N1  UNL     1      11.857   3.574  11.214  1.00  0.00    -0.191 NA
HETATM    2  C1  UNL     1      11.878   4.120  12.250  1.00  0.00     0.130 C 
HETATM    3  C2  UNL     1      11.933   4.821  13.553  1.00  0.00     0.286 C 
HETATM    4  O2  UNL     1      13.250   4.941  13.899  1.00  0.00    -0.314 OA
HETATM    5  C3  UNL     1      13.472   5.216  15.286  1.00  0.00     0.256 C 
HETATM    6  C11 UNL     1      13.301   6.636  15.581  1.00  0.00     0.197 C 
HETATM    7  C12 UNL     1      12.342   7.377  14.690  1.00  0.00     0.221 C 
HETATM    8  C13 UNL     1      12.561   7.210  13.224  1.00  0.00     0.075 C 
HETATM    9  C14 UNL     1      11.407   6.220  13.330  1.00  0.00     0.266 C 
HETATM   10  N7  UNL     1      11.038   6.751  14.612  1.00  0.00    -0.058 N 
ATOM     11  H71 UNL     1      10.189   7.306  14.719  1.00  0.00     0.278 HD
ATOM     12  H72 UNL     1      10.714   6.133  15.356  1.00  0.00     0.278 HD
ENDROOT
BRANCH   3  13
HETATM   13  O1  UNL     1      11.167   4.077  14.411  1.00  0.00    -0.352 OA
ATOM     14  H1  UNL     1      11.620   3.249  14.513  1.00  0.00     0.214 HD
ENDBRANCH   3  13
BRANCH   5  15
HETATM   15  N2  UNL     1      14.762   4.624  15.554  1.00  0.00    -0.374 N 
ATOM     16  H2  UNL     1      15.619   5.149  15.379  1.00  0.00     0.161 HD
BRANCH  15  17
HETATM   17  C4  UNL     1      14.818   3.330  16.052  1.00  0.00     0.059 C 
BRANCH  17  18
HETATM   18  C5  UNL     1      13.947   2.221  15.700  1.00  0.00     0.063 C 
BRANCH  18  19
HETATM   19  C6  UNL     1      12.730   2.004  16.600  1.00  0.00     0.123 C 
BRANCH  19  20
HETATM   20  N3  UNL     1      12.330   0.643  16.433  1.00  0.00    -0.402 N 
ATOM     21  H3  UNL     1      12.182   0.251  15.503  1.00  0.00     0.158 HD
BRANCH  20  22
HETATM   22  C7  UNL     1      12.147  -0.142  17.585  1.00  0.00     0.057 C 
BRANCH  22  23
HETATM   23  C8  UNL     1      13.513  -0.503  18.150  1.00  0.00     0.063 C 
BRANCH  23  24
HETATM   24  C9  UNL     1      14.380  -1.245  17.158  1.00  0.00     0.127 C 
BRANCH  24  25
HETATM   25  N4  UNL     1      15.718  -1.406  17.582  1.00  0.00    -0.367 N 
HETATM   26  C10 UNL     1      16.780  -0.817  17.227  1.00  0.00     0.196 C 
HETATM   27  N5  UNL     1      17.986  -1.238  17.878  1.00  0.00    -0.067 NA
HETATM   28  N6  UNL     1      16.914   0.208  16.262  1.00  0.00    -0.067 NA
ATOM     29  H4  UNL     1      15.850  -2.120  18.298  1.00  0.00     0.161 HD
ENDBRANCH  24  25
ENDBRANCH  23  24
ENDBRANCH  22  23
ENDBRANCH  20  22
ENDBRANCH  19  20
ENDBRANCH  18  19
ENDBRANCH  17  18
ENDBRANCH  15  17
ENDBRANCH   5  15
BRANCH   6  30
HETATM   30  O3  UNL     1      12.725   6.771  16.893  1.00  0.00    -0.389 OA
ATOM     31  H3  UNL     1      13.307   7.296  17.430  1.00  0.00     0.210 HD
ENDBRANCH   6  30
TORSDOF 11
ENDMDL
