MODEL 1
REMARK VINA RESULT: -6.850232954      0.000      0.000
REMARK  11 active torsions:
REMARK  status: ('A' for Active; 'I' for Inactive)
REMARK       I    between atoms: C1_4  and  N3_6 
REMARK    1  A    between atoms: N3_6  and  C2_7 
REMARK    2  A    between atoms: N3_6  and  C4_13 
REMARK    3  A    between atoms: C2_7  and  C3_8 
REMARK    4  A    between atoms: C3_8  and  N4_9 
REMARK    5  A    between atoms: C5_16  and  N6_17 
REMARK    6  A    between atoms: C6_19  and  C7_20 
REMARK    7  A    between atoms: C7_20  and  N7_21 
REMARK    8  A    between atoms: N7_21  and  C8_24 
REMARK    9  A    between atoms: C8_24  and  C9_25 
REMARK   10  A    between atoms: C9_25  and  O1_26 
REMARK   11  A    between atoms: C11_32  and  N9_33 
ROOT
HETATM    1  C4  UNL     1      13.105   4.385  15.740  1.00  0.00     0.164 A 
HETATM    2  N5  UNL     1      13.048   3.290  16.536  1.00  0.00    -0.173 N 
ATOM      3  H5  UNL     1      13.504   3.330  17.447  1.00  0.00     0.186 HD
HETATM    4  C5  UNL     1      12.409   2.132  16.179  1.00  0.00     0.686 A 
HETATM    5  N8  UNL     1      11.823   2.126  14.979  1.00  0.00    -0.154 N 
ATOM      6  H8  UNL     1      11.338   1.277  14.687  1.00  0.00     0.187 HD
HETATM    7  C10 UNL     1      11.834   3.168  14.135  1.00  0.00     0.296 A 
HETATM    8  O2  UNL     1      11.258   3.095  13.014  1.00  0.00    -0.265 OA
HETATM    9  C11 UNL     1      12.504   4.338  14.542  1.00  0.00     0.215 A 
ENDROOT
BRANCH   1  10
HETATM   10  N3  UNL     1      13.845   5.535  16.207  1.00  0.00    -0.303 N 
HETATM   11  C1  UNL     1      13.275   6.743  16.649  1.00  0.00     0.189 C 
HETATM   12  N1  UNL     1      13.055   7.808  15.978  1.00  0.00    -0.373 N 
HETATM   13  N2  UNL     1      12.871   6.842  18.042  1.00  0.00    -0.063 NA
ATOM     14  H12 UNL     1      12.642   8.684  16.299  1.00  0.00     0.158 HD
ATOM     15  H11 UNL     1      13.339   7.739  15.001  1.00  0.00     0.158 HD
BRANCH  10  16
HETATM   16  C2  UNL     1      15.298   5.273  16.255  1.00  0.00     0.160 C 
BRANCH  16  17
HETATM   17  C3  UNL     1      15.996   5.210  14.961  1.00  0.00     0.250 C 
BRANCH  17  18
HETATM   18  N4  UNL     1      15.857   6.389  14.136  1.00  0.00    -0.078 N 
ATOM     19  H43 UNL     1      14.896   6.729  14.168  1.00  0.00     0.274 HD
ATOM     20  H42 UNL     1      16.339   7.179  14.565  1.00  0.00     0.274 HD
ATOM     21  H41 UNL     1      16.159   6.274  13.169  1.00  0.00     0.274 HD
ENDBRANCH  17  18
ENDBRANCH  16  17
ENDBRANCH  10  16
ENDBRANCH   1  10
BRANCH   9  22
HETATM   22  N9  UNL     1      12.482   5.375  13.602  1.00  0.00    -0.106 N 
HETATM   23  O3  UNL     1      13.368   5.451  12.741  1.00  0.00    -0.531 OA
HETATM   24  O4  UNL     1      11.482   6.303  13.625  1.00  0.00    -0.531 OA
ENDBRANCH   9  22
BRANCH   4  25
HETATM   25  N6  UNL     1      12.445   1.184  16.936  1.00  0.00    -0.203 N 
HETATM   26  C6  UNL     1      12.997   0.082  17.496  1.00  0.00     0.106 C 
ATOM     27  H6  UNL     1      11.557   1.261  17.431  1.00  0.00     0.183 HD
BRANCH  26  28
HETATM   28  C7  UNL     1      14.477  -0.059  17.200  1.00  0.00     0.277 C 
BRANCH  28  29
HETATM   29  N7  UNL     1      14.936  -1.407  17.545  1.00  0.00    -0.069 N 
ATOM     30  H72 UNL     1      14.570  -1.733  18.440  1.00  0.00     0.277 HD
ATOM     31  H71 UNL     1      14.519  -2.129  16.958  1.00  0.00     0.277 HD
BRANCH  29  32
HETATM   32  C8  UNL     1      16.373  -1.406  17.496  1.00  0.00     0.258 C 
BRANCH  32  33
HETATM   33  C9  UNL     1      16.956  -0.061  17.153  1.00  0.00     0.191 C 
BRANCH  33  34
HETATM   34  O1  UNL     1      18.298   0.043  17.500  1.00  0.00    -0.399 OA
ATOM     35  H1  UNL     1      18.454   0.710  18.158  1.00  0.00     0.209 HD
ENDBRANCH  33  34
ENDBRANCH  32  33
ENDBRANCH  29  32
ENDBRANCH  28  29
ENDBRANCH  26  28
ENDBRANCH   4  25
TORSDOF 11
ENDMDL
MODEL 2
REMARK VINA RESULT: -6.761511151      1.913      3.308
REMARK  11 active torsions:
REMARK  status: ('A' for Active; 'I' for Inactive)
REMARK       I    between atoms: C1_4  and  N3_6 
REMARK    1  A    between atoms: N3_6  and  C2_7 
REMARK    2  A    between atoms: N3_6  and  C4_13 
REMARK    3  A    between atoms: C2_7  and  C3_8 
REMARK    4  A    between atoms: C3_8  and  N4_9 
REMARK    5  A    between atoms: C5_16  and  N6_17 
REMARK    6  A    between atoms: C6_19  and  C7_20 
REMARK    7  A    between atoms: C7_20  and  N7_21 
REMARK    8  A    between atoms: N7_21  and  C8_24 
REMARK    9  A    between atoms: C8_24  and  C9_25 
REMARK   10  A    between atoms: C9_25  and  O1_26 
REMARK   11  A    between atoms: C11_32  and  N9_33 
ROOT
HETATM    1  C4  UNL     1      13.054   3.878  14.889  1.00  0.00     0.164 A 
HETATM    2  N5  UNL     1      12.727   2.613  15.246  1.00  0.00    -0.173 N 
ATOM      3  H5  UNL     1      11.780   2.285  15.053  1.00  0.00     0.186 HD
HETATM    4  C5  UNL     1      13.601   1.750  15.852  1.00  0.00     0.686 A 
HETATM    5  N8  UNL     1      14.830   2.218  16.082  1.00  0.00    -0.154 N 
ATOM      6  H8  UNL     1      15.503   1.597  16.532  1.00  0.00     0.187 HD
HETATM    7  C10 UNL     1      15.232   3.457  15.759  1.00  0.00     0.296 A 
HETATM    8  O2  UNL     1      16.410   3.836  16.004  1.00  0.00    -0.265 OA
HETATM    9  C11 UNL     1      14.300   4.311  15.139  1.00  0.00     0.215 A 
ENDROOT
BRANCH   1  10
HETATM   10  N3  UNL     1      12.034   4.710  14.294  1.00  0.00    -0.303 N 
HETATM   11  C1  UNL     1      12.101   5.287  13.013  1.00  0.00     0.189 C 
HETATM   12  N1  UNL     1      12.508   6.453  12.688  1.00  0.00    -0.373 N 
HETATM   13  N2  UNL     1      11.659   4.491  11.879  1.00  0.00    -0.063 NA
ATOM     14  H12 UNL     1      12.557   6.871  11.759  1.00  0.00     0.158 HD
ATOM     15  H11 UNL     1      12.819   7.011  13.484  1.00  0.00     0.158 HD
BRANCH  10  16
HETATM   16  C2  UNL     1      10.843   4.826  15.160  1.00  0.00     0.160 C 
BRANCH  16  17
HETATM   17  C3  UNL     1      10.999   5.621  16.388  1.00  0.00     0.250 C 
BRANCH  17  18
HETATM   18  N4  UNL     1      11.607   6.918  16.200  1.00  0.00    -0.078 N 
ATOM     19  H43 UNL     1      11.373   7.287  15.278  1.00  0.00     0.274 HD
ATOM     20  H42 UNL     1      11.148   7.613  16.790  1.00  0.00     0.274 HD
ATOM     21  H41 UNL     1      12.617   6.945  16.344  1.00  0.00     0.274 HD
ENDBRANCH  17  18
ENDBRANCH  16  17
ENDBRANCH  10  16
ENDBRANCH   1  10
BRANCH   9  22
HETATM   22  N9  UNL     1      14.790   5.588  14.844  1.00  0.00    -0.106 N 
HETATM   23  O3  UNL     1      14.614   6.519  15.641  1.00  0.00    -0.531 OA
HETATM   24  O4  UNL     1      15.470   5.813  13.683  1.00  0.00    -0.531 OA
ENDBRANCH   9  22
BRANCH   4  25
HETATM   25  N6  UNL     1      13.208   0.648  16.177  1.00  0.00    -0.203 N 
HETATM   26  C6  UNL     1      13.283  -0.538  16.824  1.00  0.00     0.106 C 
ATOM     27  H6  UNL     1      12.319   0.574  15.683  1.00  0.00     0.183 HD
BRANCH  26  28
HETATM   28  C7  UNL     1      14.332  -0.557  17.917  1.00  0.00     0.277 C 
BRANCH  28  29
HETATM   29  N7  UNL     1      15.276  -1.655  17.695  1.00  0.00    -0.069 N 
ATOM     30  H72 UNL     1      15.473  -2.186  18.543  1.00  0.00     0.277 HD
ATOM     31  H71 UNL     1      14.874  -2.418  17.149  1.00  0.00     0.277 HD
BRANCH  29  32
HETATM   32  C8  UNL     1      16.459  -1.101  17.094  1.00  0.00     0.258 C 
BRANCH  32  33
HETATM   33  C9  UNL     1      16.925   0.168  17.757  1.00  0.00     0.191 C 
BRANCH  33  34
HETATM   34  O1  UNL     1      17.477   1.070  16.854  1.00  0.00    -0.399 OA
ATOM     35  H1  UNL     1      17.467   1.962  17.178  1.00  0.00     0.209 HD
ENDBRANCH  33  34
ENDBRANCH  32  33
ENDBRANCH  29  32
ENDBRANCH  28  29
ENDBRANCH  26  28
ENDBRANCH   4  25
TORSDOF 11
ENDMDL
MODEL 3
REMARK VINA RESULT: -6.705258658      0.874      1.897
REMARK  11 active torsions:
REMARK  status: ('A' for Active; 'I' for Inactive)
REMARK       I    between atoms: C1_4  and  N3_6 
REMARK    1  A    between atoms: N3_6  and  C2_7 
REMARK    2  A    between atoms: N3_6  and  C4_13 
REMARK    3  A    between atoms: C2_7  and  C3_8 
REMARK    4  A    between atoms: C3_8  and  N4_9 
REMARK    5  A    between atoms: C5_16  and  N6_17 
REMARK    6  A    between atoms: C6_19  and  C7_20 
REMARK    7  A    between atoms: C7_20  and  N7_21 
REMARK    8  A    between atoms: N7_21  and  C8_24 
REMARK    9  A    between atoms: C8_24  and  C9_25 
REMARK   10  A    between atoms: C9_25  and  O1_26 
REMARK   11  A    between atoms: C11_32  and  N9_33 
ROOT
HETATM    1  C4  UNL     1      13.517   4.071  15.702  1.00  0.00     0.164 A 
HETATM    2  N5  UNL     1      13.482   2.985  16.511  1.00  0.00    -0.173 N 
ATOM      3  H5  UNL     1      14.157   2.929  17.274  1.00  0.00     0.186 HD
HETATM    4  C5  UNL     1      12.588   1.959  16.359  1.00  0.00     0.686 A 
HETATM    5  N8  UNL     1      11.721   2.075  15.350  1.00  0.00    -0.154 N 
ATOM      6  H8  UNL     1      11.042   1.327  15.213  1.00  0.00     0.187 HD
HETATM    7  C10 UNL     1      11.690   3.118  14.506  1.00  0.00     0.296 A 
HETATM    8  O2  UNL     1      10.841   3.166  13.573  1.00  0.00    -0.265 OA
HETATM    9  C11 UNL     1      12.629   4.150  14.699  1.00  0.00     0.215 A 
ENDROOT
BRANCH   1  10
HETATM   10  N3  UNL     1      14.534   5.070  15.935  1.00  0.00    -0.303 N 
HETATM   11  C1  UNL     1      15.821   5.068  15.365  1.00  0.00     0.189 C 
HETATM   12  N1  UNL     1      16.904   4.600  15.855  1.00  0.00    -0.373 N 
HETATM   13  N2  UNL     1      15.990   5.666  14.051  1.00  0.00    -0.063 NA
ATOM     14  H12 UNL     1      17.836   4.598  15.442  1.00  0.00     0.158 HD
ATOM     15  H11 UNL     1      16.785   4.180  16.777  1.00  0.00     0.158 HD
BRANCH  10  16
HETATM   16  C2  UNL     1      14.041   6.169  16.788  1.00  0.00     0.160 C 
BRANCH  16  17
HETATM   17  C3  UNL     1      14.520   7.521  16.458  1.00  0.00     0.250 C 
BRANCH  17  18
HETATM   18  N4  UNL     1      14.029   8.052  15.207  1.00  0.00    -0.078 N 
ATOM     19  H43 UNL     1      14.404   8.988  15.050  1.00  0.00     0.274 HD
ATOM     20  H42 UNL     1      14.454   7.557  14.423  1.00  0.00     0.274 HD
ATOM     21  H41 UNL     1      13.013   8.058  15.112  1.00  0.00     0.274 HD
ENDBRANCH  17  18
ENDBRANCH  16  17
ENDBRANCH  10  16
ENDBRANCH   1  10
BRANCH   9  22
HETATM   22  N9  UNL     1      12.541   5.194  13.771  1.00  0.00    -0.106 N 
HETATM   23  O3  UNL     1      13.077   5.085  12.661  1.00  0.00    -0.531 OA
HETATM   24  O4  UNL     1      11.859   6.334  14.082  1.00  0.00    -0.531 OA
ENDBRANCH   9  22
BRANCH   4  25
HETATM   25  N6  UNL     1      12.658   1.003  17.104  1.00  0.00    -0.203 N 
HETATM   26  C6  UNL     1      13.231  -0.106  17.624  1.00  0.00     0.106 C 
ATOM     27  H6  UNL     1      11.796   1.080  17.644  1.00  0.00     0.183 HD
BRANCH  26  28
HETATM   28  C7  UNL     1      14.693  -0.252  17.253  1.00  0.00     0.277 C 
BRANCH  28  29
HETATM   29  N7  UNL     1      15.184  -1.578  17.636  1.00  0.00    -0.069 N 
ATOM     30  H72 UNL     1      14.845  -1.876  18.551  1.00  0.00     0.277 HD
ATOM     31  H71 UNL     1      14.766  -2.329  17.086  1.00  0.00     0.277 HD
BRANCH  29  32
HETATM   32  C8  UNL     1      16.619  -1.555  17.551  1.00  0.00     0.258 C 
BRANCH  32  33
HETATM   33  C9  UNL     1      17.159  -0.296  16.929  1.00  0.00     0.191 C 
BRANCH  33  34
HETATM   34  O1  UNL     1      18.333   0.139  17.535  1.00  0.00    -0.399 OA
ATOM     35  H1  UNL     1      19.110  -0.218  17.122  1.00  0.00     0.209 HD
ENDBRANCH  33  34
ENDBRANCH  32  33
ENDBRANCH  29  32
ENDBRANCH  28  29
ENDBRANCH  26  28
ENDBRANCH   4  25
TORSDOF 11
ENDMDL
MODEL 4
REMARK VINA RESULT: -6.698417541      2.619      6.284
REMARK  11 active torsions:
REMARK  status: ('A' for Active; 'I' for Inactive)
REMARK       I    between atoms: C1_4  and  N3_6 
REMARK    1  A    between atoms: N3_6  and  C2_7 
REMARK    2  A    between atoms: N3_6  and  C4_13 
REMARK    3  A    between atoms: C2_7  and  C3_8 
REMARK    4  A    between atoms: C3_8  and  N4_9 
REMARK    5  A    between atoms: C5_16  and  N6_17 
REMARK    6  A    between atoms: C6_19  and  C7_20 
REMARK    7  A    between atoms: C7_20  and  N7_21 
REMARK    8  A    between atoms: N7_21  and  C8_24 
REMARK    9  A    between atoms: C8_24  and  C9_25 
REMARK   10  A    between atoms: C9_25  and  O1_26 
REMARK   11  A    between atoms: C11_32  and  N9_33 
ROOT
HETATM    1  C4  UNL     1      14.310   1.591  16.639  1.00  0.00     0.164 A 
HETATM    2  N5  UNL     1      13.714   2.764  16.316  1.00  0.00    -0.173 N 
ATOM      3  H5  UNL     1      14.302   3.533  15.995  1.00  0.00     0.186 HD
HETATM    4  C5  UNL     1      12.363   2.970  16.400  1.00  0.00     0.686 A 
HETATM    5  N8  UNL     1      11.631   1.936  16.823  1.00  0.00    -0.154 N 
ATOM      6  H8  UNL     1      10.621   2.060  16.893  1.00  0.00     0.187 HD
HETATM    7  C10 UNL     1      12.146   0.743  17.159  1.00  0.00     0.296 A 
HETATM    8  O2  UNL     1      11.396  -0.194  17.550  1.00  0.00    -0.265 OA
HETATM    9  C11 UNL     1      13.540   0.576  17.060  1.00  0.00     0.215 A 
ENDROOT
BRANCH   1  10
HETATM   10  N3  UNL     1      15.750   1.505  16.551  1.00  0.00    -0.303 N 
HETATM   11  C1  UNL     1      16.549   2.187  15.615  1.00  0.00     0.189 C 
HETATM   12  N1  UNL     1      16.975   1.772  14.484  1.00  0.00    -0.373 N 
HETATM   13  N2  UNL     1      16.971   3.541  15.932  1.00  0.00    -0.063 NA
ATOM     14  H12 UNL     1      17.554   2.267  13.806  1.00  0.00     0.158 HD
ATOM     15  H11 UNL     1      16.678   0.822  14.262  1.00  0.00     0.158 HD
BRANCH  10  16
HETATM   16  C2  UNL     1      16.319   0.671  17.629  1.00  0.00     0.160 C 
BRANCH  16  17
HETATM   17  C3  UNL     1      17.406  -0.244  17.246  1.00  0.00     0.250 C 
BRANCH  17  18
HETATM   18  N4  UNL     1      17.062  -1.647  17.288  1.00  0.00    -0.078 N 
ATOM     19  H43 UNL     1      16.506  -1.850  18.118  1.00  0.00     0.274 HD
ATOM     20  H42 UNL     1      16.380  -1.866  16.560  1.00  0.00     0.274 HD
ATOM     21  H41 UNL     1      17.856  -2.286  17.230  1.00  0.00     0.274 HD
ENDBRANCH  17  18
ENDBRANCH  16  17
ENDBRANCH  10  16
ENDBRANCH   1  10
BRANCH   9  22
HETATM   22  N9  UNL     1      14.000  -0.691  17.441  1.00  0.00    -0.106 N 
HETATM   23  O3  UNL     1      14.240  -0.931  18.630  1.00  0.00    -0.531 OA
HETATM   24  O4  UNL     1      14.181  -1.667  16.505  1.00  0.00    -0.531 OA
ENDBRANCH   9  22
BRANCH   4  25
HETATM   25  N6  UNL     1      11.918   4.068  16.133  1.00  0.00    -0.203 N 
HETATM   26  C6  UNL     1      11.824   5.211  15.416  1.00  0.00     0.106 C 
ATOM     27  H6  UNL     1      11.221   4.208  16.864  1.00  0.00     0.183 HD
BRANCH  26  28
HETATM   28  C7  UNL     1      12.497   5.121  14.060  1.00  0.00     0.277 C 
BRANCH  28  29
HETATM   29  N7  UNL     1      11.522   4.739  13.036  1.00  0.00    -0.069 N 
ATOM     30  H72 UNL     1      10.557   4.876  13.337  1.00  0.00     0.277 HD
ATOM     31  H71 UNL     1      11.508   5.382  12.243  1.00  0.00     0.277 HD
BRANCH  29  32
HETATM   32  C8  UNL     1      11.800   3.382  12.650  1.00  0.00     0.258 C 
BRANCH  32  33
HETATM   33  C9  UNL     1      11.611   3.131  11.177  1.00  0.00     0.191 C 
BRANCH  33  34
HETATM   34  O1  UNL     1      12.797   2.786  10.539  1.00  0.00    -0.399 OA
ATOM     35  H1  UNL     1      12.800   1.886  10.237  1.00  0.00     0.209 HD
ENDBRANCH  33  34
ENDBRANCH  32  33
ENDBRANCH  29  32
ENDBRANCH  28  29
ENDBRANCH  26  28
ENDBRANCH   4  25
TORSDOF 11
ENDMDL
MODEL 5
REMARK VINA RESULT: -6.664882586      2.266      3.028
REMARK  11 active torsions:
REMARK  status: ('A' for Active; 'I' for Inactive)
REMARK       I    between atoms: C1_4  and  N3_6 
REMARK    1  A    between atoms: N3_6  and  C2_7 
REMARK    2  A    between atoms: N3_6  and  C4_13 
REMARK    3  A    between atoms: C2_7  and  C3_8 
REMARK    4  A    between atoms: C3_8  and  N4_9 
REMARK    5  A    between atoms: C5_16  and  N6_17 
REMARK    6  A    between atoms: C6_19  and  C7_20 
REMARK    7  A    between atoms: C7_20  and  N7_21 
REMARK    8  A    between atoms: N7_21  and  C8_24 
REMARK    9  A    between atoms: C8_24  and  C9_25 
REMARK   10  A    between atoms: C9_25  and  O1_26 
REMARK   11  A    between atoms: C11_32  and  N9_33 
ROOT
HETATM    1  C4  UNL     1      11.299   5.447  14.528  1.00  0.00     0.164 A 
HETATM    2  N5  UNL     1      11.412   4.341  15.302  1.00  0.00    -0.173 N 
ATOM      3  H5  UNL     1      11.211   4.425  16.299  1.00  0.00     0.186 HD
HETATM    4  C5  UNL     1      11.784   3.116  14.816  1.00  0.00     0.686 A 
HETATM    5  N8  UNL     1      12.035   3.050  13.507  1.00  0.00    -0.154 N 
ATOM      6  H8  UNL     1      12.313   2.150  13.116  1.00  0.00     0.187 HD
HETATM    7  C10 UNL     1      11.945   4.098  12.674  1.00  0.00     0.296 A 
HETATM    8  O2  UNL     1      12.195   3.967  11.444  1.00  0.00    -0.265 OA
HETATM    9  C11 UNL     1      11.561   5.340  13.217  1.00  0.00     0.215 A 
ENDROOT
BRANCH   1  10
HETATM   10  N3  UNL     1      10.940   6.695  15.161  1.00  0.00    -0.303 N 
HETATM   11  C1  UNL     1       9.689   7.330  15.055  1.00  0.00     0.189 C 
HETATM   12  N1  UNL     1       9.330   8.242  14.236  1.00  0.00    -0.373 N 
HETATM   13  N2  UNL     1       8.638   6.932  15.976  1.00  0.00    -0.063 NA
ATOM     14  H12 UNL     1       8.424   8.702  14.159  1.00  0.00     0.158 HD
ATOM     15  H11 UNL     1      10.069   8.521  13.589  1.00  0.00     0.158 HD
BRANCH  10  16
HETATM   16  C2  UNL     1      12.024   7.206  16.025  1.00  0.00     0.160 C 
BRANCH  16  17
HETATM   17  C3  UNL     1      11.664   7.507  17.420  1.00  0.00     0.250 C 
BRANCH  17  18
HETATM   18  N4  UNL     1      11.100   6.398  18.156  1.00  0.00    -0.078 N 
ATOM     19  H43 UNL     1      10.971   6.654  19.135  1.00  0.00     0.274 HD
ATOM     20  H42 UNL     1      10.128   6.251  17.882  1.00  0.00     0.274 HD
ATOM     21  H41 UNL     1      11.623   5.525  18.085  1.00  0.00     0.274 HD
ENDBRANCH  17  18
ENDBRANCH  16  17
ENDBRANCH  10  16
ENDBRANCH   1  10
BRANCH   9  22
HETATM   22  N9  UNL     1      11.502   6.385  12.288  1.00  0.00    -0.106 N 
HETATM   23  O3  UNL     1      10.451   6.613  11.676  1.00  0.00    -0.531 OA
HETATM   24  O4  UNL     1      12.600   7.162  12.056  1.00  0.00    -0.531 OA
ENDBRANCH   9  22
BRANCH   4  25
HETATM   25  N6  UNL     1      11.903   2.188  15.591  1.00  0.00    -0.203 N 
HETATM   26  C6  UNL     1      12.592   1.286  16.326  1.00  0.00     0.106 C 
ATOM     27  H6  UNL     1      10.934   1.958  15.812  1.00  0.00     0.183 HD
BRANCH  26  28
HETATM   28  C7  UNL     1      14.062   1.628  16.464  1.00  0.00     0.277 C 
BRANCH  28  29
HETATM   29  N7  UNL     1      14.819   0.450  16.894  1.00  0.00    -0.069 N 
ATOM     30  H72 UNL     1      14.478   0.060  17.773  1.00  0.00     0.277 HD
ATOM     31  H71 UNL     1      14.647  -0.367  16.308  1.00  0.00     0.277 HD
BRANCH  29  32
HETATM   32  C8  UNL     1      16.209   0.817  16.947  1.00  0.00     0.258 C 
BRANCH  32  33
HETATM   33  C9  UNL     1      17.107  -0.312  17.377  1.00  0.00     0.191 C 
BRANCH  33  34
HETATM   34  O1  UNL     1      17.125  -1.358  16.462  1.00  0.00    -0.399 OA
ATOM     35  H1  UNL     1      17.703  -2.064  16.727  1.00  0.00     0.209 HD
ENDBRANCH  33  34
ENDBRANCH  32  33
ENDBRANCH  29  32
ENDBRANCH  28  29
ENDBRANCH  26  28
ENDBRANCH   4  25
TORSDOF 11
ENDMDL
