MODEL 1
REMARK VINA RESULT: -8.658980992      0.000      0.000
REMARK  5 active torsions:
REMARK  status: ('A' for Active; 'I' for Inactive)
REMARK    1  A    between atoms: N3_4  and  C2_6 
REMARK    2  A    between atoms: N4_7  and  S1_9 
REMARK    3  A    between atoms: S1_9  and  C3_12 
REMARK    4  A    between atoms: C3_12  and  C4_13 
REMARK    5  A    between atoms: C4_13  and  C5_14 
ROOT
HETATM    1  C4  UNL     1     -17.685  54.803  49.156  1.00  0.00     0.051 C 
ENDROOT
BRANCH   1   2
HETATM    2  C3  UNL     1     -19.076  55.241  49.197  1.00  0.00     0.166 C 
BRANCH   2   3
HETATM    3  S1  UNL     1     -19.526  56.888  48.903  1.00  0.00     0.231 S 
HETATM    4  O1  UNL     1     -19.682  57.724  50.138  1.00  0.00    -0.206 OA
HETATM    5  O2  UNL     1     -20.680  57.060  47.950  1.00  0.00    -0.206 OA
BRANCH   3   6
HETATM    6  N4  UNL     1     -18.177  57.605  47.993  1.00  0.00    -0.281 N 
HETATM    7  C2  UNL     1     -17.474  58.518  48.573  1.00  0.00     0.193 C 
ATOM      8  H4  UNL     1     -17.965  57.303  47.043  1.00  0.00     0.179 HD
BRANCH   7   9
HETATM    9  N3  UNL     1     -16.386  59.120  47.887  1.00  0.00    -0.329 N 
HETATM   10  C1  UNL     1     -16.570  60.181  47.171  1.00  0.00     0.201 C 
HETATM   11  N1  UNL     1     -17.861  60.749  47.069  1.00  0.00    -0.066 NA
HETATM   12  N2  UNL     1     -15.482  60.768  46.494  1.00  0.00    -0.066 NA
ATOM     13  H3  UNL     1     -15.453  58.714  47.960  1.00  0.00     0.168 HD
ENDBRANCH   7   9
ENDBRANCH   3   6
ENDBRANCH   2   3
ENDBRANCH   1   2
BRANCH   1  14
HETATM   14  C5  UNL     1     -16.934  54.387  50.355  1.00  0.00     0.179 C 
HETATM   15  N5  UNL     1     -17.159  55.142  51.549  1.00  0.00    -0.330 N 
HETATM   16  C6  UNL     1     -16.796  56.530  51.712  1.00  0.00     0.321 C 
ATOM     17  H5  UNL     1     -17.604  54.670  52.335  1.00  0.00     0.165 HD
HETATM   18  O3  UNL     1     -17.545  57.202  52.490  1.00  0.00    -0.247 OA
HETATM   19  N6  UNL     1     -15.704  57.184  51.094  1.00  0.00    -0.305 N 
HETATM   20  C7  UNL     1     -14.629  56.700  50.281  1.00  0.00     0.187 C 
ATOM     21  H6  UNL     1     -15.678  58.190  51.259  1.00  0.00     0.171 HD
HETATM   22  N7  UNL     1     -14.472  55.282  50.254  1.00  0.00    -0.321 N 
HETATM   23  C8  UNL     1     -15.471  54.313  50.038  1.00  0.00     0.245 C 
ATOM     24  H7  UNL     1     -13.528  54.929  50.409  1.00  0.00     0.169 HD
HETATM   25  O4  UNL     1     -15.114  53.239  49.515  1.00  0.00    -0.271 OA
ENDBRANCH   1  14
TORSDOF 5
ENDMDL
MODEL 2
REMARK VINA RESULT: -7.432587574      1.421      1.761
REMARK  5 active torsions:
REMARK  status: ('A' for Active; 'I' for Inactive)
REMARK    1  A    between atoms: N3_4  and  C2_6 
REMARK    2  A    between atoms: N4_7  and  S1_9 
REMARK    3  A    between atoms: S1_9  and  C3_12 
REMARK    4  A    between atoms: C3_12  and  C4_13 
REMARK    5  A    between atoms: C4_13  and  C5_14 
ROOT
HETATM    1  C4  UNL     1     -18.218  55.131  49.771  1.00  0.00     0.051 C 
ENDROOT
BRANCH   1   2
HETATM    2  C3  UNL     1     -19.591  55.600  49.617  1.00  0.00     0.166 C 
BRANCH   2   3
HETATM    3  S1  UNL     1     -19.955  57.178  48.999  1.00  0.00     0.231 S 
HETATM    4  O1  UNL     1     -20.214  58.216  50.049  1.00  0.00    -0.206 OA
HETATM    5  O2  UNL     1     -20.998  57.197  47.911  1.00  0.00    -0.206 OA
BRANCH   3   6
HETATM    6  N4  UNL     1     -18.497  57.708  48.132  1.00  0.00    -0.281 N 
HETATM    7  C2  UNL     1     -17.759  58.610  48.685  1.00  0.00     0.193 C 
ATOM      8  H4  UNL     1     -18.251  57.311  47.226  1.00  0.00     0.179 HD
BRANCH   7   9
HETATM    9  N3  UNL     1     -16.584  59.066  48.032  1.00  0.00    -0.329 N 
HETATM   10  C1  UNL     1     -16.629  60.090  47.244  1.00  0.00     0.201 C 
HETATM   11  N1  UNL     1     -17.853  60.764  47.029  1.00  0.00    -0.066 NA
HETATM   12  N2  UNL     1     -15.454  60.531  46.600  1.00  0.00    -0.066 NA
ATOM     13  H3  UNL     1     -15.698  58.583  48.185  1.00  0.00     0.168 HD
ENDBRANCH   7   9
ENDBRANCH   3   6
ENDBRANCH   2   3
ENDBRANCH   1   2
BRANCH   1  14
HETATM   14  C5  UNL     1     -17.463  55.246  51.032  1.00  0.00     0.179 C 
HETATM   15  N5  UNL     1     -16.470  56.273  51.096  1.00  0.00    -0.330 N 
HETATM   16  C6  UNL     1     -15.272  56.294  50.290  1.00  0.00     0.321 C 
ATOM     17  H5  UNL     1     -16.617  57.039  51.752  1.00  0.00     0.165 HD
HETATM   18  O3  UNL     1     -14.834  57.451  49.994  1.00  0.00    -0.247 OA
HETATM   19  N6  UNL     1     -14.565  55.163  49.817  1.00  0.00    -0.305 N 
HETATM   20  C7  UNL     1     -14.719  53.761  50.064  1.00  0.00     0.187 C 
ATOM     21  H6  UNL     1     -13.802  55.389  49.180  1.00  0.00     0.171 HD
HETATM   22  N7  UNL     1     -15.584  53.422  51.148  1.00  0.00    -0.321 N 
HETATM   23  C8  UNL     1     -16.879  53.915  51.398  1.00  0.00     0.245 C 
ATOM     24  H7  UNL     1     -15.222  52.744  51.819  1.00  0.00     0.169 HD
HETATM   25  O4  UNL     1     -17.665  53.161  52.006  1.00  0.00    -0.271 OA
ENDBRANCH   1  14
TORSDOF 5
ENDMDL
MODEL 3
REMARK VINA RESULT: -7.388603154      2.341      3.943
REMARK  5 active torsions:
REMARK  status: ('A' for Active; 'I' for Inactive)
REMARK    1  A    between atoms: N3_4  and  C2_6 
REMARK    2  A    between atoms: N4_7  and  S1_9 
REMARK    3  A    between atoms: S1_9  and  C3_12 
REMARK    4  A    between atoms: C3_12  and  C4_13 
REMARK    5  A    between atoms: C4_13  and  C5_14 
ROOT
HETATM    1  C4  UNL     1     -18.011  56.105  48.198  1.00  0.00     0.051 C 
ENDROOT
BRANCH   1   2
HETATM    2  C3  UNL     1     -17.847  57.273  47.340  1.00  0.00     0.166 C 
BRANCH   2   3
HETATM    3  S1  UNL     1     -17.258  58.783  47.952  1.00  0.00     0.231 S 
HETATM    4  O1  UNL     1     -17.840  59.193  49.272  1.00  0.00    -0.206 OA
HETATM    5  O2  UNL     1     -17.270  59.910  46.952  1.00  0.00    -0.206 OA
BRANCH   3   6
HETATM    6  N4  UNL     1     -15.519  58.548  48.234  1.00  0.00    -0.281 N 
HETATM    7  C2  UNL     1     -15.162  57.821  49.238  1.00  0.00     0.193 C 
ATOM      8  H4  UNL     1     -14.825  58.975  47.621  1.00  0.00     0.179 HD
BRANCH   7   9
HETATM    9  N3  UNL     1     -13.784  57.604  49.504  1.00  0.00    -0.329 N 
HETATM   10  C1  UNL     1     -13.388  56.497  50.042  1.00  0.00     0.201 C 
HETATM   11  N1  UNL     1     -14.329  55.493  50.369  1.00  0.00    -0.066 NA
HETATM   12  N2  UNL     1     -12.017  56.295  50.303  1.00  0.00    -0.066 NA
ATOM     13  H3  UNL     1     -13.102  58.325  49.268  1.00  0.00     0.168 HD
ENDBRANCH   7   9
ENDBRANCH   3   6
ENDBRANCH   2   3
ENDBRANCH   1   2
BRANCH   1  14
HETATM   14  C5  UNL     1     -18.965  56.056  49.321  1.00  0.00     0.179 C 
HETATM   15  N5  UNL     1     -18.555  56.678  50.542  1.00  0.00    -0.330 N 
HETATM   16  C6  UNL     1     -17.457  56.215  51.358  1.00  0.00     0.321 C 
ATOM     17  H5  UNL     1     -19.070  57.499  50.856  1.00  0.00     0.165 HD
HETATM   18  O3  UNL     1     -16.838  57.121  52.004  1.00  0.00    -0.247 OA
HETATM   19  N6  UNL     1     -17.026  54.875  51.494  1.00  0.00    -0.305 N 
HETATM   20  C7  UNL     1     -17.565  53.639  51.013  1.00  0.00     0.187 C 
ATOM     21  H6  UNL     1     -16.170  54.769  52.038  1.00  0.00     0.171 HD
HETATM   22  N7  UNL     1     -18.891  53.711  50.490  1.00  0.00    -0.321 N 
HETATM   23  C8  UNL     1     -19.396  54.641  49.561  1.00  0.00     0.245 C 
ATOM     24  H7  UNL     1     -19.548  53.009  50.828  1.00  0.00     0.169 HD
HETATM   25  O4  UNL     1     -20.330  54.259  48.828  1.00  0.00    -0.271 OA
ENDBRANCH   1  14
TORSDOF 5
ENDMDL
MODEL 4
REMARK VINA RESULT: -7.268027434      2.708      4.798
REMARK  5 active torsions:
REMARK  status: ('A' for Active; 'I' for Inactive)
REMARK    1  A    between atoms: N3_4  and  C2_6 
REMARK    2  A    between atoms: N4_7  and  S1_9 
REMARK    3  A    between atoms: S1_9  and  C3_12 
REMARK    4  A    between atoms: C3_12  and  C4_13 
REMARK    5  A    between atoms: C4_13  and  C5_14 
ROOT
HETATM    1  C4  UNL     1     -19.304  57.757  49.937  1.00  0.00     0.051 C 
ENDROOT
BRANCH   1   2
HETATM    2  C3  UNL     1     -17.943  57.834  50.453  1.00  0.00     0.166 C 
BRANCH   2   3
HETATM    3  S1  UNL     1     -17.390  56.808  51.736  1.00  0.00     0.231 S 
HETATM    4  O1  UNL     1     -17.930  55.410  51.696  1.00  0.00    -0.206 OA
HETATM    5  O2  UNL     1     -17.492  57.418  53.111  1.00  0.00    -0.206 OA
BRANCH   3   6
HETATM    6  N4  UNL     1     -15.632  56.662  51.518  1.00  0.00    -0.281 N 
HETATM    7  C2  UNL     1     -15.181  55.607  50.930  1.00  0.00     0.193 C 
ATOM      8  H4  UNL     1     -15.000  57.391  51.848  1.00  0.00     0.179 HD
BRANCH   7   9
HETATM    9  N3  UNL     1     -13.785  55.445  50.732  1.00  0.00    -0.329 N 
HETATM   10  C1  UNL     1     -13.089  56.382  50.176  1.00  0.00     0.201 C 
HETATM   11  N1  UNL     1     -13.719  57.578  49.760  1.00  0.00    -0.066 NA
HETATM   12  N2  UNL     1     -11.703  56.207  49.984  1.00  0.00    -0.066 NA
ATOM     13  H3  UNL     1     -13.327  54.584  51.032  1.00  0.00     0.168 HD
ENDBRANCH   7   9
ENDBRANCH   3   6
ENDBRANCH   2   3
ENDBRANCH   1   2
BRANCH   1  14
HETATM   14  C5  UNL     1     -19.640  57.163  48.629  1.00  0.00     0.179 C 
HETATM   15  N5  UNL     1     -20.312  55.901  48.649  1.00  0.00    -0.330 N 
HETATM   16  C6  UNL     1     -19.722  54.677  49.136  1.00  0.00     0.321 C 
ATOM     17  H5  UNL     1     -21.267  55.863  48.296  1.00  0.00     0.165 HD
HETATM   18  O3  UNL     1     -20.537  53.847  49.653  1.00  0.00    -0.247 OA
HETATM   19  N6  UNL     1     -18.350  54.334  49.087  1.00  0.00    -0.305 N 
HETATM   20  C7  UNL     1     -17.221  54.973  48.481  1.00  0.00     0.187 C 
ATOM     21  H6  UNL     1     -18.122  53.468  49.575  1.00  0.00     0.171 HD
HETATM   22  N7  UNL     1     -17.531  56.026  47.567  1.00  0.00    -0.321 N 
HETATM   23  C8  UNL     1     -18.414  57.103  47.769  1.00  0.00     0.245 C 
ATOM     24  H7  UNL     1     -17.059  55.993  46.664  1.00  0.00     0.169 HD
HETATM   25  O4  UNL     1     -18.165  58.162  47.158  1.00  0.00    -0.271 OA
ENDBRANCH   1  14
TORSDOF 5
ENDMDL
MODEL 5
REMARK VINA RESULT: -7.034490170      2.399      3.392
REMARK  5 active torsions:
REMARK  status: ('A' for Active; 'I' for Inactive)
REMARK    1  A    between atoms: N3_4  and  C2_6 
REMARK    2  A    between atoms: N4_7  and  S1_9 
REMARK    3  A    between atoms: S1_9  and  C3_12 
REMARK    4  A    between atoms: C3_12  and  C4_13 
REMARK    5  A    between atoms: C4_13  and  C5_14 
ROOT
HETATM    1  C4  UNL     1     -18.344  56.041  50.274  1.00  0.00     0.051 C 
ENDROOT
BRANCH   1   2
HETATM    2  C3  UNL     1     -18.910  57.142  49.503  1.00  0.00     0.166 C 
BRANCH   2   3
HETATM    3  S1  UNL     1     -18.017  57.932  48.245  1.00  0.00     0.231 S 
HETATM    4  O1  UNL     1     -17.999  59.429  48.335  1.00  0.00    -0.206 OA
HETATM    5  O2  UNL     1     -18.339  57.450  46.854  1.00  0.00    -0.206 OA
BRANCH   3   6
HETATM    6  N4  UNL     1     -16.330  57.408  48.444  1.00  0.00    -0.281 N 
HETATM    7  C2  UNL     1     -15.497  58.239  48.973  1.00  0.00     0.193 C 
ATOM      8  H4  UNL     1     -16.031  56.479  48.149  1.00  0.00     0.179 HD
BRANCH   7   9
HETATM    9  N3  UNL     1     -14.139  57.866  49.153  1.00  0.00    -0.329 N 
HETATM   10  C1  UNL     1     -13.812  57.000  50.055  1.00  0.00     0.201 C 
HETATM   11  N1  UNL     1     -14.810  56.417  50.870  1.00  0.00    -0.066 NA
HETATM   12  N2  UNL     1     -12.459  56.640  50.225  1.00  0.00    -0.066 NA
ATOM     13  H3  UNL     1     -13.417  58.284  48.566  1.00  0.00     0.168 HD
ENDBRANCH   7   9
ENDBRANCH   3   6
ENDBRANCH   2   3
ENDBRANCH   1   2
BRANCH   1  14
HETATM   14  C5  UNL     1     -18.385  54.637  49.826  1.00  0.00     0.179 C 
HETATM   15  N5  UNL     1     -18.556  53.642  50.839  1.00  0.00    -0.330 N 
HETATM   16  C6  UNL     1     -17.586  53.362  51.872  1.00  0.00     0.321 C 
ATOM     17  H5  UNL     1     -19.417  53.097  50.832  1.00  0.00     0.165 HD
HETATM   18  O3  UNL     1     -18.068  52.959  52.978  1.00  0.00    -0.247 OA
HETATM   19  N6  UNL     1     -16.182  53.496  51.756  1.00  0.00    -0.305 N 
HETATM   20  C7  UNL     1     -15.334  53.802  50.643  1.00  0.00     0.187 C 
ATOM     21  H6  UNL     1     -15.679  53.345  52.630  1.00  0.00     0.171 HD
HETATM   22  N7  UNL     1     -15.963  53.748  49.362  1.00  0.00    -0.321 N 
HETATM   23  C8  UNL     1     -17.183  54.337  48.981  1.00  0.00     0.245 C 
ATOM     24  H7  UNL     1     -15.471  53.222  48.640  1.00  0.00     0.169 HD
HETATM   25  O4  UNL     1     -17.306  54.661  47.783  1.00  0.00    -0.271 OA
ENDBRANCH   1  14
TORSDOF 5
ENDMDL
