MODEL 1
REMARK VINA RESULT: -5.592940316      0.000      0.000
REMARK  7 active torsions:
REMARK  status: ('A' for Active; 'I' for Inactive)
REMARK    1  A    between atoms: C3_3  and  N1_4 
REMARK    2  A    between atoms: C3_3  and  C4_8 
REMARK       I    between atoms: C4_8  and  N2_10 
REMARK    3  A    between atoms: N2_10  and  C5_12 
REMARK    4  A    between atoms: C5_12  and  C6_13 
REMARK    5  A    between atoms: C5_12  and  C12_24 
REMARK       I    between atoms: C6_13  and  N3_15 
REMARK    6  A    between atoms: N3_15  and  C7_17 
REMARK    7  A    between atoms: C12_24  and  C13_26 
ROOT
HETATM    1  C1  UNL     1     -13.134  57.186  49.999  1.00  0.00     0.015 C 
HETATM    2  C2  UNL     1     -13.973  56.395  50.346  1.00  0.00    -0.075 C 
HETATM    3  C3  UNL     1     -14.973  55.395  50.759  1.00  0.00     0.352 C 
ENDROOT
BRANCH   3   4
HETATM    4  N1  UNL     1     -14.996  54.368  49.720  1.00  0.00    -0.056 N 
ATOM      5  H13 UNL     1     -15.362  53.474  50.046  1.00  0.00     0.276 HD
ATOM      6  H12 UNL     1     -15.699  54.540  49.002  1.00  0.00     0.276 HD
ATOM      7  H11 UNL     1     -14.049  54.304  49.348  1.00  0.00     0.276 HD
ENDBRANCH   3   4
BRANCH   3   8
HETATM    8  C4  UNL     1     -16.317  55.998  50.926  1.00  0.00     0.261 C 
HETATM    9  O1  UNL     1     -16.590  56.692  51.949  1.00  0.00    -0.270 OA
HETATM   10  N2  UNL     1     -17.307  55.806  49.941  1.00  0.00    -0.339 N 
ATOM     11  H2  UNL     1     -17.091  55.249  49.114  1.00  0.00     0.163 HD
BRANCH  10  12
HETATM   12  C5  UNL     1     -18.628  56.390  50.086  1.00  0.00     0.257 C 
BRANCH  12  13
HETATM   13  C6  UNL     1     -18.591  57.774  49.529  1.00  0.00     0.253 C 
HETATM   14  O2  UNL     1     -18.877  58.707  50.344  1.00  0.00    -0.270 OA
HETATM   15  N3  UNL     1     -18.267  58.103  48.207  1.00  0.00    -0.325 N 
ATOM     16  H3  UNL     1     -18.830  57.669  47.476  1.00  0.00     0.169 HD
BRANCH  15  17
HETATM   17  C7  UNL     1     -17.335  58.894  47.823  1.00  0.00     0.037 A 
HETATM   18  C8  UNL     1     -16.008  58.530  47.971  1.00  0.00     0.046 A 
HETATM   19  C9  UNL     1     -14.989  59.358  47.563  1.00  0.00     0.090 A 
HETATM   20  N4  UNL     1     -15.307  60.556  47.004  1.00  0.00    -0.375 N 
HETATM   21  C10 UNL     1     -16.584  60.957  46.838  1.00  0.00     0.090 A 
ATOM     22  H4  UNL     1     -14.553  61.174  46.701  1.00  0.00     0.164 HD
HETATM   23  C11 UNL     1     -17.600  60.128  47.245  1.00  0.00     0.046 A 
ENDBRANCH  15  17
ENDBRANCH  12  13
BRANCH  12  24
HETATM   24  C12 UNL     1     -19.648  55.522  49.509  1.00  0.00     0.245 C 
HETATM   25  O3  UNL     1     -20.730  56.039  49.053  1.00  0.00    -0.285 OA
BRANCH  24  26
HETATM   26  C13 UNL     1     -19.544  54.084  49.395  1.00  0.00     0.303 C 
HETATM   27  N5  UNL     1     -20.197  53.205  50.297  1.00  0.00    -0.054 NA
HETATM   28  O4  UNL     1     -18.862  53.575  48.485  1.00  0.00    -0.268 OA
ENDBRANCH  24  26
ENDBRANCH  12  24
ENDBRANCH  10  12
ENDBRANCH   3   8
TORSDOF 7
ENDMDL
MODEL 2
REMARK VINA RESULT: -5.498222929      0.030      1.011
REMARK  7 active torsions:
REMARK  status: ('A' for Active; 'I' for Inactive)
REMARK    1  A    between atoms: C3_3  and  N1_4 
REMARK    2  A    between atoms: C3_3  and  C4_8 
REMARK       I    between atoms: C4_8  and  N2_10 
REMARK    3  A    between atoms: N2_10  and  C5_12 
REMARK    4  A    between atoms: C5_12  and  C6_13 
REMARK    5  A    between atoms: C5_12  and  C12_24 
REMARK       I    between atoms: C6_13  and  N3_15 
REMARK    6  A    between atoms: N3_15  and  C7_17 
REMARK    7  A    between atoms: C12_24  and  C13_26 
ROOT
HETATM    1  C1  UNL     1     -13.113  57.157  50.006  1.00  0.00     0.015 C 
HETATM    2  C2  UNL     1     -13.962  56.376  50.352  1.00  0.00    -0.075 C 
HETATM    3  C3  UNL     1     -14.974  55.388  50.764  1.00  0.00     0.352 C 
ENDROOT
BRANCH   3   4
HETATM    4  N1  UNL     1     -15.003  54.358  49.729  1.00  0.00    -0.056 N 
ATOM      5  H13 UNL     1     -14.075  54.081  49.411  1.00  0.00     0.276 HD
ATOM      6  H12 UNL     1     -15.296  53.446  50.079  1.00  0.00     0.276 HD
ATOM      7  H11 UNL     1     -15.597  54.710  48.979  1.00  0.00     0.276 HD
ENDBRANCH   3   4
BRANCH   3   8
HETATM    8  C4  UNL     1     -16.313  56.007  50.921  1.00  0.00     0.261 C 
HETATM    9  O1  UNL     1     -16.574  56.732  51.925  1.00  0.00    -0.270 OA
HETATM   10  N2  UNL     1     -17.311  55.792  49.949  1.00  0.00    -0.339 N 
ATOM     11  H2  UNL     1     -17.104  55.209  49.138  1.00  0.00     0.163 HD
BRANCH  10  12
HETATM   12  C5  UNL     1     -18.627  56.390  50.085  1.00  0.00     0.257 C 
BRANCH  12  13
HETATM   13  C6  UNL     1     -18.575  57.769  49.516  1.00  0.00     0.253 C 
HETATM   14  O2  UNL     1     -18.860  58.712  50.320  1.00  0.00    -0.270 OA
HETATM   15  N3  UNL     1     -18.238  58.083  48.194  1.00  0.00    -0.325 N 
ATOM     16  H3  UNL     1     -18.800  57.647  47.463  1.00  0.00     0.169 HD
BRANCH  15  17
HETATM   17  C7  UNL     1     -17.298  58.863  47.810  1.00  0.00     0.037 A 
HETATM   18  C8  UNL     1     -17.598  60.089  47.241  1.00  0.00     0.046 A 
HETATM   19  C9  UNL     1     -16.607  60.946  46.825  1.00  0.00     0.090 A 
HETATM   20  N4  UNL     1     -15.310  60.570  46.981  1.00  0.00    -0.375 N 
HETATM   21  C10 UNL     1     -14.965  59.387  47.530  1.00  0.00     0.090 A 
ATOM     22  H4  UNL     1     -14.572  61.203  46.672  1.00  0.00     0.164 HD
HETATM   23  C11 UNL     1     -15.956  58.532  47.946  1.00  0.00     0.046 A 
ENDBRANCH  15  17
ENDBRANCH  12  13
BRANCH  12  24
HETATM   24  C12 UNL     1     -19.653  55.527  49.513  1.00  0.00     0.245 C 
HETATM   25  O3  UNL     1     -20.736  56.049  49.064  1.00  0.00    -0.285 OA
BRANCH  24  26
HETATM   26  C13 UNL     1     -19.556  54.089  49.398  1.00  0.00     0.303 C 
HETATM   27  N5  UNL     1     -20.212  53.212  50.299  1.00  0.00    -0.054 NA
HETATM   28  O4  UNL     1     -18.877  53.578  48.486  1.00  0.00    -0.268 OA
ENDBRANCH  24  26
ENDBRANCH  12  24
ENDBRANCH  10  12
ENDBRANCH   3   8
TORSDOF 7
ENDMDL
MODEL 3
REMARK VINA RESULT: -5.273438384      0.957      1.383
REMARK  7 active torsions:
REMARK  status: ('A' for Active; 'I' for Inactive)
REMARK    1  A    between atoms: C3_3  and  N1_4 
REMARK    2  A    between atoms: C3_3  and  C4_8 
REMARK       I    between atoms: C4_8  and  N2_10 
REMARK    3  A    between atoms: N2_10  and  C5_12 
REMARK    4  A    between atoms: C5_12  and  C6_13 
REMARK    5  A    between atoms: C5_12  and  C12_24 
REMARK       I    between atoms: C6_13  and  N3_15 
REMARK    6  A    between atoms: N3_15  and  C7_17 
REMARK    7  A    between atoms: C12_24  and  C13_26 
ROOT
HETATM    1  C1  UNL     1     -13.014  57.103  50.070  1.00  0.00     0.015 C 
HETATM    2  C2  UNL     1     -13.848  56.289  50.374  1.00  0.00    -0.075 C 
HETATM    3  C3  UNL     1     -14.841  55.262  50.734  1.00  0.00     0.352 C 
ENDROOT
BRANCH   3   4
HETATM    4  N1  UNL     1     -14.800  54.249  49.682  1.00  0.00    -0.056 N 
ATOM      5  H13 UNL     1     -15.686  53.758  49.563  1.00  0.00     0.276 HD
ATOM      6  H12 UNL     1     -14.746  54.646  48.745  1.00  0.00     0.276 HD
ATOM      7  H11 UNL     1     -14.022  53.628  49.901  1.00  0.00     0.276 HD
ENDBRANCH   3   4
BRANCH   3   8
HETATM    8  C4  UNL     1     -16.203  55.834  50.854  1.00  0.00     0.261 C 
HETATM    9  O1  UNL     1     -16.514  56.557  51.846  1.00  0.00    -0.270 OA
HETATM   10  N2  UNL     1     -17.169  55.579  49.860  1.00  0.00    -0.339 N 
ATOM     11  H2  UNL     1     -16.923  54.999  49.058  1.00  0.00     0.163 HD
BRANCH  10  12
HETATM   12  C5  UNL     1     -18.508  56.131  49.960  1.00  0.00     0.257 C 
BRANCH  12  13
HETATM   13  C6  UNL     1     -18.452  57.568  49.560  1.00  0.00     0.253 C 
HETATM   14  O2  UNL     1     -18.607  58.412  50.498  1.00  0.00    -0.270 OA
HETATM   15  N3  UNL     1     -18.242  58.035  48.256  1.00  0.00    -0.325 N 
ATOM     16  H3  UNL     1     -18.897  57.712  47.544  1.00  0.00     0.169 HD
BRANCH  15  17
HETATM   17  C7  UNL     1     -17.312  58.825  47.868  1.00  0.00     0.037 A 
HETATM   18  C8  UNL     1     -15.984  58.473  48.037  1.00  0.00     0.046 A 
HETATM   19  C9  UNL     1     -14.967  59.302  47.625  1.00  0.00     0.090 A 
HETATM   20  N4  UNL     1     -15.286  60.487  47.041  1.00  0.00    -0.375 N 
HETATM   21  C10 UNL     1     -16.564  60.875  46.853  1.00  0.00     0.090 A 
ATOM     22  H4  UNL     1     -14.534  61.104  46.735  1.00  0.00     0.164 HD
HETATM   23  C11 UNL     1     -17.580  60.047  47.264  1.00  0.00     0.046 A 
ENDBRANCH  15  17
ENDBRANCH  12  13
BRANCH  12  24
HETATM   24  C12 UNL     1     -19.463  55.322  49.213  1.00  0.00     0.245 C 
HETATM   25  O3  UNL     1     -19.178  54.100  48.943  1.00  0.00    -0.285 OA
BRANCH  24  26
HETATM   26  C13 UNL     1     -20.747  55.785  48.736  1.00  0.00     0.303 C 
HETATM   27  N5  UNL     1     -20.950  57.112  48.278  1.00  0.00    -0.054 NA
HETATM   28  O4  UNL     1     -21.726  55.013  48.721  1.00  0.00    -0.268 OA
ENDBRANCH  24  26
ENDBRANCH  12  24
ENDBRANCH  10  12
ENDBRANCH   3   8
TORSDOF 7
ENDMDL
MODEL 4
REMARK VINA RESULT: -5.124468105      2.075      6.174
REMARK  7 active torsions:
REMARK  status: ('A' for Active; 'I' for Inactive)
REMARK    1  A    between atoms: C3_3  and  N1_4 
REMARK    2  A    between atoms: C3_3  and  C4_8 
REMARK       I    between atoms: C4_8  and  N2_10 
REMARK    3  A    between atoms: N2_10  and  C5_12 
REMARK    4  A    between atoms: C5_12  and  C6_13 
REMARK    5  A    between atoms: C5_12  and  C12_24 
REMARK       I    between atoms: C6_13  and  N3_15 
REMARK    6  A    between atoms: N3_15  and  C7_17 
REMARK    7  A    between atoms: C12_24  and  C13_26 
ROOT
HETATM    1  C1  UNL     1     -20.179  54.336  49.231  1.00  0.00     0.015 C 
HETATM    2  C2  UNL     1     -20.168  55.539  49.273  1.00  0.00    -0.075 C 
HETATM    3  C3  UNL     1     -20.191  57.012  49.303  1.00  0.00     0.352 C 
ENDROOT
BRANCH   3   4
HETATM    4  N1  UNL     1     -20.592  57.454  47.970  1.00  0.00    -0.056 N 
ATOM      5  H13 UNL     1     -21.109  56.745  47.449  1.00  0.00     0.276 HD
ATOM      6  H12 UNL     1     -21.325  58.162  47.985  1.00  0.00     0.276 HD
ATOM      7  H11 UNL     1     -19.744  57.763  47.494  1.00  0.00     0.276 HD
ENDBRANCH   3   4
BRANCH   3   8
HETATM    8  C4  UNL     1     -18.867  57.575  49.662  1.00  0.00     0.261 C 
HETATM    9  O1  UNL     1     -18.611  57.910  50.856  1.00  0.00    -0.270 OA
HETATM   10  N2  UNL     1     -17.876  57.741  48.673  1.00  0.00    -0.339 N 
ATOM     11  H2  UNL     1     -18.077  57.472  47.711  1.00  0.00     0.163 HD
BRANCH  10  12
HETATM   12  C5  UNL     1     -16.574  58.290  49.006  1.00  0.00     0.257 C 
BRANCH  12  13
HETATM   13  C6  UNL     1     -15.722  57.184  49.535  1.00  0.00     0.253 C 
HETATM   14  O2  UNL     1     -14.699  57.542  50.199  1.00  0.00    -0.270 OA
HETATM   15  N3  UNL     1     -15.971  55.818  49.355  1.00  0.00    -0.325 N 
ATOM     16  H3  UNL     1     -16.052  55.491  48.392  1.00  0.00     0.169 HD
BRANCH  15  17
HETATM   17  C7  UNL     1     -16.108  54.939  50.276  1.00  0.00     0.037 A 
HETATM   18  C8  UNL     1     -17.371  54.512  50.649  1.00  0.00     0.046 A 
HETATM   19  C9  UNL     1     -17.544  53.566  51.632  1.00  0.00     0.090 A 
HETATM   20  N4  UNL     1     -16.444  53.048  52.241  1.00  0.00    -0.375 N 
HETATM   21  C10 UNL     1     -15.193  53.430  51.913  1.00  0.00     0.090 A 
ATOM     22  H4  UNL     1     -16.569  52.346  52.971  1.00  0.00     0.164 HD
HETATM   23  C11 UNL     1     -15.021  54.374  50.931  1.00  0.00     0.046 A 
ENDBRANCH  15  17
ENDBRANCH  12  13
BRANCH  12  24
HETATM   24  C12 UNL     1     -16.009  59.014  47.874  1.00  0.00     0.245 C 
HETATM   25  O3  UNL     1     -14.880  58.643  47.389  1.00  0.00    -0.285 OA
BRANCH  24  26
HETATM   26  C13 UNL     1     -16.628  60.148  47.224  1.00  0.00     0.303 C 
HETATM   27  N5  UNL     1     -15.869  61.147  46.562  1.00  0.00    -0.054 NA
HETATM   28  O4  UNL     1     -17.868  60.276  47.233  1.00  0.00    -0.268 OA
ENDBRANCH  24  26
ENDBRANCH  12  24
ENDBRANCH  10  12
ENDBRANCH   3   8
TORSDOF 7
ENDMDL
MODEL 5
REMARK VINA RESULT: -4.937813520      2.006      3.056
REMARK  7 active torsions:
REMARK  status: ('A' for Active; 'I' for Inactive)
REMARK    1  A    between atoms: C3_3  and  N1_4 
REMARK    2  A    between atoms: C3_3  and  C4_8 
REMARK       I    between atoms: C4_8  and  N2_10 
REMARK    3  A    between atoms: N2_10  and  C5_12 
REMARK    4  A    between atoms: C5_12  and  C6_13 
REMARK    5  A    between atoms: C5_12  and  C12_24 
REMARK       I    between atoms: C6_13  and  N3_15 
REMARK    6  A    between atoms: N3_15  and  C7_17 
REMARK    7  A    between atoms: C12_24  and  C13_26 
ROOT
HETATM    1  C1  UNL     1     -17.707  52.078  53.252  1.00  0.00     0.015 C 
HETATM    2  C2  UNL     1     -16.962  52.635  52.487  1.00  0.00    -0.075 C 
HETATM    3  C3  UNL     1     -16.019  53.291  51.566  1.00  0.00     0.352 C 
ENDROOT
BRANCH   3   4
HETATM    4  N1  UNL     1     -14.774  53.485  52.304  1.00  0.00    -0.056 N 
ATOM      5  H13 UNL     1     -14.636  54.446  52.615  1.00  0.00     0.276 HD
ATOM      6  H12 UNL     1     -14.783  53.052  53.228  1.00  0.00     0.276 HD
ATOM      7  H11 UNL     1     -14.021  53.143  51.708  1.00  0.00     0.276 HD
ENDBRANCH   3   4
BRANCH   3   8
HETATM    8  C4  UNL     1     -16.542  54.590  51.077  1.00  0.00     0.261 C 
HETATM    9  O1  UNL     1     -15.914  55.665  51.304  1.00  0.00    -0.270 OA
HETATM   10  N2  UNL     1     -17.749  54.639  50.350  1.00  0.00    -0.339 N 
ATOM     11  H2  UNL     1     -18.258  53.775  50.164  1.00  0.00     0.163 HD
BRANCH  10  12
HETATM   12  C5  UNL     1     -18.277  55.900  49.863  1.00  0.00     0.257 C 
BRANCH  12  13
HETATM   13  C6  UNL     1     -17.366  56.406  48.794  1.00  0.00     0.253 C 
HETATM   14  O2  UNL     1     -17.439  55.806  47.675  1.00  0.00    -0.270 OA
HETATM   15  N3  UNL     1     -16.467  57.469  48.937  1.00  0.00    -0.325 N 
ATOM     16  H3  UNL     1     -15.778  57.388  49.686  1.00  0.00     0.169 HD
BRANCH  15  17
HETATM   17  C7  UNL     1     -16.420  58.531  48.224  1.00  0.00     0.037 A 
HETATM   18  C8  UNL     1     -17.574  59.252  47.971  1.00  0.00     0.046 A 
HETATM   19  C9  UNL     1     -17.550  60.398  47.212  1.00  0.00     0.090 A 
HETATM   20  N4  UNL     1     -16.361  60.821  46.706  1.00  0.00    -0.375 N 
HETATM   21  C10 UNL     1     -15.209  60.155  46.924  1.00  0.00     0.090 A 
ATOM     22  H4  UNL     1     -16.339  61.671  46.142  1.00  0.00     0.164 HD
HETATM   23  C11 UNL     1     -15.234  59.011  47.683  1.00  0.00     0.046 A 
ENDBRANCH  15  17
ENDBRANCH  12  13
BRANCH  12  24
HETATM   24  C12 UNL     1     -19.673  55.763  49.468  1.00  0.00     0.245 C 
HETATM   25  O3  UNL     1     -20.223  54.604  49.488  1.00  0.00    -0.285 OA
BRANCH  24  26
HETATM   26  C13 UNL     1     -20.525  56.853  49.045  1.00  0.00     0.303 C 
HETATM   27  N5  UNL     1     -20.492  58.126  49.671  1.00  0.00    -0.054 NA
HETATM   28  O4  UNL     1     -21.325  56.694  48.102  1.00  0.00    -0.268 OA
ENDBRANCH  24  26
ENDBRANCH  12  24
ENDBRANCH  10  12
ENDBRANCH   3   8
TORSDOF 7
ENDMDL
