MODEL 1
REMARK VINA RESULT: -5.614793306      0.000      0.000
REMARK  5 active torsions:
REMARK  status: ('A' for Active; 'I' for Inactive)
REMARK    1  A    between atoms: C2_2  and  C3_3 
REMARK    2  A    between atoms: C6_7  and  N2_8 
REMARK       I    between atoms: N2_8  and  C7_9 
REMARK       I    between atoms: C7_9  and  N4_13 
REMARK    3  A    between atoms: N4_13  and  C8_15 
REMARK    4  A    between atoms: C8_15  and  C9_16 
REMARK    5  A    between atoms: C9_16  and  O1_17 
ROOT
HETATM    1  C3  UNL     1       3.097  44.682   6.026  1.00  0.00     0.028 A 
HETATM    2  C4  UNL     1       3.510  43.418   5.704  1.00  0.00     0.118 A 
HETATM    3  N1  UNL     1       2.922  42.729   4.709  1.00  0.00    -0.332 N 
HETATM    4  C5  UNL     1       3.388  41.411   4.380  1.00  0.00     0.158 C 
HETATM    5  C6  UNL     1       1.883  43.246   3.967  1.00  0.00     0.226 A 
HETATM    6  C11 UNL     1       1.512  44.521   4.339  1.00  0.00     0.177 A 
HETATM    7  N5  UNL     1       0.454  45.195   3.679  1.00  0.00    -0.077 NA
HETATM    8  N6  UNL     1       2.098  45.232   5.340  1.00  0.00    -0.338 N 
HETATM    9  C12 UNL     1       1.600  46.595   5.592  1.00  0.00     0.157 C 
ENDROOT
BRANCH   5  10
HETATM   10  N2  UNL     1       1.398  42.551   3.111  1.00  0.00    -0.349 NA
HETATM   11  C7  UNL     1       0.858  41.828   2.187  1.00  0.00     0.254 C 
HETATM   12  N3  UNL     1       0.797  40.472   2.191  1.00  0.00    -0.359 N 
HETATM   13  N4  UNL     1       0.194  42.261   0.982  1.00  0.00    -0.328 N 
ATOM     14  H32 UNL     1       1.267  40.166   3.044  1.00  0.00     0.160 HD
ATOM     15  H31 UNL     1       0.371  39.901   1.461  1.00  0.00     0.160 HD
ATOM     16  H4  UNL     1       0.466  41.822   0.103  1.00  0.00     0.169 HD
BRANCH  13  17
HETATM   17  C8  UNL     1      -0.804  43.247   0.943  1.00  0.00     0.091 C 
BRANCH  17  18
HETATM   18  C9  UNL     1      -0.875  44.177  -0.203  1.00  0.00     0.211 C 
BRANCH  18  19
HETATM   19  O1  UNL     1      -0.182  45.318  -0.174  1.00  0.00    -0.391 OA
HETATM   20  C10 UNL     1       0.858  45.410   0.671  1.00  0.00     0.201 C 
ENDBRANCH  18  19
ENDBRANCH  17  18
ENDBRANCH  13  17
ENDBRANCH   5  10
BRANCH   1  21
HETATM   21  C2  UNL     1       3.747  45.419   7.141  1.00  0.00     0.054 C 
HETATM   22  C1  UNL     1       5.141  44.947   7.409  1.00  0.00     0.011 C 
ENDBRANCH   1  21
TORSDOF 5
ENDMDL
MODEL 2
REMARK VINA RESULT: -5.451541518      1.964      2.844
REMARK  5 active torsions:
REMARK  status: ('A' for Active; 'I' for Inactive)
REMARK    1  A    between atoms: C2_2  and  C3_3 
REMARK    2  A    between atoms: C6_7  and  N2_8 
REMARK       I    between atoms: N2_8  and  C7_9 
REMARK       I    between atoms: C7_9  and  N4_13 
REMARK    3  A    between atoms: N4_13  and  C8_15 
REMARK    4  A    between atoms: C8_15  and  C9_16 
REMARK    5  A    between atoms: C9_16  and  O1_17 
ROOT
HETATM    1  C3  UNL     1       4.133  41.742   5.867  1.00  0.00     0.028 A 
HETATM    2  C4  UNL     1       3.632  40.778   5.035  1.00  0.00     0.118 A 
HETATM    3  N1  UNL     1       2.835  41.101   4.000  1.00  0.00    -0.332 N 
HETATM    4  C5  UNL     1       2.337  40.071   3.133  1.00  0.00     0.158 C 
HETATM    5  C6  UNL     1       2.479  42.402   3.721  1.00  0.00     0.226 A 
HETATM    6  C11 UNL     1       3.015  43.327   4.593  1.00  0.00     0.177 A 
HETATM    7  N5  UNL     1       2.741  44.710   4.448  1.00  0.00    -0.077 NA
HETATM    8  N6  UNL     1       3.824  43.017   5.642  1.00  0.00    -0.338 N 
HETATM    9  C12 UNL     1       4.334  44.128   6.462  1.00  0.00     0.157 C 
ENDROOT
BRANCH   5  10
HETATM   10  N2  UNL     1       1.741  42.600   2.789  1.00  0.00    -0.349 NA
HETATM   11  C7  UNL     1       0.951  42.841   1.797  1.00  0.00     0.254 C 
HETATM   12  N3  UNL     1      -0.009  41.998   1.339  1.00  0.00    -0.359 N 
HETATM   13  N4  UNL     1       0.877  44.025   0.976  1.00  0.00    -0.328 N 
ATOM     14  H32 UNL     1       0.044  41.161   1.919  1.00  0.00     0.160 HD
ATOM     15  H31 UNL     1      -0.633  42.189   0.555  1.00  0.00     0.160 HD
ATOM     16  H4  UNL     1       0.868  43.905  -0.036  1.00  0.00     0.169 HD
BRANCH  13  17
HETATM   17  C8  UNL     1       0.816  45.332   1.483  1.00  0.00     0.091 C 
BRANCH  17  18
HETATM   18  C9  UNL     1      -0.069  45.638   2.626  1.00  0.00     0.211 C 
BRANCH  18  19
HETATM   19  O1  UNL     1       0.328  46.510   3.557  1.00  0.00    -0.391 OA
HETATM   20  C10 UNL     1       1.131  47.520   3.181  1.00  0.00     0.201 C 
ENDBRANCH  18  19
ENDBRANCH  17  18
ENDBRANCH  13  17
ENDBRANCH   5  10
BRANCH   1  21
HETATM   21  C2  UNL     1       4.996  41.363   7.015  1.00  0.00     0.054 C 
HETATM   22  C1  UNL     1       5.734  40.082   6.784  1.00  0.00     0.011 C 
ENDBRANCH   1  21
TORSDOF 5
ENDMDL
MODEL 3
REMARK VINA RESULT: -5.327802812      2.247      5.619
REMARK  5 active torsions:
REMARK  status: ('A' for Active; 'I' for Inactive)
REMARK    1  A    between atoms: C2_2  and  C3_3 
REMARK    2  A    between atoms: C6_7  and  N2_8 
REMARK       I    between atoms: N2_8  and  C7_9 
REMARK       I    between atoms: C7_9  and  N4_13 
REMARK    3  A    between atoms: N4_13  and  C8_15 
REMARK    4  A    between atoms: C8_15  and  C9_16 
REMARK    5  A    between atoms: C9_16  and  O1_17 
ROOT
HETATM    1  C3  UNL     1       0.360  44.114   1.247  1.00  0.00     0.028 A 
HETATM    2  C4  UNL     1       0.565  42.761   1.265  1.00  0.00     0.118 A 
HETATM    3  N1  UNL     1       1.316  42.187   2.223  1.00  0.00    -0.332 N 
HETATM    4  C5  UNL     1       1.500  40.763   2.229  1.00  0.00     0.158 C 
HETATM    5  C6  UNL     1       1.915  42.916   3.227  1.00  0.00     0.226 A 
HETATM    6  C11 UNL     1       1.671  44.271   3.154  1.00  0.00     0.177 A 
HETATM    7  N5  UNL     1       2.221  45.163   4.109  1.00  0.00    -0.077 NA
HETATM    8  N6  UNL     1       0.914  44.867   2.194  1.00  0.00    -0.338 N 
HETATM    9  C12 UNL     1       0.730  46.325   2.276  1.00  0.00     0.157 C 
ENDROOT
BRANCH   5  10
HETATM   10  N2  UNL     1       2.591  42.324   4.030  1.00  0.00    -0.349 NA
HETATM   11  C7  UNL     1       3.330  41.716   4.896  1.00  0.00     0.254 C 
HETATM   12  N3  UNL     1       3.654  40.398   4.859  1.00  0.00    -0.359 N 
HETATM   13  N4  UNL     1       3.986  42.263   6.058  1.00  0.00    -0.328 N 
ATOM     14  H32 UNL     1       3.189  40.011   4.037  1.00  0.00     0.160 HD
ATOM     15  H31 UNL     1       4.238  39.917   5.544  1.00  0.00     0.160 HD
ATOM     16  H4  UNL     1       3.873  41.774   6.946  1.00  0.00     0.169 HD
BRANCH  13  17
HETATM   17  C8  UNL     1       4.772  43.425   6.044  1.00  0.00     0.091 C 
BRANCH  17  18
HETATM   18  C9  UNL     1       4.499  44.509   7.011  1.00  0.00     0.211 C 
BRANCH  18  19
HETATM   19  O1  UNL     1       3.368  45.213   6.917  1.00  0.00    -0.391 OA
HETATM   20  C10 UNL     1       3.439  46.550   7.034  1.00  0.00     0.201 C 
ENDBRANCH  18  19
ENDBRANCH  17  18
ENDBRANCH  13  17
ENDBRANCH   5  10
BRANCH   1  21
HETATM   21  C2  UNL     1      -0.456  44.730   0.169  1.00  0.00     0.054 C 
HETATM   22  C1  UNL     1      -1.118  43.714  -0.707  1.00  0.00     0.011 C 
ENDBRANCH   1  21
TORSDOF 5
ENDMDL
MODEL 4
REMARK VINA RESULT: -5.042632175      1.542      3.818
REMARK  5 active torsions:
REMARK  status: ('A' for Active; 'I' for Inactive)
REMARK    1  A    between atoms: C2_2  and  C3_3 
REMARK    2  A    between atoms: C6_7  and  N2_8 
REMARK       I    between atoms: N2_8  and  C7_9 
REMARK       I    between atoms: C7_9  and  N4_13 
REMARK    3  A    between atoms: N4_13  and  C8_15 
REMARK    4  A    between atoms: C8_15  and  C9_16 
REMARK    5  A    between atoms: C9_16  and  O1_17 
ROOT
HETATM    1  C3  UNL     1       4.036  41.653   5.758  1.00  0.00     0.028 A 
HETATM    2  C4  UNL     1       4.192  42.871   6.362  1.00  0.00     0.118 A 
HETATM    3  N1  UNL     1       3.492  43.944   5.949  1.00  0.00    -0.332 N 
HETATM    4  C5  UNL     1       3.663  45.206   6.612  1.00  0.00     0.158 C 
HETATM    5  C6  UNL     1       2.592  43.881   4.909  1.00  0.00     0.226 A 
HETATM    6  C11 UNL     1       2.479  42.629   4.342  1.00  0.00     0.177 A 
HETATM    7  N5  UNL     1       1.598  42.396   3.256  1.00  0.00    -0.077 NA
HETATM    8  N6  UNL     1       3.177  41.534   4.749  1.00  0.00    -0.338 N 
HETATM    9  C12 UNL     1       2.918  40.262   4.054  1.00  0.00     0.157 C 
ENDROOT
BRANCH   5  10
HETATM   10  N2  UNL     1       2.025  44.895   4.588  1.00  0.00    -0.349 NA
HETATM   11  C7  UNL     1       1.423  45.975   4.216  1.00  0.00     0.254 C 
HETATM   12  N3  UNL     1       1.431  47.150   4.896  1.00  0.00    -0.359 N 
HETATM   13  N4  UNL     1       0.641  46.201   3.025  1.00  0.00    -0.328 N 
ATOM     14  H32 UNL     1       1.984  46.990   5.738  1.00  0.00     0.160 HD
ATOM     15  H31 UNL     1       0.955  48.002   4.602  1.00  0.00     0.160 HD
ATOM     16  H4  UNL     1      -0.276  46.635   3.131  1.00  0.00     0.169 HD
BRANCH  13  17
HETATM   17  C8  UNL     1       1.061  45.860   1.730  1.00  0.00     0.091 C 
BRANCH  17  18
HETATM   18  C9  UNL     1       0.411  44.742   1.016  1.00  0.00     0.211 C 
BRANCH  18  19
HETATM   19  O1  UNL     1      -0.599  44.989   0.177  1.00  0.00    -0.391 OA
HETATM   20  C10 UNL     1      -1.086  43.968  -0.549  1.00  0.00     0.201 C 
ENDBRANCH  18  19
ENDBRANCH  17  18
ENDBRANCH  13  17
ENDBRANCH   5  10
BRANCH   1  21
HETATM   21  C2  UNL     1       4.833  40.485   6.217  1.00  0.00     0.054 C 
HETATM   22  C1  UNL     1       5.803  40.837   7.300  1.00  0.00     0.011 C 
ENDBRANCH   1  21
TORSDOF 5
ENDMDL
MODEL 5
REMARK VINA RESULT: -4.852483384      3.361      5.769
REMARK  5 active torsions:
REMARK  status: ('A' for Active; 'I' for Inactive)
REMARK    1  A    between atoms: C2_2  and  C3_3 
REMARK    2  A    between atoms: C6_7  and  N2_8 
REMARK       I    between atoms: N2_8  and  C7_9 
REMARK       I    between atoms: C7_9  and  N4_13 
REMARK    3  A    between atoms: N4_13  and  C8_15 
REMARK    4  A    between atoms: C8_15  and  C9_16 
REMARK    5  A    between atoms: C9_16  and  O1_17 
ROOT
HETATM    1  C3  UNL     1       1.453  45.778   3.070  1.00  0.00     0.028 A 
HETATM    2  C4  UNL     1       2.161  45.516   4.212  1.00  0.00     0.118 A 
HETATM    3  N1  UNL     1       2.518  44.259   4.533  1.00  0.00    -0.332 N 
HETATM    4  C5  UNL     1       3.275  44.014   5.728  1.00  0.00     0.158 C 
HETATM    5  C6  UNL     1       2.196  43.177   3.744  1.00  0.00     0.226 A 
HETATM    6  C11 UNL     1       1.484  43.504   2.609  1.00  0.00     0.177 A 
HETATM    7  N5  UNL     1       1.070  42.504   1.694  1.00  0.00    -0.077 NA
HETATM    8  N6  UNL     1       1.117  44.769   2.269  1.00  0.00    -0.338 N 
HETATM    9  C12 UNL     1       0.382  44.951   1.007  1.00  0.00     0.157 C 
ENDROOT
BRANCH   5  10
HETATM   10  N2  UNL     1       2.535  42.082   4.119  1.00  0.00    -0.349 NA
HETATM   11  C7  UNL     1       2.920  40.922   4.533  1.00  0.00     0.254 C 
HETATM   12  N3  UNL     1       2.703  39.748   3.886  1.00  0.00    -0.359 N 
HETATM   13  N4  UNL     1       3.666  40.597   5.724  1.00  0.00    -0.328 N 
ATOM     14  H32 UNL     1       2.175  39.978   3.043  1.00  0.00     0.160 HD
ATOM     15  H31 UNL     1       3.008  38.832   4.214  1.00  0.00     0.160 HD
ATOM     16  H4  UNL     1       3.315  39.845   6.317  1.00  0.00     0.169 HD
BRANCH  13  17
HETATM   17  C8  UNL     1       4.844  41.249   6.119  1.00  0.00     0.091 C 
BRANCH  17  18
HETATM   18  C9  UNL     1       5.614  40.742   7.274  1.00  0.00     0.211 C 
BRANCH  18  19
HETATM   19  O1  UNL     1       6.725  40.031   7.069  1.00  0.00    -0.391 OA
HETATM   20  C10 UNL     1       6.687  38.709   7.311  1.00  0.00     0.201 C 
ENDBRANCH  18  19
ENDBRANCH  17  18
ENDBRANCH  13  17
ENDBRANCH   5  10
BRANCH   1  21
HETATM   21  C2  UNL     1       1.052  47.171   2.744  1.00  0.00     0.054 C 
HETATM   22  C1  UNL     1       1.147  48.090   3.921  1.00  0.00     0.011 C 
ENDBRANCH   1  21
TORSDOF 5
ENDMDL
