MODEL 1
REMARK VINA RESULT: -6.574843774      0.000      0.000
REMARK  7 active torsions:
REMARK  status: ('A' for Active; 'I' for Inactive)
REMARK    1  A    between atoms: C2_2  and  C3_3 
REMARK    2  A    between atoms: C3_3  and  C4_4 
REMARK    3  A    between atoms: C4_4  and  N1_5 
REMARK    4  A    between atoms: N1_5  and  C5_7 
REMARK    5  A    between atoms: N3_10  and  N4_11 
REMARK    6  A    between atoms: C10_20  and  N6_21 
REMARK    7  A    between atoms: N6_21  and  C11_23 
ROOT
HETATM    1  C5  UNL     1       3.358  43.609   3.600  1.00  0.00     0.699 C 
HETATM    2  N2  UNL     1       3.250  44.625   2.727  1.00  0.00    -0.111 N 
ATOM      3  H2  UNL     1       4.092  45.181   2.582  1.00  0.00     0.208 HD
HETATM    4  N3  UNL     1       2.167  44.997   2.021  1.00  0.00    -0.187 N 
HETATM    5  C6  UNL     1       1.148  44.231   1.569  1.00  0.00     0.106 A 
HETATM    6  C7  UNL     1       0.086  44.643   0.790  1.00  0.00     0.053 A 
HETATM    7  C8  UNL     1      -0.753  43.574   0.529  1.00  0.00     0.091 A 
HETATM    8  N5  UNL     1      -0.192  42.511   1.154  1.00  0.00    -0.361 N 
ATOM      9  H5  UNL     1      -0.575  41.565   1.151  1.00  0.00     0.165 HD
HETATM   10  C9  UNL     1       0.939  42.880   1.778  1.00  0.00     0.107 A 
HETATM   11  C10 UNL     1       1.774  42.049   2.520  1.00  0.00     0.146 C 
HETATM   12  N7  UNL     1       2.744  42.403   3.384  1.00  0.00    -0.173 N 
ATOM     13  H7  UNL     1       3.078  41.645   3.979  1.00  0.00     0.186 HD
ENDROOT
BRANCH   1  14
HETATM   14  N1  UNL     1       4.039  43.720   4.675  1.00  0.00    -0.204 N 
ATOM     15  H1  UNL     1       5.048  43.689   4.533  1.00  0.00     0.183 HD
BRANCH  14  16
HETATM   16  C4  UNL     1       3.656  43.876   6.012  1.00  0.00     0.079 C 
BRANCH  16  17
HETATM   17  C3  UNL     1       3.145  45.217   6.433  1.00  0.00     0.045 C 
BRANCH  17  18
HETATM   18  C2  UNL     1       1.686  45.402   5.978  1.00  0.00     0.001 C 
HETATM   19  C1  UNL     1       1.621  46.725   5.246  1.00  0.00     0.005 C 
ENDBRANCH  17  18
ENDBRANCH  16  17
ENDBRANCH  14  16
ENDBRANCH   1  14
BRANCH   4  20
HETATM   20  N4  UNL     1       2.029  46.339   1.685  1.00  0.00    -0.323 N 
ATOM     21  H42 UNL     1       2.225  46.525   0.701  1.00  0.00     0.179 HD
ATOM     22  H41 UNL     1       1.756  46.995   2.417  1.00  0.00     0.179 HD
ENDBRANCH   4  20
BRANCH  11  23
HETATM   23  N6  UNL     1       1.571  40.792   2.337  1.00  0.00    -0.374 N 
ATOM     24  H6  UNL     1       0.806  40.534   1.715  1.00  0.00     0.161 HD
BRANCH  23  25
HETATM   25  C11 UNL     1       2.321  39.720   2.927  1.00  0.00     0.116 C 
HETATM   26  C12 UNL     1       1.575  39.010   4.038  1.00  0.00     0.026 C 
ENDBRANCH  23  25
ENDBRANCH  11  23
TORSDOF 7
ENDMDL
MODEL 2
REMARK VINA RESULT: -6.554356931      2.016      4.998
REMARK  7 active torsions:
REMARK  status: ('A' for Active; 'I' for Inactive)
REMARK    1  A    between atoms: C2_2  and  C3_3 
REMARK    2  A    between atoms: C3_3  and  C4_4 
REMARK    3  A    between atoms: C4_4  and  N1_5 
REMARK    4  A    between atoms: N1_5  and  C5_7 
REMARK    5  A    between atoms: N3_10  and  N4_11 
REMARK    6  A    between atoms: C10_20  and  N6_21 
REMARK    7  A    between atoms: N6_21  and  C11_23 
ROOT
HETATM    1  C5  UNL     1       0.509  44.729   4.143  1.00  0.00     0.699 C 
HETATM    2  N2  UNL     1       0.758  45.606   5.129  1.00  0.00    -0.111 N 
ATOM      3  H2  UNL     1      -0.022  46.203   5.405  1.00  0.00     0.208 HD
HETATM    4  N3  UNL     1       1.910  45.795   5.797  1.00  0.00    -0.187 N 
HETATM    5  C6  UNL     1       2.885  44.899   6.073  1.00  0.00     0.106 A 
HETATM    6  C7  UNL     1       4.024  45.118   6.820  1.00  0.00     0.053 A 
HETATM    7  C8  UNL     1       4.781  43.962   6.881  1.00  0.00     0.091 A 
HETATM    8  N5  UNL     1       4.093  43.039   6.167  1.00  0.00    -0.361 N 
ATOM      9  H5  UNL     1       4.392  42.074   6.021  1.00  0.00     0.165 HD
HETATM   10  C9  UNL     1       2.962  43.576   5.678  1.00  0.00     0.107 A 
HETATM   11  C10 UNL     1       2.014  42.919   4.897  1.00  0.00     0.146 C 
HETATM   12  N7  UNL     1       1.028  43.460   4.158  1.00  0.00    -0.173 N 
ATOM     13  H7  UNL     1       0.594  42.817   3.496  1.00  0.00     0.186 HD
ENDROOT
BRANCH   1  14
HETATM   14  N1  UNL     1      -0.223  45.035   3.143  1.00  0.00    -0.204 N 
ATOM     15  H1  UNL     1      -1.225  45.006   3.337  1.00  0.00     0.183 HD
BRANCH  14  16
HETATM   16  C4  UNL     1       0.093  45.403   1.830  1.00  0.00     0.079 C 
BRANCH  16  17
HETATM   17  C3  UNL     1       0.689  44.356   0.943  1.00  0.00     0.045 C 
BRANCH  17  18
HETATM   18  C2  UNL     1      -0.375  43.311   0.560  1.00  0.00     0.001 C 
HETATM   19  C1  UNL     1      -1.133  43.873  -0.623  1.00  0.00     0.005 C 
ENDBRANCH  17  18
ENDBRANCH  16  17
ENDBRANCH  14  16
ENDBRANCH   1  14
BRANCH   4  20
HETATM   20  N4  UNL     1       2.185  47.065   6.292  1.00  0.00    -0.323 N 
ATOM     21  H42 UNL     1       1.848  47.811   5.682  1.00  0.00     0.179 HD
ATOM     22  H41 UNL     1       2.678  47.141   7.182  1.00  0.00     0.179 HD
ENDBRANCH   4  20
BRANCH  11  23
HETATM   23  N6  UNL     1       2.119  41.637   4.902  1.00  0.00    -0.374 N 
ATOM     24  H6  UNL     1       1.745  41.146   5.714  1.00  0.00     0.161 HD
BRANCH  23  25
HETATM   25  C11 UNL     1       2.711  40.833   3.871  1.00  0.00     0.116 C 
HETATM   26  C12 UNL     1       1.756  40.515   2.739  1.00  0.00     0.026 C 
ENDBRANCH  23  25
ENDBRANCH  11  23
TORSDOF 7
ENDMDL
MODEL 3
REMARK VINA RESULT: -6.151679722      1.696      3.678
REMARK  7 active torsions:
REMARK  status: ('A' for Active; 'I' for Inactive)
REMARK    1  A    between atoms: C2_2  and  C3_3 
REMARK    2  A    between atoms: C3_3  and  C4_4 
REMARK    3  A    between atoms: C4_4  and  N1_5 
REMARK    4  A    between atoms: N1_5  and  C5_7 
REMARK    5  A    between atoms: N3_10  and  N4_11 
REMARK    6  A    between atoms: C10_20  and  N6_21 
REMARK    7  A    between atoms: N6_21  and  C11_23 
ROOT
HETATM    1  C5  UNL     1       2.993  43.331   3.091  1.00  0.00     0.699 C 
HETATM    2  N2  UNL     1       2.030  42.396   3.046  1.00  0.00    -0.111 N 
ATOM      3  H2  UNL     1       2.015  41.732   3.821  1.00  0.00     0.208 HD
HETATM    4  N3  UNL     1       1.085  42.226   2.105  1.00  0.00    -0.187 N 
HETATM    5  C6  UNL     1       0.499  43.157   1.316  1.00  0.00     0.106 A 
HETATM    6  C7  UNL     1      -0.517  42.949   0.406  1.00  0.00     0.053 A 
HETATM    7  C8  UNL     1      -0.851  44.142  -0.210  1.00  0.00     0.091 A 
HETATM    8  N5  UNL     1      -0.032  45.074   0.332  1.00  0.00    -0.361 N 
ATOM      9  H5  UNL     1      -0.030  46.064   0.085  1.00  0.00     0.165 HD
HETATM   10  C9  UNL     1       0.780  44.509   1.243  1.00  0.00     0.107 A 
HETATM   11  C10 UNL     1       1.750  45.165   1.996  1.00  0.00     0.146 C 
HETATM   12  N7  UNL     1       2.762  44.625   2.700  1.00  0.00    -0.173 N 
ATOM     13  H7  UNL     1       3.478  45.290   2.991  1.00  0.00     0.186 HD
ENDROOT
BRANCH   1  14
HETATM   14  N1  UNL     1       4.172  43.060   3.500  1.00  0.00    -0.204 N 
ATOM     15  H1  UNL     1       4.823  42.811   2.755  1.00  0.00     0.183 HD
BRANCH  14  16
HETATM   16  C4  UNL     1       4.736  43.042   4.781  1.00  0.00     0.079 C 
BRANCH  16  17
HETATM   17  C3  UNL     1       3.849  43.395   5.932  1.00  0.00     0.045 C 
BRANCH  17  18
HETATM   18  C2  UNL     1       4.557  44.393   6.866  1.00  0.00     0.001 C 
HETATM   19  C1  UNL     1       3.652  45.602   6.979  1.00  0.00     0.005 C 
ENDBRANCH  17  18
ENDBRANCH  16  17
ENDBRANCH  14  16
ENDBRANCH   1  14
BRANCH   4  20
HETATM   20  N4  UNL     1       0.610  40.940   1.872  1.00  0.00    -0.323 N 
ATOM     21  H42 UNL     1       0.417  40.425   2.731  1.00  0.00     0.179 HD
ATOM     22  H41 UNL     1       0.499  40.634   0.905  1.00  0.00     0.179 HD
ENDBRANCH   4  20
BRANCH  11  23
HETATM   23  N6  UNL     1       1.640  46.447   2.001  1.00  0.00    -0.374 N 
ATOM     24  H6  UNL     1       1.984  46.943   1.179  1.00  0.00     0.161 HD
BRANCH  23  25
HETATM   25  C11 UNL     1       1.080  47.243   3.056  1.00  0.00     0.116 C 
HETATM   26  C12 UNL     1       1.489  46.776   4.438  1.00  0.00     0.026 C 
ENDBRANCH  23  25
ENDBRANCH  11  23
TORSDOF 7
ENDMDL
MODEL 4
REMARK VINA RESULT: -6.032945764      2.938      5.242
REMARK  7 active torsions:
REMARK  status: ('A' for Active; 'I' for Inactive)
REMARK    1  A    between atoms: C2_2  and  C3_3 
REMARK    2  A    between atoms: C3_3  and  C4_4 
REMARK    3  A    between atoms: C4_4  and  N1_5 
REMARK    4  A    between atoms: N1_5  and  C5_7 
REMARK    5  A    between atoms: N3_10  and  N4_11 
REMARK    6  A    between atoms: C10_20  and  N6_21 
REMARK    7  A    between atoms: N6_21  and  C11_23 
ROOT
HETATM    1  C5  UNL     1       3.611  41.645   5.554  1.00  0.00     0.699 C 
HETATM    2  N2  UNL     1       3.030  40.795   4.691  1.00  0.00    -0.111 N 
ATOM      3  H2  UNL     1       3.041  39.810   4.957  1.00  0.00     0.208 HD
HETATM    4  N3  UNL     1       2.438  41.084   3.519  1.00  0.00    -0.187 N 
HETATM    5  C6  UNL     1       1.795  42.215   3.151  1.00  0.00     0.106 A 
HETATM    6  C7  UNL     1       1.141  42.446   1.958  1.00  0.00     0.053 A 
HETATM    7  C8  UNL     1       0.606  43.722   1.950  1.00  0.00     0.091 A 
HETATM    8  N5  UNL     1       0.937  44.263   3.147  1.00  0.00    -0.361 N 
ATOM      9  H5  UNL     1       0.686  45.204   3.451  1.00  0.00     0.165 HD
HETATM   10  C9  UNL     1       1.645  43.383   3.877  1.00  0.00     0.107 A 
HETATM   11  C10 UNL     1       2.151  43.599   5.156  1.00  0.00     0.146 C 
HETATM   12  N7  UNL     1       3.085  42.884   5.811  1.00  0.00    -0.173 N 
ATOM     13  H7  UNL     1       3.465  43.343   6.640  1.00  0.00     0.186 HD
ENDROOT
BRANCH   1  14
HETATM   14  N1  UNL     1       4.682  41.339   6.178  1.00  0.00    -0.204 N 
ATOM     15  H1  UNL     1       5.199  42.142   6.536  1.00  0.00     0.183 HD
BRANCH  14  16
HETATM   16  C4  UNL     1       5.280  40.105   6.459  1.00  0.00     0.079 C 
BRANCH  16  17
HETATM   17  C3  UNL     1       6.362  40.081   7.492  1.00  0.00     0.045 C 
BRANCH  17  18
HETATM   18  C2  UNL     1       7.265  38.850   7.293  1.00  0.00     0.001 C 
HETATM   19  C1  UNL     1       6.479  37.650   7.778  1.00  0.00     0.005 C 
ENDBRANCH  17  18
ENDBRANCH  16  17
ENDBRANCH  14  16
ENDBRANCH   1  14
BRANCH   4  20
HETATM   20  N4  UNL     1       2.461  40.122   2.514  1.00  0.00    -0.323 N 
ATOM     21  H42 UNL     1       2.661  39.185   2.865  1.00  0.00     0.179 HD
ATOM     22  H41 UNL     1       2.284  40.421   1.555  1.00  0.00     0.179 HD
ENDBRANCH   4  20
BRANCH  11  23
HETATM   23  N6  UNL     1       1.647  44.616   5.762  1.00  0.00    -0.374 N 
ATOM     24  H6  UNL     1       0.684  44.529   6.086  1.00  0.00     0.161 HD
BRANCH  23  25
HETATM   25  C11 UNL     1       2.314  45.859   6.025  1.00  0.00     0.116 C 
HETATM   26  C12 UNL     1       1.658  47.043   5.345  1.00  0.00     0.026 C 
ENDBRANCH  23  25
ENDBRANCH  11  23
TORSDOF 7
ENDMDL
MODEL 5
REMARK VINA RESULT: -5.872511978      3.445      5.407
REMARK  7 active torsions:
REMARK  status: ('A' for Active; 'I' for Inactive)
REMARK    1  A    between atoms: C2_2  and  C3_3 
REMARK    2  A    between atoms: C3_3  and  C4_4 
REMARK    3  A    between atoms: C4_4  and  N1_5 
REMARK    4  A    between atoms: N1_5  and  C5_7 
REMARK    5  A    between atoms: N3_10  and  N4_11 
REMARK    6  A    between atoms: C10_20  and  N6_21 
REMARK    7  A    between atoms: N6_21  and  C11_23 
ROOT
HETATM    1  C5  UNL     1       4.292  41.467   5.890  1.00  0.00     0.699 C 
HETATM    2  N2  UNL     1       4.809  42.692   6.080  1.00  0.00    -0.111 N 
ATOM      3  H2  UNL     1       5.826  42.758   6.044  1.00  0.00     0.208 HD
HETATM    4  N3  UNL     1       4.150  43.841   6.312  1.00  0.00    -0.187 N 
HETATM    5  C6  UNL     1       2.914  44.206   5.902  1.00  0.00     0.106 A 
HETATM    6  C7  UNL     1       2.299  45.424   6.108  1.00  0.00     0.053 A 
HETATM    7  C8  UNL     1       1.037  45.419   5.540  1.00  0.00     0.091 A 
HETATM    8  N5  UNL     1       0.891  44.191   4.989  1.00  0.00    -0.361 N 
ATOM      9  H5  UNL     1       0.060  43.871   4.490  1.00  0.00     0.165 HD
HETATM   10  C9  UNL     1       1.996  43.453   5.193  1.00  0.00     0.107 A 
HETATM   11  C10 UNL     1       2.197  42.143   4.766  1.00  0.00     0.146 C 
HETATM   12  N7  UNL     1       3.141  41.273   5.171  1.00  0.00    -0.173 N 
ATOM     13  H7  UNL     1       2.971  40.306   4.896  1.00  0.00     0.186 HD
ENDROOT
BRANCH   1  14
HETATM   14  N1  UNL     1       4.847  40.423   6.372  1.00  0.00    -0.204 N 
ATOM     15  H1  UNL     1       4.394  39.549   6.102  1.00  0.00     0.183 HD
BRANCH  14  16
HETATM   16  C4  UNL     1       5.962  40.255   7.202  1.00  0.00     0.079 C 
BRANCH  16  17
HETATM   17  C3  UNL     1       6.440  38.859   7.442  1.00  0.00     0.045 C 
BRANCH  17  18
HETATM   18  C2  UNL     1       7.866  38.679   6.890  1.00  0.00     0.001 C 
HETATM   19  C1  UNL     1       8.525  37.603   7.726  1.00  0.00     0.005 C 
ENDBRANCH  17  18
ENDBRANCH  16  17
ENDBRANCH  14  16
ENDBRANCH   1  14
BRANCH   4  20
HETATM   20  N4  UNL     1       4.781  44.821   7.071  1.00  0.00    -0.323 N 
ATOM     21  H42 UNL     1       5.679  45.110   6.680  1.00  0.00     0.179 HD
ATOM     22  H41 UNL     1       4.316  45.153   7.916  1.00  0.00     0.179 HD
ENDBRANCH   4  20
BRANCH  11  23
HETATM   23  N6  UNL     1       1.361  41.741   3.874  1.00  0.00    -0.374 N 
ATOM     24  H6  UNL     1       0.443  41.442   4.203  1.00  0.00     0.161 HD
BRANCH  23  25
HETATM   25  C11 UNL     1       1.601  41.675   2.461  1.00  0.00     0.116 C 
HETATM   26  C12 UNL     1       0.885  42.760   1.683  1.00  0.00     0.026 C 
ENDBRANCH  23  25
ENDBRANCH  11  23
TORSDOF 7
ENDMDL
