MODEL 1
REMARK VINA RESULT: -7.782393612      0.000      0.000
REMARK  4 active torsions:
REMARK  status: ('A' for Active; 'I' for Inactive)
REMARK    1  A    between atoms: C3_3  and  O1_4 
REMARK    2  A    between atoms: O1_4  and  C4_5 
REMARK    3  A    between atoms: C5_6  and  C6_7 
REMARK    4  A    between atoms: N1_8  and  N2_10 
REMARK       I    between atoms: N2_10  and  C7_12 
ROOT
HETATM    1  C1  UNL     1       2.408  38.923   3.542  1.00  0.00     0.014 C 
HETATM    2  C2  UNL     1       2.134  40.081   3.437  1.00  0.00    -0.091 C 
HETATM    3  C3  UNL     1       1.809  41.483   3.284  1.00  0.00     0.270 C 
ENDROOT
BRANCH   3   4
HETATM    4  O1  UNL     1       2.987  42.298   3.357  1.00  0.00    -0.323 OA
BRANCH   4   5
HETATM    5  C4  UNL     1       2.864  43.423   4.190  1.00  0.00     0.158 A 
HETATM    6  C5  UNL     1       2.267  44.592   3.753  1.00  0.00     0.051 A 
HETATM    7  C8  UNL     1       2.172  45.659   4.601  1.00  0.00     0.034 A 
HETATM    8  C9  UNL     1       1.559  46.884   4.180  1.00  0.00    -0.077 C 
HETATM    9  C11 UNL     1       2.688  45.524   5.890  1.00  0.00     0.039 A 
HETATM   10  C10 UNL     1       1.048  47.928   3.851  1.00  0.00     0.018 C 
HETATM   11  C12 UNL     1       3.281  44.354   6.314  1.00  0.00     0.094 A 
HETATM   12  N5  UNL     1       3.349  43.329   5.434  1.00  0.00    -0.341 N 
HETATM   13  C13 UNL     1       3.974  42.069   5.853  1.00  0.00     0.158 C 
BRANCH   6  14
HETATM   14  C6  UNL     1       1.768  44.609   2.386  1.00  0.00     0.124 C 
HETATM   15  N1  UNL     1       0.543  44.584   2.031  1.00  0.00    -0.309 N 
ATOM     16  H1  UNL     1      -0.166  44.549   2.763  1.00  0.00     0.186 HD
BRANCH  15  17
HETATM   17  N2  UNL     1       0.117  44.602   0.707  1.00  0.00    -0.274 N 
HETATM   18  C7  UNL     1      -0.724  43.605   0.146  1.00  0.00     0.200 C 
HETATM   19  N3  UNL     1      -0.792  42.437   0.689  1.00  0.00    -0.372 N 
HETATM   20  N4  UNL     1      -1.506  43.852  -1.011  1.00  0.00    -0.062 NA
ATOM     21  H32 UNL     1      -0.230  42.259   1.521  1.00  0.00     0.158 HD
ATOM     22  H31 UNL     1      -1.396  41.720   0.287  1.00  0.00     0.158 HD
ATOM     23  H2  UNL     1       0.423  45.369   0.109  1.00  0.00     0.189 HD
ENDBRANCH  15  17
ENDBRANCH   6  14
ENDBRANCH   4   5
ENDBRANCH   3   4
TORSDOF 4
ENDMDL
MODEL 2
REMARK VINA RESULT: -7.240321450      1.427      4.043
REMARK  4 active torsions:
REMARK  status: ('A' for Active; 'I' for Inactive)
REMARK    1  A    between atoms: C3_3  and  O1_4 
REMARK    2  A    between atoms: O1_4  and  C4_5 
REMARK    3  A    between atoms: C5_6  and  C6_7 
REMARK    4  A    between atoms: N1_8  and  N2_10 
REMARK       I    between atoms: N2_10  and  C7_12 
ROOT
HETATM    1  C1  UNL     1       2.209  46.028   1.347  1.00  0.00     0.014 C 
HETATM    2  C2  UNL     1       1.802  46.226   2.453  1.00  0.00    -0.091 C 
HETATM    3  C3  UNL     1       1.329  46.456   3.801  1.00  0.00     0.270 C 
ENDROOT
BRANCH   3   4
HETATM    4  O1  UNL     1       0.752  45.266   4.357  1.00  0.00    -0.323 OA
BRANCH   4   5
HETATM    5  C4  UNL     1       1.681  44.253   4.651  1.00  0.00     0.158 A 
HETATM    6  C5  UNL     1       1.635  43.019   4.027  1.00  0.00     0.051 A 
HETATM    7  C8  UNL     1       2.561  42.067   4.347  1.00  0.00     0.034 A 
HETATM    8  C9  UNL     1       2.542  40.779   3.720  1.00  0.00    -0.077 C 
HETATM    9  C11 UNL     1       3.527  42.382   5.303  1.00  0.00     0.039 A 
HETATM   10  C10 UNL     1       2.548  39.685   3.206  1.00  0.00     0.018 C 
HETATM   11  C12 UNL     1       3.562  43.615   5.918  1.00  0.00     0.094 A 
HETATM   12  N5  UNL     1       2.622  44.521   5.564  1.00  0.00    -0.341 N 
HETATM   13  C13 UNL     1       2.630  45.844   6.200  1.00  0.00     0.158 C 
BRANCH   6  14
HETATM   14  C6  UNL     1       0.579  42.812   3.047  1.00  0.00     0.124 C 
HETATM   15  N1  UNL     1       0.717  42.814   1.780  1.00  0.00    -0.309 N 
ATOM     16  H1  UNL     1       1.650  42.975   1.400  1.00  0.00     0.186 HD
BRANCH  15  17
HETATM   17  N2  UNL     1      -0.328  42.610   0.883  1.00  0.00    -0.274 N 
HETATM   18  C7  UNL     1      -0.780  43.604  -0.024  1.00  0.00     0.200 C 
HETATM   19  N3  UNL     1      -0.545  44.849   0.212  1.00  0.00    -0.372 N 
HETATM   20  N4  UNL     1      -1.493  43.268  -1.203  1.00  0.00    -0.062 NA
ATOM     21  H32 UNL     1      -0.032  45.091   1.060  1.00  0.00     0.158 HD
ATOM     22  H31 UNL     1      -0.870  45.564  -0.440  1.00  0.00     0.158 HD
ATOM     23  H2  UNL     1      -0.792  41.702   0.878  1.00  0.00     0.189 HD
ENDBRANCH  15  17
ENDBRANCH   6  14
ENDBRANCH   4   5
ENDBRANCH   3   4
TORSDOF 4
ENDMDL
MODEL 3
REMARK VINA RESULT: -7.186794484      2.308      4.535
REMARK  4 active torsions:
REMARK  status: ('A' for Active; 'I' for Inactive)
REMARK    1  A    between atoms: C3_3  and  O1_4 
REMARK    2  A    between atoms: O1_4  and  C4_5 
REMARK    3  A    between atoms: C5_6  and  C6_7 
REMARK    4  A    between atoms: N1_8  and  N2_10 
REMARK       I    between atoms: N2_10  and  C7_12 
ROOT
HETATM    1  C1  UNL     1       5.048  44.573   7.313  1.00  0.00     0.014 C 
HETATM    2  C2  UNL     1       4.311  44.145   6.477  1.00  0.00    -0.091 C 
HETATM    3  C3  UNL     1       3.420  43.647   5.450  1.00  0.00     0.270 C 
ENDROOT
BRANCH   3   4
HETATM    4  O1  UNL     1       2.086  44.140   5.640  1.00  0.00    -0.323 OA
BRANCH   4   5
HETATM    5  C4  UNL     1       1.629  44.987   4.616  1.00  0.00     0.158 A 
HETATM    6  C5  UNL     1       1.158  44.489   3.415  1.00  0.00     0.051 A 
HETATM    7  C8  UNL     1       0.725  45.354   2.449  1.00  0.00     0.034 A 
HETATM    8  C9  UNL     1       0.231  44.872   1.194  1.00  0.00    -0.077 C 
HETATM    9  C11 UNL     1       0.777  46.722   2.720  1.00  0.00     0.039 A 
HETATM   10  C10 UNL     1      -0.191  44.493   0.127  1.00  0.00     0.018 C 
HETATM   11  C12 UNL     1       1.249  47.206   3.921  1.00  0.00     0.094 A 
HETATM   12  N5  UNL     1       1.665  46.306   4.841  1.00  0.00    -0.341 N 
HETATM   13  C13 UNL     1       2.174  46.787   6.131  1.00  0.00     0.158 C 
BRANCH   6  14
HETATM   14  C6  UNL     1       1.154  43.043   3.253  1.00  0.00     0.124 C 
HETATM   15  N1  UNL     1       2.070  42.344   2.707  1.00  0.00    -0.309 N 
ATOM     16  H1  UNL     1       2.890  42.830   2.343  1.00  0.00     0.186 HD
BRANCH  15  17
HETATM   17  N2  UNL     1       2.019  40.960   2.577  1.00  0.00    -0.274 N 
HETATM   18  C7  UNL     1       2.411  40.066   3.608  1.00  0.00     0.200 C 
HETATM   19  N3  UNL     1       3.211  40.462   4.537  1.00  0.00    -0.372 N 
HETATM   20  N4  UNL     1       1.942  38.728   3.653  1.00  0.00    -0.062 NA
ATOM     21  H32 UNL     1       3.549  41.425   4.505  1.00  0.00     0.158 HD
ATOM     22  H31 UNL     1       3.493  39.820   5.278  1.00  0.00     0.158 HD
ATOM     23  H2  UNL     1       1.684  40.567   1.697  1.00  0.00     0.189 HD
ENDBRANCH  15  17
ENDBRANCH   6  14
ENDBRANCH   4   5
ENDBRANCH   3   4
TORSDOF 4
ENDMDL
MODEL 4
REMARK VINA RESULT: -6.911079337      2.298      4.364
REMARK  4 active torsions:
REMARK  status: ('A' for Active; 'I' for Inactive)
REMARK    1  A    between atoms: C3_3  and  O1_4 
REMARK    2  A    between atoms: O1_4  and  C4_5 
REMARK    3  A    between atoms: C5_6  and  C6_7 
REMARK    4  A    between atoms: N1_8  and  N2_10 
REMARK       I    between atoms: N2_10  and  C7_12 
ROOT
HETATM    1  C1  UNL     1       4.605  43.501   3.566  1.00  0.00     0.014 C 
HETATM    2  C2  UNL     1       4.069  43.757   4.602  1.00  0.00    -0.091 C 
HETATM    3  C3  UNL     1       3.416  44.042   5.862  1.00  0.00     0.270 C 
ENDROOT
BRANCH   3   4
HETATM    4  O1  UNL     1       1.989  44.067   5.710  1.00  0.00    -0.323 OA
BRANCH   4   5
HETATM    5  C4  UNL     1       1.533  44.851   4.637  1.00  0.00     0.158 A 
HETATM    6  C5  UNL     1       1.013  44.281   3.488  1.00  0.00     0.051 A 
HETATM    7  C8  UNL     1       0.583  45.087   2.471  1.00  0.00     0.034 A 
HETATM    8  C9  UNL     1       0.040  44.530   1.268  1.00  0.00    -0.077 C 
HETATM    9  C11 UNL     1       0.688  46.468   2.637  1.00  0.00     0.039 A 
HETATM   10  C10 UNL     1      -0.422  44.087   0.243  1.00  0.00     0.018 C 
HETATM   11  C12 UNL     1       1.208  47.024   3.786  1.00  0.00     0.094 A 
HETATM   12  N5  UNL     1       1.618  46.181   4.761  1.00  0.00    -0.341 N 
HETATM   13  C13 UNL     1       2.178  46.738   5.998  1.00  0.00     0.158 C 
BRANCH   6  14
HETATM   14  C6  UNL     1       0.958  42.828   3.436  1.00  0.00     0.124 C 
HETATM   15  N1  UNL     1       1.605  42.078   2.634  1.00  0.00    -0.309 N 
ATOM     16  H1  UNL     1       2.225  42.523   1.957  1.00  0.00     0.186 HD
BRANCH  15  17
HETATM   17  N2  UNL     1       1.517  40.689   2.624  1.00  0.00    -0.274 N 
HETATM   18  C7  UNL     1       2.142  39.863   3.594  1.00  0.00     0.200 C 
HETATM   19  N3  UNL     1       3.147  40.306   4.269  1.00  0.00    -0.372 N 
HETATM   20  N4  UNL     1       1.692  38.543   3.852  1.00  0.00    -0.062 NA
ATOM     21  H32 UNL     1       3.471  41.256   4.084  1.00  0.00     0.158 HD
ATOM     22  H31 UNL     1       3.597  39.713   4.967  1.00  0.00     0.158 HD
ATOM     23  H2  UNL     1       0.976  40.242   1.884  1.00  0.00     0.189 HD
ENDBRANCH  15  17
ENDBRANCH   6  14
ENDBRANCH   4   5
ENDBRANCH   3   4
TORSDOF 4
ENDMDL
MODEL 5
REMARK VINA RESULT: -6.901153731      1.078      4.192
REMARK  4 active torsions:
REMARK  status: ('A' for Active; 'I' for Inactive)
REMARK    1  A    between atoms: C3_3  and  O1_4 
REMARK    2  A    between atoms: O1_4  and  C4_5 
REMARK    3  A    between atoms: C5_6  and  C6_7 
REMARK    4  A    between atoms: N1_8  and  N2_10 
REMARK       I    between atoms: N2_10  and  C7_12 
ROOT
HETATM    1  C1  UNL     1       1.015  47.932   3.213  1.00  0.00     0.014 C 
HETATM    2  C2  UNL     1       1.342  46.998   3.882  1.00  0.00    -0.091 C 
HETATM    3  C3  UNL     1       1.756  45.880   4.703  1.00  0.00     0.270 C 
ENDROOT
BRANCH   3   4
HETATM    4  O1  UNL     1       2.896  45.217   4.138  1.00  0.00    -0.323 OA
BRANCH   4   5
HETATM    5  C4  UNL     1       3.042  43.876   4.532  1.00  0.00     0.158 A 
HETATM    6  C5  UNL     1       2.621  42.831   3.729  1.00  0.00     0.051 A 
HETATM    7  C8  UNL     1       2.784  41.544   4.157  1.00  0.00     0.034 A 
HETATM    8  C9  UNL     1       2.360  40.438   3.351  1.00  0.00    -0.077 C 
HETATM    9  C11 UNL     1       3.376  41.334   5.403  1.00  0.00     0.039 A 
HETATM   10  C10 UNL     1       2.011  39.488   2.691  1.00  0.00     0.018 C 
HETATM   11  C12 UNL     1       3.791  42.385   6.194  1.00  0.00     0.094 A 
HETATM   12  N5  UNL     1       3.606  43.638   5.722  1.00  0.00    -0.341 N 
HETATM   13  C13 UNL     1       4.035  44.779   6.539  1.00  0.00     0.158 C 
BRANCH   6  14
HETATM   14  C6  UNL     1       2.017  43.179   2.451  1.00  0.00     0.124 C 
HETATM   15  N1  UNL     1       1.022  43.957   2.276  1.00  0.00    -0.309 N 
ATOM     16  H1  UNL     1       0.597  44.384   3.099  1.00  0.00     0.186 HD
BRANCH  15  17
HETATM   17  N2  UNL     1       0.481  44.259   1.030  1.00  0.00    -0.274 N 
HETATM   18  C7  UNL     1      -0.599  43.539   0.456  1.00  0.00     0.200 C 
HETATM   19  N3  UNL     1      -0.856  42.338   0.847  1.00  0.00    -0.372 N 
HETATM   20  N4  UNL     1      -1.422  44.106  -0.551  1.00  0.00    -0.062 NA
ATOM     21  H32 UNL     1      -0.264  41.929   1.571  1.00  0.00     0.158 HD
ATOM     22  H31 UNL     1      -1.632  41.820   0.434  1.00  0.00     0.158 HD
ATOM     23  H2  UNL     1       0.880  45.035   0.503  1.00  0.00     0.189 HD
ENDBRANCH  15  17
ENDBRANCH   6  14
ENDBRANCH   4   5
ENDBRANCH   3   4
TORSDOF 4
ENDMDL
