MODEL 1
REMARK VINA RESULT: -8.020766143      0.000      0.000
REMARK  5 active torsions:
REMARK  status: ('A' for Active; 'I' for Inactive)
REMARK    1  A    between atoms: N2_5  and  C4_6 
REMARK    2  A    between atoms: C4_6  and  C5_7 
REMARK    3  A    between atoms: C5_7  and  C6_8 
REMARK    4  A    between atoms: C6_8  and  N3_9 
REMARK    5  A    between atoms: C11_18  and  N5_19 
ROOT
HETATM    1  N3  UNL     1       1.170  41.160   2.059  1.00  0.00    -0.376 N 
ATOM      2  H3  UNL     1       0.536  40.483   1.634  1.00  0.00     0.161 HD
HETATM    3  C7  UNL     1       0.998  42.380   1.744  1.00  0.00     0.117 C 
HETATM    4  C8  UNL     1       1.851  43.285   2.317  1.00  0.00     0.054 C 
HETATM    5  C9  UNL     1       1.573  44.614   2.558  1.00  0.00     0.079 C 
HETATM    6  C10 UNL     1       0.559  45.404   2.066  1.00  0.00     0.259 C 
HETATM    7  O1  UNL     1       0.458  46.586   2.491  1.00  0.00    -0.268 OA
HETATM    8  N4  UNL     1      -0.374  45.036   1.143  1.00  0.00    -0.156 N 
ATOM      9  H4  UNL     1      -0.962  45.792   0.793  1.00  0.00     0.187 HD
HETATM   10  C11 UNL     1      -0.627  43.833   0.631  1.00  0.00     0.680 C 
HETATM   11  N6  UNL     1       0.001  42.644   0.888  1.00  0.00    -0.177 N 
ATOM     12  H6  UNL     1      -0.338  41.846   0.352  1.00  0.00     0.185 HD
ENDROOT
BRANCH   1  13
HETATM   13  C6  UNL     1       2.170  40.635   2.957  1.00  0.00     0.123 C 
BRANCH  13  14
HETATM   14  C5  UNL     1       1.814  40.867   4.399  1.00  0.00     0.040 C 
BRANCH  14  15
HETATM   15  C4  UNL     1       2.998  41.214   5.251  1.00  0.00     0.131 C 
BRANCH  15  16
HETATM   16  N2  UNL     1       2.960  42.620   5.591  1.00  0.00    -0.351 N 
HETATM   17  C3  UNL     1       4.042  43.369   5.973  1.00  0.00     0.109 A 
HETATM   18  C2  UNL     1       3.608  44.659   6.190  1.00  0.00     0.108 A 
HETATM   19  N1  UNL     1       2.288  44.718   5.950  1.00  0.00    -0.356 N 
HETATM   20  C1  UNL     1       1.440  45.903   6.062  1.00  0.00     0.156 C 
HETATM   21  C12 UNL     1       1.922  43.480   5.592  1.00  0.00     0.184 A 
ENDBRANCH  15  16
ENDBRANCH  14  15
ENDBRANCH  13  14
ENDBRANCH   1  13
BRANCH  10  22
HETATM   22  N5  UNL     1      -1.602  43.786  -0.226  1.00  0.00    -0.234 N 
ATOM     23  H52 UNL     1      -2.329  44.493  -0.114  1.00  0.00     0.174 HD
ATOM     24  H51 UNL     1      -1.536  43.044  -0.923  1.00  0.00     0.174 HD
ENDBRANCH  10  22
TORSDOF 5
ENDMDL
MODEL 2
REMARK VINA RESULT: -7.736306066      0.602      1.056
REMARK  5 active torsions:
REMARK  status: ('A' for Active; 'I' for Inactive)
REMARK    1  A    between atoms: N2_5  and  C4_6 
REMARK    2  A    between atoms: C4_6  and  C5_7 
REMARK    3  A    between atoms: C5_7  and  C6_8 
REMARK    4  A    between atoms: C6_8  and  N3_9 
REMARK    5  A    between atoms: C11_18  and  N5_19 
ROOT
HETATM    1  N3  UNL     1       1.023  41.025   2.190  1.00  0.00    -0.376 N 
ATOM      2  H3  UNL     1       0.250  40.430   1.894  1.00  0.00     0.161 HD
HETATM    3  C7  UNL     1       1.010  42.227   1.777  1.00  0.00     0.117 C 
HETATM    4  C8  UNL     1       2.050  43.024   2.177  1.00  0.00     0.054 C 
HETATM    5  C9  UNL     1       2.009  44.395   2.313  1.00  0.00     0.079 C 
HETATM    6  C10 UNL     1       1.083  45.298   1.846  1.00  0.00     0.259 C 
HETATM    7  O1  UNL     1       1.213  46.511   2.162  1.00  0.00    -0.268 OA
HETATM    8  N4  UNL     1       0.009  45.016   1.055  1.00  0.00    -0.156 N 
ATOM      9  H4  UNL     1      -0.490  45.828   0.691  1.00  0.00     0.187 HD
HETATM   10  C11 UNL     1      -0.482  43.833   0.688  1.00  0.00     0.680 C 
HETATM   11  N6  UNL     1      -0.022  42.583   0.998  1.00  0.00    -0.177 N 
ATOM     12  H6  UNL     1      -0.537  41.811   0.577  1.00  0.00     0.185 HD
ENDROOT
BRANCH   1  13
HETATM   13  C6  UNL     1       2.023  40.417   3.036  1.00  0.00     0.123 C 
BRANCH  13  14
HETATM   14  C5  UNL     1       1.855  40.804   4.479  1.00  0.00     0.040 C 
BRANCH  14  15
HETATM   15  C4  UNL     1       3.100  41.382   5.083  1.00  0.00     0.131 C 
BRANCH  15  16
HETATM   16  N2  UNL     1       2.851  42.743   5.507  1.00  0.00    -0.351 N 
HETATM   17  C3  UNL     1       1.633  43.369   5.475  1.00  0.00     0.109 A 
HETATM   18  C2  UNL     1       1.798  44.641   5.978  1.00  0.00     0.108 A 
HETATM   19  N1  UNL     1       3.086  44.809   6.317  1.00  0.00    -0.356 N 
HETATM   20  C1  UNL     1       3.681  46.016   6.888  1.00  0.00     0.156 C 
HETATM   21  C12 UNL     1       3.699  43.654   6.024  1.00  0.00     0.184 A 
ENDBRANCH  15  16
ENDBRANCH  14  15
ENDBRANCH  13  14
ENDBRANCH   1  13
BRANCH  10  22
HETATM   22  N5  UNL     1      -1.540  43.879  -0.064  1.00  0.00    -0.234 N 
ATOM     23  H52 UNL     1      -1.509  43.313  -0.913  1.00  0.00     0.174 HD
ATOM     24  H51 UNL     1      -2.292  44.478   0.276  1.00  0.00     0.174 HD
ENDBRANCH  10  22
TORSDOF 5
ENDMDL
MODEL 3
REMARK VINA RESULT: -7.349075789      1.811      3.578
REMARK  5 active torsions:
REMARK  status: ('A' for Active; 'I' for Inactive)
REMARK    1  A    between atoms: N2_5  and  C4_6 
REMARK    2  A    between atoms: C4_6  and  C5_7 
REMARK    3  A    between atoms: C5_7  and  C6_8 
REMARK    4  A    between atoms: C6_8  and  N3_9 
REMARK    5  A    between atoms: C11_18  and  N5_19 
ROOT
HETATM    1  N3  UNL     1       1.400  45.060   3.383  1.00  0.00    -0.376 N 
ATOM      2  H3  UNL     1       1.712  44.496   4.174  1.00  0.00     0.161 HD
HETATM    3  C7  UNL     1       1.026  44.429   2.344  1.00  0.00     0.117 C 
HETATM    4  C8  UNL     1       0.607  45.189   1.285  1.00  0.00     0.054 C 
HETATM    5  C9  UNL     1      -0.288  44.793   0.313  1.00  0.00     0.079 C 
HETATM    6  C10 UNL     1      -0.747  43.535  -0.001  1.00  0.00     0.259 C 
HETATM    7  O1  UNL     1      -1.633  43.423  -0.890  1.00  0.00    -0.268 OA
HETATM    8  N4  UNL     1      -0.335  42.363   0.560  1.00  0.00    -0.156 N 
ATOM      9  H4  UNL     1      -0.681  41.517   0.108  1.00  0.00     0.187 HD
HETATM   10  C11 UNL     1       0.456  42.163   1.613  1.00  0.00     0.680 C 
HETATM   11  N6  UNL     1       1.080  43.091   2.402  1.00  0.00    -0.177 N 
ATOM     12  H6  UNL     1       1.672  42.709   3.140  1.00  0.00     0.185 HD
ENDROOT
BRANCH   1  13
HETATM   13  C6  UNL     1       1.428  46.492   3.556  1.00  0.00     0.123 C 
BRANCH  13  14
HETATM   14  C5  UNL     1       1.712  46.885   4.979  1.00  0.00     0.040 C 
BRANCH  14  15
HETATM   15  C4  UNL     1       1.349  45.819   5.969  1.00  0.00     0.131 C 
BRANCH  15  16
HETATM   16  N2  UNL     1       2.447  44.887   6.109  1.00  0.00    -0.351 N 
HETATM   17  C3  UNL     1       3.668  45.182   6.655  1.00  0.00     0.109 A 
HETATM   18  C2  UNL     1       4.431  44.035   6.631  1.00  0.00     0.108 A 
HETATM   19  N1  UNL     1       3.706  43.045   6.083  1.00  0.00    -0.356 N 
HETATM   20  C1  UNL     1       4.145  41.667   5.872  1.00  0.00     0.156 C 
HETATM   21  C12 UNL     1       2.518  43.582   5.778  1.00  0.00     0.184 A 
ENDBRANCH  15  16
ENDBRANCH  14  15
ENDBRANCH  13  14
ENDBRANCH   1  13
BRANCH  10  22
HETATM   22  N5  UNL     1       0.658  40.920   1.930  1.00  0.00    -0.234 N 
ATOM     23  H52 UNL     1      -0.157  40.308   1.876  1.00  0.00     0.174 HD
ATOM     24  H51 UNL     1       1.614  40.687   2.199  1.00  0.00     0.174 HD
ENDBRANCH  10  22
TORSDOF 5
ENDMDL
MODEL 4
REMARK VINA RESULT: -7.341670625      2.275      5.768
REMARK  5 active torsions:
REMARK  status: ('A' for Active; 'I' for Inactive)
REMARK    1  A    between atoms: N2_5  and  C4_6 
REMARK    2  A    between atoms: C4_6  and  C5_7 
REMARK    3  A    between atoms: C5_7  and  C6_8 
REMARK    4  A    between atoms: C6_8  and  N3_9 
REMARK    5  A    between atoms: C11_18  and  N5_19 
ROOT
HETATM    1  N3  UNL     1       2.326  44.400   5.979  1.00  0.00    -0.376 N 
ATOM      2  H3  UNL     1       2.865  44.598   6.822  1.00  0.00     0.161 HD
HETATM    3  C7  UNL     1       2.632  43.345   5.339  1.00  0.00     0.117 C 
HETATM    4  C8  UNL     1       1.906  43.083   4.208  1.00  0.00     0.054 C 
HETATM    5  C9  UNL     1       1.679  41.835   3.668  1.00  0.00     0.079 C 
HETATM    6  C10 UNL     1       2.306  40.637   3.924  1.00  0.00     0.259 C 
HETATM    7  O1  UNL     1       1.872  39.598   3.358  1.00  0.00    -0.268 OA
HETATM    8  N4  UNL     1       3.377  40.447   4.746  1.00  0.00    -0.156 N 
ATOM      9  H4  UNL     1       3.796  39.519   4.708  1.00  0.00     0.187 HD
HETATM   10  C11 UNL     1       3.953  41.300   5.592  1.00  0.00     0.680 C 
HETATM   11  N6  UNL     1       3.630  42.605   5.844  1.00  0.00    -0.177 N 
ATOM     12  H6  UNL     1       4.234  43.084   6.512  1.00  0.00     0.185 HD
ENDROOT
BRANCH   1  13
HETATM   13  C6  UNL     1       1.293  45.347   5.633  1.00  0.00     0.123 C 
BRANCH  13  14
HETATM   14  C5  UNL     1       1.860  46.667   5.191  1.00  0.00     0.040 C 
BRANCH  14  15
HETATM   15  C4  UNL     1       1.098  47.286   4.057  1.00  0.00     0.131 C 
BRANCH  15  16
HETATM   16  N2  UNL     1       0.995  46.343   2.964  1.00  0.00    -0.351 N 
HETATM   17  C3  UNL     1       1.998  46.050   2.077  1.00  0.00     0.109 A 
HETATM   18  C2  UNL     1       1.525  45.096   1.203  1.00  0.00     0.108 A 
HETATM   19  N1  UNL     1       0.258  44.798   1.533  1.00  0.00    -0.356 N 
HETATM   20  C1  UNL     1      -0.608  43.833   0.857  1.00  0.00     0.156 C 
HETATM   21  C12 UNL     1      -0.038  45.560   2.594  1.00  0.00     0.184 A 
ENDBRANCH  15  16
ENDBRANCH  14  15
ENDBRANCH  13  14
ENDBRANCH   1  13
BRANCH  10  22
HETATM   22  N5  UNL     1       4.957  40.823   6.265  1.00  0.00    -0.234 N 
ATOM     23  H52 UNL     1       5.779  40.566   5.718  1.00  0.00     0.174 HD
ATOM     24  H51 UNL     1       4.815  40.757   7.273  1.00  0.00     0.174 HD
ENDBRANCH  10  22
TORSDOF 5
ENDMDL
MODEL 5
REMARK VINA RESULT: -7.242881192      1.557      2.159
REMARK  5 active torsions:
REMARK  status: ('A' for Active; 'I' for Inactive)
REMARK    1  A    between atoms: N2_5  and  C4_6 
REMARK    2  A    between atoms: C4_6  and  C5_7 
REMARK    3  A    between atoms: C5_7  and  C6_8 
REMARK    4  A    between atoms: C6_8  and  N3_9 
REMARK    5  A    between atoms: C11_18  and  N5_19 
ROOT
HETATM    1  N3  UNL     1       2.297  42.075   2.506  1.00  0.00    -0.376 N 
ATOM      2  H3  UNL     1       3.201  42.409   2.841  1.00  0.00     0.161 HD
HETATM    3  C7  UNL     1       1.488  42.954   2.071  1.00  0.00     0.117 C 
HETATM    4  C8  UNL     1       0.276  42.502   1.622  1.00  0.00     0.054 C 
HETATM    5  C9  UNL     1      -0.514  43.119   0.675  1.00  0.00     0.079 C 
HETATM    6  C10 UNL     1      -0.450  44.398   0.174  1.00  0.00     0.259 C 
HETATM    7  O1  UNL     1      -1.240  44.721  -0.754  1.00  0.00    -0.268 OA
HETATM    8  N4  UNL     1       0.398  45.383   0.584  1.00  0.00    -0.156 N 
ATOM      9  H4  UNL     1       0.211  46.309   0.198  1.00  0.00     0.187 HD
HETATM   10  C11 UNL     1       1.435  45.312   1.417  1.00  0.00     0.680 C 
HETATM   11  N6  UNL     1       1.913  44.225   2.098  1.00  0.00    -0.177 N 
ATOM     12  H6  UNL     1       2.705  44.409   2.713  1.00  0.00     0.185 HD
ENDROOT
BRANCH   1  13
HETATM   13  C6  UNL     1       2.065  40.652   2.575  1.00  0.00     0.123 C 
BRANCH  13  14
HETATM   14  C5  UNL     1       2.382  40.091   3.933  1.00  0.00     0.040 C 
BRANCH  14  15
HETATM   15  C4  UNL     1       1.635  40.771   5.041  1.00  0.00     0.131 C 
BRANCH  15  16
HETATM   16  N2  UNL     1       2.308  42.000   5.403  1.00  0.00    -0.351 N 
HETATM   17  C3  UNL     1       3.656  42.128   5.615  1.00  0.00     0.109 A 
HETATM   18  C2  UNL     1       3.912  43.447   5.918  1.00  0.00     0.108 A 
HETATM   19  N1  UNL     1       2.755  44.129   5.897  1.00  0.00    -0.356 N 
HETATM   20  C1  UNL     1       2.587  45.557   6.164  1.00  0.00     0.156 C 
HETATM   21  C12 UNL     1       1.806  43.237   5.586  1.00  0.00     0.184 A 
ENDBRANCH  15  16
ENDBRANCH  14  15
ENDBRANCH  13  14
ENDBRANCH   1  13
BRANCH  10  22
HETATM   22  N5  UNL     1       2.076  46.426   1.604  1.00  0.00    -0.234 N 
ATOM     23  H52 UNL     1       1.736  47.231   1.077  1.00  0.00     0.174 HD
ATOM     24  H51 UNL     1       2.854  46.377   2.262  1.00  0.00     0.174 HD
ENDBRANCH  10  22
TORSDOF 5
ENDMDL
