MODEL 1
REMARK VINA RESULT: -6.139915462      0.000      0.000
REMARK  3 active torsions:
REMARK  status: ('A' for Active; 'I' for Inactive)
REMARK    1  A    between atoms: N1_1  and  N2_4 
REMARK       I    between atoms: N2_4  and  C1_6 
REMARK    2  A    between atoms: C1_6  and  C2_8 
REMARK       I    between atoms: C2_8  and  N3_10 
REMARK    3  A    between atoms: N3_10  and  N4_12 
REMARK       I    between atoms: N4_12  and  C3_14 
ROOT
HETATM    1  C2  UNL     1      14.386  35.948  42.050  1.00  0.00     0.329 C 
HETATM    2  O2  UNL     1      15.007  35.171  41.260  1.00  0.00    -0.261 OA
HETATM    3  N3  UNL     1      13.364  35.510  42.902  1.00  0.00    -0.258 N 
ATOM      4  H3  UNL     1      12.913  36.195  43.509  1.00  0.00     0.190 HD
ENDROOT
BRANCH   1   5
HETATM    5  C1  UNL     1      14.786  37.360  42.042  1.00  0.00     0.329 C 
HETATM    6  N2  UNL     1      16.074  37.773  42.495  1.00  0.00    -0.268 N 
ATOM      7  H2  UNL     1      16.754  37.094  42.839  1.00  0.00     0.190 HD
HETATM    8  O1  UNL     1      13.947  38.216  41.615  1.00  0.00    -0.261 OA
BRANCH   6   9
HETATM    9  N1  UNL     1      16.373  39.134  42.453  1.00  0.00    -0.342 N 
ATOM     10  H12 UNL     1      17.000  39.499  41.735  1.00  0.00     0.176 HD
ATOM     11  H11 UNL     1      15.946  39.737  43.156  1.00  0.00     0.176 HD
ENDBRANCH   6   9
ENDBRANCH   1   5
BRANCH   3  12
HETATM   12  N4  UNL     1      12.929  34.186  42.965  1.00  0.00    -0.251 N 
HETATM   13  C3  UNL     1      11.848  33.710  42.174  1.00  0.00     0.347 C 
HETATM   14  N5  UNL     1      11.416  32.368  42.246  1.00  0.00    -0.038 NA
HETATM   15  O3  UNL     1      11.279  34.548  41.392  1.00  0.00    -0.249 OA
ATOM     16  H4  UNL     1      13.401  33.540  43.598  1.00  0.00     0.191 HD
ENDBRANCH   3  12
TORSDOF 3
ENDMDL
MODEL 2
REMARK VINA RESULT: -6.051453619      3.104      4.029
REMARK  3 active torsions:
REMARK  status: ('A' for Active; 'I' for Inactive)
REMARK    1  A    between atoms: N1_1  and  N2_4 
REMARK       I    between atoms: N2_4  and  C1_6 
REMARK    2  A    between atoms: C1_6  and  C2_8 
REMARK       I    between atoms: C2_8  and  N3_10 
REMARK    3  A    between atoms: N3_10  and  N4_12 
REMARK       I    between atoms: N4_12  and  C3_14 
ROOT
HETATM    1  C2  UNL     1      15.136  37.547  42.340  1.00  0.00     0.329 C 
HETATM    2  O2  UNL     1      16.091  38.384  42.326  1.00  0.00    -0.261 OA
HETATM    3  N3  UNL     1      15.270  36.231  41.878  1.00  0.00    -0.258 N 
ATOM      4  H3  UNL     1      14.456  35.618  41.923  1.00  0.00     0.190 HD
ENDROOT
BRANCH   1   5
HETATM    5  C1  UNL     1      13.850  38.016  42.869  1.00  0.00     0.329 C 
HETATM    6  N2  UNL     1      13.748  38.606  44.164  1.00  0.00    -0.268 N 
ATOM      7  H2  UNL     1      14.571  38.717  44.759  1.00  0.00     0.190 HD
HETATM    8  O1  UNL     1      12.818  37.883  42.138  1.00  0.00    -0.261 OA
BRANCH   6   9
HETATM    9  N1  UNL     1      12.489  39.025  44.591  1.00  0.00    -0.342 N 
ATOM     10  H12 UNL     1      12.133  38.734  45.501  1.00  0.00     0.176 HD
ATOM     11  H11 UNL     1      11.950  39.624  43.965  1.00  0.00     0.176 HD
ENDBRANCH   6   9
ENDBRANCH   1   5
BRANCH   3  12
HETATM   12  N4  UNL     1      16.458  35.714  41.360  1.00  0.00    -0.251 N 
HETATM   13  C3  UNL     1      16.585  35.340  39.995  1.00  0.00     0.347 C 
HETATM   14  N5  UNL     1      17.791  34.818  39.481  1.00  0.00    -0.038 NA
HETATM   15  O3  UNL     1      15.559  35.496  39.246  1.00  0.00    -0.249 OA
ATOM     16  H4  UNL     1      17.259  35.601  41.980  1.00  0.00     0.191 HD
ENDBRANCH   3  12
TORSDOF 3
ENDMDL
MODEL 3
REMARK VINA RESULT: -6.028564608      1.590      1.724
REMARK  3 active torsions:
REMARK  status: ('A' for Active; 'I' for Inactive)
REMARK    1  A    between atoms: N1_1  and  N2_4 
REMARK       I    between atoms: N2_4  and  C1_6 
REMARK    2  A    between atoms: C1_6  and  C2_8 
REMARK       I    between atoms: C2_8  and  N3_10 
REMARK    3  A    between atoms: N3_10  and  N4_12 
REMARK       I    between atoms: N4_12  and  C3_14 
ROOT
HETATM    1  C2  UNL     1      12.952  36.900  41.875  1.00  0.00     0.329 C 
HETATM    2  O2  UNL     1      11.877  37.411  41.429  1.00  0.00    -0.261 OA
HETATM    3  N3  UNL     1      13.058  35.554  42.250  1.00  0.00    -0.258 N 
ATOM      4  H3  UNL     1      13.955  35.218  42.598  1.00  0.00     0.190 HD
ENDROOT
BRANCH   1   5
HETATM    5  C1  UNL     1      14.113  37.791  41.987  1.00  0.00     0.329 C 
HETATM    6  N2  UNL     1      15.377  37.314  42.443  1.00  0.00    -0.268 N 
ATOM      7  H2  UNL     1      15.508  36.336  42.704  1.00  0.00     0.190 HD
HETATM    8  O1  UNL     1      13.962  39.013  41.664  1.00  0.00    -0.261 OA
BRANCH   6   9
HETATM    9  N1  UNL     1      16.428  38.227  42.519  1.00  0.00    -0.342 N 
ATOM     10  H12 UNL     1      16.253  39.186  42.819  1.00  0.00     0.176 HD
ATOM     11  H11 UNL     1      17.361  37.901  42.267  1.00  0.00     0.176 HD
ENDBRANCH   6   9
ENDBRANCH   1   5
BRANCH   3  12
HETATM   12  N4  UNL     1      11.999  34.649  42.173  1.00  0.00    -0.251 N 
HETATM   13  C3  UNL     1      12.142  33.287  42.557  1.00  0.00     0.347 C 
HETATM   14  N5  UNL     1      11.065  32.380  42.475  1.00  0.00    -0.038 NA
HETATM   15  O3  UNL     1      13.291  32.915  42.981  1.00  0.00    -0.249 OA
ATOM     16  H4  UNL     1      11.095  34.974  41.832  1.00  0.00     0.191 HD
ENDBRANCH   3  12
TORSDOF 3
ENDMDL
MODEL 4
REMARK VINA RESULT: -6.026395225      2.680      2.797
REMARK  3 active torsions:
REMARK  status: ('A' for Active; 'I' for Inactive)
REMARK    1  A    between atoms: N1_1  and  N2_4 
REMARK       I    between atoms: N2_4  and  C1_6 
REMARK    2  A    between atoms: C1_6  and  C2_8 
REMARK       I    between atoms: C2_8  and  N3_10 
REMARK    3  A    between atoms: N3_10  and  N4_12 
REMARK       I    between atoms: N4_12  and  C3_14 
ROOT
HETATM    1  C2  UNL     1      12.922  37.486  41.598  1.00  0.00     0.329 C 
HETATM    2  O2  UNL     1      12.635  38.214  40.598  1.00  0.00    -0.261 OA
HETATM    3  N3  UNL     1      13.041  36.092  41.517  1.00  0.00    -0.258 N 
ATOM      4  H3  UNL     1      13.276  35.576  42.365  1.00  0.00     0.190 HD
ENDROOT
BRANCH   1   5
HETATM    5  C1  UNL     1      13.132  38.171  42.879  1.00  0.00     0.329 C 
HETATM    6  N2  UNL     1      13.539  37.460  44.047  1.00  0.00    -0.268 N 
ATOM      7  H2  UNL     1      13.695  36.452  44.022  1.00  0.00     0.190 HD
HETATM    8  O1  UNL     1      12.939  39.428  42.923  1.00  0.00    -0.261 OA
BRANCH   6   9
HETATM    9  N1  UNL     1      13.715  38.188  45.223  1.00  0.00    -0.342 N 
ATOM     10  H12 UNL     1      13.337  39.132  45.303  1.00  0.00     0.176 HD
ATOM     11  H11 UNL     1      14.229  37.744  45.985  1.00  0.00     0.176 HD
ENDBRANCH   6   9
ENDBRANCH   1   5
BRANCH   3  12
HETATM   12  N4  UNL     1      12.855  35.372  40.336  1.00  0.00    -0.251 N 
HETATM   13  C3  UNL     1      11.587  34.846  39.966  1.00  0.00     0.347 C 
HETATM   14  N5  UNL     1      11.410  34.119  38.770  1.00  0.00    -0.038 NA
HETATM   15  O3  UNL     1      10.608  35.060  40.762  1.00  0.00    -0.249 OA
ATOM     16  H4  UNL     1      13.653  35.217  39.721  1.00  0.00     0.191 HD
ENDBRANCH   3  12
TORSDOF 3
ENDMDL
MODEL 5
REMARK VINA RESULT: -5.991978517      1.697      5.338
REMARK  3 active torsions:
REMARK  status: ('A' for Active; 'I' for Inactive)
REMARK    1  A    between atoms: N1_1  and  N2_4 
REMARK       I    between atoms: N2_4  and  C1_6 
REMARK    2  A    between atoms: C1_6  and  C2_8 
REMARK       I    between atoms: C2_8  and  N3_10 
REMARK    3  A    between atoms: N3_10  and  N4_12 
REMARK       I    between atoms: N4_12  and  C3_14 
ROOT
HETATM    1  C2  UNL     1      14.503  37.041  42.031  1.00  0.00     0.329 C 
HETATM    2  O2  UNL     1      13.969  37.541  40.991  1.00  0.00    -0.261 OA
HETATM    3  N3  UNL     1      15.486  37.706  42.776  1.00  0.00    -0.258 N 
ATOM      4  H3  UNL     1      15.866  37.240  43.599  1.00  0.00     0.190 HD
ENDROOT
BRANCH   1   5
HETATM    5  C1  UNL     1      14.045  35.707  42.436  1.00  0.00     0.329 C 
HETATM    6  N2  UNL     1      13.699  35.418  43.789  1.00  0.00    -0.268 N 
ATOM      7  H2  UNL     1      13.762  36.134  44.514  1.00  0.00     0.190 HD
HETATM    8  O1  UNL     1      13.963  34.806  41.542  1.00  0.00    -0.261 OA
BRANCH   6   9
HETATM    9  N1  UNL     1      13.273  34.124  44.089  1.00  0.00    -0.342 N 
ATOM     10  H12 UNL     1      12.389  33.976  44.576  1.00  0.00     0.176 HD
ATOM     11  H11 UNL     1      13.871  33.348  43.805  1.00  0.00     0.176 HD
ENDBRANCH   6   9
ENDBRANCH   1   5
BRANCH   3  12
HETATM   12  N4  UNL     1      15.972  38.973  42.452  1.00  0.00    -0.251 N 
HETATM   13  C3  UNL     1      15.290  40.161  42.833  1.00  0.00     0.347 C 
HETATM   14  N5  UNL     1      15.791  41.438  42.500  1.00  0.00    -0.038 NA
HETATM   15  O3  UNL     1      14.202  40.028  43.493  1.00  0.00    -0.249 OA
ATOM     16  H4  UNL     1      16.842  39.049  41.926  1.00  0.00     0.191 HD
ENDBRANCH   3  12
TORSDOF 3
ENDMDL
