MODEL 1
REMARK VINA RESULT: -7.366829376      0.000      0.000
REMARK  1 active torsions:
REMARK  status: ('A' for Active; 'I' for Inactive)
REMARK       I    between atoms: C1_2  and  N2_4 
REMARK    1  A    between atoms: N2_4  and  C2_6 
ROOT
HETATM    1  C2  UNL     1      14.424  37.193  43.167  1.00  0.00     0.157 A 
HETATM    2  C3  UNL     1      13.729  38.290  43.500  1.00  0.00     0.140 A 
HETATM    3  N3  UNL     1      12.587  38.805  43.981  1.00  0.00    -0.292 N 
ATOM      4  H3  UNL     1      11.718  38.384  44.308  1.00  0.00     0.187 HD
HETATM    5  N4  UNL     1      12.999  40.058  43.877  1.00  0.00    -0.282 N 
ATOM      6  H4  UNL     1      12.612  40.980  44.077  1.00  0.00     0.188 HD
HETATM    7  C4  UNL     1      14.168  39.567  43.385  1.00  0.00     0.168 A 
HETATM    8  N5  UNL     1      15.339  39.854  42.931  1.00  0.00    -0.268 N 
ATOM      9  H5  UNL     1      15.662  40.817  42.849  1.00  0.00     0.190 HD
HETATM   10  N6  UNL     1      16.137  38.779  42.558  1.00  0.00    -0.239 N 
ATOM     11  H6  UNL     1      17.070  38.973  42.194  1.00  0.00     0.208 HD
HETATM   12  N7  UNL     1      15.722  37.427  42.658  1.00  0.00    -0.269 N 
ATOM     13  H7  UNL     1      16.331  36.659  42.376  1.00  0.00     0.190 HD
ENDROOT
BRANCH   1  14
HETATM   14  N2  UNL     1      13.872  35.906  43.326  1.00  0.00    -0.294 N 
HETATM   15  C1  UNL     1      13.764  34.872  42.403  1.00  0.00     0.334 C 
HETATM   16  N1  UNL     1      13.158  33.624  42.779  1.00  0.00    -0.040 NA
HETATM   17  O1  UNL     1      14.169  34.950  41.232  1.00  0.00    -0.251 OA
ATOM     18  H2  UNL     1      13.498  35.703  44.252  1.00  0.00     0.172 HD
ENDBRANCH   1  14
TORSDOF 1
ENDMDL
MODEL 2
REMARK VINA RESULT: -7.158053960      1.608      2.095
REMARK  1 active torsions:
REMARK  status: ('A' for Active; 'I' for Inactive)
REMARK       I    between atoms: C1_2  and  N2_4 
REMARK    1  A    between atoms: N2_4  and  C2_6 
ROOT
HETATM    1  C2  UNL     1      13.864  35.763  42.226  1.00  0.00     0.157 A 
HETATM    2  C3  UNL     1      13.894  36.968  42.813  1.00  0.00     0.140 A 
HETATM    3  N3  UNL     1      13.226  37.920  43.482  1.00  0.00    -0.292 N 
ATOM      4  H3  UNL     1      12.262  37.995  43.807  1.00  0.00     0.187 HD
HETATM    5  N4  UNL     1      14.271  38.726  43.568  1.00  0.00    -0.282 N 
ATOM      6  H4  UNL     1      14.462  39.646  43.965  1.00  0.00     0.188 HD
HETATM    7  C4  UNL     1      14.976  37.780  42.890  1.00  0.00     0.168 A 
HETATM    8  N5  UNL     1      16.118  37.455  42.389  1.00  0.00    -0.268 N 
ATOM      9  H5  UNL     1      16.927  38.072  42.453  1.00  0.00     0.190 HD
HETATM   10  N6  UNL     1      16.186  36.219  41.758  1.00  0.00    -0.239 N 
ATOM     11  H6  UNL     1      17.076  35.933  41.351  1.00  0.00     0.208 HD
HETATM   12  N7  UNL     1      15.081  35.336  41.650  1.00  0.00    -0.269 N 
ATOM     13  H7  UNL     1      15.162  34.434  41.180  1.00  0.00     0.190 HD
ENDROOT
BRANCH   1  14
HETATM   14  N2  UNL     1      12.681  34.996  42.200  1.00  0.00    -0.294 N 
HETATM   15  C1  UNL     1      12.491  33.656  42.517  1.00  0.00     0.334 C 
HETATM   16  N1  UNL     1      11.184  33.066  42.421  1.00  0.00    -0.040 NA
HETATM   17  O1  UNL     1      13.403  32.902  42.892  1.00  0.00    -0.251 OA
ATOM     18  H2  UNL     1      11.843  35.498  41.907  1.00  0.00     0.172 HD
ENDBRANCH   1  14
TORSDOF 1
ENDMDL
MODEL 3
REMARK VINA RESULT: -7.051231859      2.249      2.938
REMARK  1 active torsions:
REMARK  status: ('A' for Active; 'I' for Inactive)
REMARK       I    between atoms: C1_2  and  N2_4 
REMARK    1  A    between atoms: N2_4  and  C2_6 
ROOT
HETATM    1  C2  UNL     1      13.142  36.002  41.825  1.00  0.00     0.157 A 
HETATM    2  C3  UNL     1      13.486  37.284  42.015  1.00  0.00     0.140 A 
HETATM    3  N3  UNL     1      13.569  38.523  41.507  1.00  0.00    -0.292 N 
ATOM      4  H3  UNL     1      13.326  38.919  40.600  1.00  0.00     0.187 HD
HETATM    5  N4  UNL     1      14.082  39.042  42.610  1.00  0.00    -0.282 N 
ATOM      6  H4  UNL     1      14.391  39.965  42.916  1.00  0.00     0.188 HD
HETATM    7  C4  UNL     1      14.011  37.798  43.154  1.00  0.00     0.168 A 
HETATM    8  N5  UNL     1      14.233  37.075  44.197  1.00  0.00    -0.268 N 
ATOM      9  H5  UNL     1      14.626  37.470  45.051  1.00  0.00     0.190 HD
HETATM   10  N6  UNL     1      13.907  35.728  44.096  1.00  0.00    -0.239 N 
ATOM     11  H6  UNL     1      14.071  35.129  44.905  1.00  0.00     0.208 HD
HETATM   12  N7  UNL     1      13.357  35.144  42.926  1.00  0.00    -0.269 N 
ATOM     13  H7  UNL     1      13.128  34.151  42.882  1.00  0.00     0.190 HD
ENDROOT
BRANCH   1  14
HETATM   14  N2  UNL     1      12.603  35.569  40.596  1.00  0.00    -0.294 N 
HETATM   15  C1  UNL     1      11.933  34.390  40.293  1.00  0.00     0.334 C 
HETATM   16  N1  UNL     1      11.461  34.146  38.957  1.00  0.00    -0.040 NA
HETATM   17  O1  UNL     1      11.702  33.497  41.124  1.00  0.00    -0.251 OA
ATOM     18  H2  UNL     1      12.722  36.215  39.816  1.00  0.00     0.172 HD
ENDBRANCH   1  14
TORSDOF 1
ENDMDL
MODEL 4
REMARK VINA RESULT: -7.011102900      1.660      2.385
REMARK  1 active torsions:
REMARK  status: ('A' for Active; 'I' for Inactive)
REMARK       I    between atoms: C1_2  and  N2_4 
REMARK    1  A    between atoms: N2_4  and  C2_6 
ROOT
HETATM    1  C2  UNL     1      14.755  37.602  42.911  1.00  0.00     0.157 A 
HETATM    2  C3  UNL     1      14.291  38.847  42.727  1.00  0.00     0.140 A 
HETATM    3  N3  UNL     1      14.230  39.928  41.935  1.00  0.00    -0.292 N 
ATOM      4  H3  UNL     1      14.627  40.143  41.021  1.00  0.00     0.187 HD
HETATM    5  N4  UNL     1      13.469  40.614  42.771  1.00  0.00    -0.282 N 
ATOM      6  H4  UNL     1      13.041  41.539  42.789  1.00  0.00     0.188 HD
HETATM    7  C4  UNL     1      13.511  39.534  43.597  1.00  0.00     0.168 A 
HETATM    8  N5  UNL     1      13.130  39.034  44.721  1.00  0.00    -0.268 N 
ATOM      9  H5  UNL     1      12.542  39.557  45.370  1.00  0.00     0.190 HD
HETATM   10  N6  UNL     1      13.562  37.743  45.002  1.00  0.00    -0.239 N 
ATOM     11  H6  UNL     1      13.276  37.320  45.885  1.00  0.00     0.208 HD
HETATM   12  N7  UNL     1      14.379  36.985  44.125  1.00  0.00    -0.269 N 
ATOM     13  H7  UNL     1      14.681  36.040  44.359  1.00  0.00     0.190 HD
ENDROOT
BRANCH   1  14
HETATM   14  N2  UNL     1      15.563  36.977  41.939  1.00  0.00    -0.294 N 
HETATM   15  C1  UNL     1      15.373  35.768  41.280  1.00  0.00     0.334 C 
HETATM   16  N1  UNL     1      16.334  35.311  40.313  1.00  0.00    -0.040 NA
HETATM   17  O1  UNL     1      14.398  35.025  41.471  1.00  0.00    -0.251 OA
ATOM     18  H2  UNL     1      16.409  37.485  41.683  1.00  0.00     0.172 HD
ENDBRANCH   1  14
TORSDOF 1
ENDMDL
MODEL 5
REMARK VINA RESULT: -6.981918030      2.323      3.312
REMARK  1 active torsions:
REMARK  status: ('A' for Active; 'I' for Inactive)
REMARK       I    between atoms: C1_2  and  N2_4 
REMARK    1  A    between atoms: N2_4  and  C2_6 
ROOT
HETATM    1  C2  UNL     1      13.255  36.491  41.556  1.00  0.00     0.157 A 
HETATM    2  C3  UNL     1      14.535  36.731  41.875  1.00  0.00     0.140 A 
HETATM    3  N3  UNL     1      15.829  36.452  41.657  1.00  0.00    -0.292 N 
ATOM      4  H3  UNL     1      16.304  35.813  41.020  1.00  0.00     0.187 HD
HETATM    5  N4  UNL     1      16.264  37.306  42.568  1.00  0.00    -0.282 N 
ATOM      6  H4  UNL     1      17.172  37.603  42.926  1.00  0.00     0.188 HD
HETATM    7  C4  UNL     1      14.962  37.611  42.813  1.00  0.00     0.168 A 
HETATM    8  N5  UNL     1      14.145  38.325  43.509  1.00  0.00    -0.268 N 
ATOM      9  H5  UNL     1      14.475  38.986  44.212  1.00  0.00     0.190 HD
HETATM   10  N6  UNL     1      12.792  38.146  43.249  1.00  0.00    -0.239 N 
ATOM     11  H6  UNL     1      12.120  38.696  43.784  1.00  0.00     0.208 HD
HETATM   12  N7  UNL     1      12.297  37.237  42.279  1.00  0.00    -0.269 N 
ATOM     13  H7  UNL     1      11.297  37.127  42.111  1.00  0.00     0.190 HD
ENDROOT
BRANCH   1  14
HETATM   14  N2  UNL     1      12.918  35.551  40.561  1.00  0.00    -0.294 N 
HETATM   15  C1  UNL     1      11.669  35.062  40.196  1.00  0.00     0.334 C 
HETATM   16  N1  UNL     1      11.549  34.094  39.139  1.00  0.00    -0.040 NA
HETATM   17  O1  UNL     1      10.608  35.413  40.736  1.00  0.00    -0.251 OA
ATOM     18  H2  UNL     1      13.704  35.176  40.031  1.00  0.00     0.172 HD
ENDBRANCH   1  14
TORSDOF 1
ENDMDL
