MODEL 1
REMARK VINA RESULT: -7.350238231      0.000      0.000
REMARK  0 active torsions:
REMARK  status: ('A' for Active; 'I' for Inactive)
REMARK       I    between atoms: C1_4  and  N3_6 
ROOT
HETATM    1  N1  UNL     1      14.092  36.353  43.921  1.00  0.00    -0.373 N 
ATOM      2  H11 UNL     1      14.715  36.748  44.625  1.00  0.00     0.158 HD
ATOM      3  H12 UNL     1      13.686  35.421  44.004  1.00  0.00     0.158 HD
HETATM    4  C1  UNL     1      13.808  37.062  42.888  1.00  0.00     0.200 C 
HETATM    5  N2  UNL     1      12.940  36.513  41.909  1.00  0.00    -0.063 NA
HETATM    6  N3  UNL     1      14.374  38.362  42.772  1.00  0.00    -0.187 N 
HETATM    7  C2  UNL     1      15.661  38.580  42.454  1.00  0.00     0.341 A 
HETATM    8  O1  UNL     1      16.400  37.586  42.247  1.00  0.00    -0.246 OA
HETATM    9  N4  UNL     1      16.212  39.795  42.340  1.00  0.00    -0.260 N 
ATOM     10  H4  UNL     1      17.196  39.903  42.094  1.00  0.00     0.175 HD
HETATM   11  C3  UNL     1      15.434  40.871  42.558  1.00  0.00     0.332 A 
HETATM   12  O2  UNL     1      15.927  42.038  42.458  1.00  0.00    -0.246 OA
HETATM   13  N5  UNL     1      14.123  40.707  42.884  1.00  0.00    -0.260 N 
ATOM     14  H5  UNL     1      13.527  41.519  43.050  1.00  0.00     0.175 HD
HETATM   15  C4  UNL     1      13.621  39.463  42.984  1.00  0.00     0.341 A 
HETATM   16  O3  UNL     1      12.401  39.370  43.289  1.00  0.00    -0.246 OA
ENDROOT
TORSDOF 0
ENDMDL
MODEL 2
REMARK VINA RESULT: -6.959479149      0.380      2.489
REMARK  0 active torsions:
REMARK  status: ('A' for Active; 'I' for Inactive)
REMARK       I    between atoms: C1_4  and  N3_6 
ROOT
HETATM    1  N1  UNL     1      13.023  36.743  42.496  1.00  0.00    -0.373 N 
ATOM      2  H11 UNL     1      12.762  37.244  41.646  1.00  0.00     0.158 HD
ATOM      3  H12 UNL     1      12.638  35.831  42.738  1.00  0.00     0.158 HD
HETATM    4  C1  UNL     1      13.871  37.289  43.291  1.00  0.00     0.200 C 
HETATM    5  N2  UNL     1      14.235  36.593  44.473  1.00  0.00    -0.063 NA
HETATM    6  N3  UNL     1      14.408  38.562  42.953  1.00  0.00    -0.187 N 
HETATM    7  C2  UNL     1      13.713  39.707  43.058  1.00  0.00     0.341 A 
HETATM    8  O1  UNL     1      12.531  39.649  43.478  1.00  0.00    -0.246 OA
HETATM    9  N4  UNL     1      14.200  40.914  42.745  1.00  0.00    -0.260 N 
ATOM     10  H4  UNL     1      13.628  41.752  42.846  1.00  0.00     0.175 HD
HETATM   11  C3  UNL     1      15.466  40.994  42.293  1.00  0.00     0.332 A 
HETATM   12  O2  UNL     1      15.957  42.125  41.988  1.00  0.00    -0.246 OA
HETATM   13  N5  UNL     1      16.214  39.865  42.167  1.00  0.00    -0.260 N 
ATOM     14  H5  UNL     1      17.175  39.918  41.826  1.00  0.00     0.175 HD
HETATM   15  C4  UNL     1      15.675  38.677  42.497  1.00  0.00     0.341 A 
HETATM   16  O3  UNL     1      16.413  37.665  42.360  1.00  0.00    -0.246 OA
ENDROOT
TORSDOF 0
ENDMDL
MODEL 3
REMARK VINA RESULT: -6.798282383      2.305      4.233
REMARK  0 active torsions:
REMARK  status: ('A' for Active; 'I' for Inactive)
REMARK       I    between atoms: C1_4  and  N3_6 
ROOT
HETATM    1  N1  UNL     1      14.693  39.915  43.560  1.00  0.00    -0.373 N 
ATOM      2  H11 UNL     1      15.545  39.398  43.344  1.00  0.00     0.158 HD
ATOM      3  H12 UNL     1      14.703  40.885  43.874  1.00  0.00     0.158 HD
HETATM    4  C1  UNL     1      13.564  39.317  43.431  1.00  0.00     0.200 C 
HETATM    5  N2  UNL     1      12.379  40.037  43.731  1.00  0.00    -0.063 NA
HETATM    6  N3  UNL     1      13.552  37.964  42.993  1.00  0.00    -0.187 N 
HETATM    7  C2  UNL     1      13.903  36.931  43.777  1.00  0.00     0.341 A 
HETATM    8  O1  UNL     1      14.260  37.174  44.956  1.00  0.00    -0.246 OA
HETATM    9  N4  UNL     1      13.898  35.651  43.383  1.00  0.00    -0.260 N 
ATOM     10  H4  UNL     1      14.174  34.906  44.022  1.00  0.00     0.175 HD
HETATM   11  C3  UNL     1      13.518  35.374  42.122  1.00  0.00     0.332 A 
HETATM   12  O2  UNL     1      13.502  34.169  41.718  1.00  0.00    -0.246 OA
HETATM   13  N5  UNL     1      13.152  36.382  41.285  1.00  0.00    -0.260 N 
ATOM     14  H5  UNL     1      12.862  36.179  40.328  1.00  0.00     0.175 HD
HETATM   15  C4  UNL     1      13.175  37.650  41.733  1.00  0.00     0.341 A 
HETATM   16  O3  UNL     1      12.827  38.544  40.915  1.00  0.00    -0.246 OA
ENDROOT
TORSDOF 0
ENDMDL
MODEL 4
REMARK VINA RESULT: -6.721880637      3.286      5.417
REMARK  0 active torsions:
REMARK  status: ('A' for Active; 'I' for Inactive)
REMARK       I    between atoms: C1_4  and  N3_6 
ROOT
HETATM    1  N1  UNL     1      13.047  37.891  43.246  1.00  0.00    -0.373 N 
ATOM      2  H11 UNL     1      12.035  37.769  43.244  1.00  0.00     0.158 HD
ATOM      3  H12 UNL     1      13.530  38.484  43.920  1.00  0.00     0.158 HD
HETATM    4  C1  UNL     1      13.740  37.271  42.359  1.00  0.00     0.200 C 
HETATM    5  N2  UNL     1      15.149  37.441  42.361  1.00  0.00    -0.063 NA
HETATM    6  N3  UNL     1      13.066  36.444  41.418  1.00  0.00    -0.187 N 
HETATM    7  C2  UNL     1      12.353  36.928  40.388  1.00  0.00     0.341 A 
HETATM    8  O1  UNL     1      12.278  38.174  40.250  1.00  0.00    -0.246 OA
HETATM    9  N4  UNL     1      11.712  36.166  39.493  1.00  0.00    -0.260 N 
ATOM     10  H4  UNL     1      11.186  36.587  38.728  1.00  0.00     0.175 HD
HETATM   11  C3  UNL     1      11.782  34.829  39.627  1.00  0.00     0.332 A 
HETATM   12  O2  UNL     1      11.185  34.078  38.793  1.00  0.00    -0.246 OA
HETATM   13  N5  UNL     1      12.492  34.285  40.653  1.00  0.00    -0.260 N 
ATOM     14  H5  UNL     1      12.549  33.272  40.761  1.00  0.00     0.175 HD
HETATM   15  C4  UNL     1      13.116  35.098  41.524  1.00  0.00     0.341 A 
HETATM   16  O3  UNL     1      13.758  34.540  42.455  1.00  0.00    -0.246 OA
ENDROOT
TORSDOF 0
ENDMDL
MODEL 5
REMARK VINA RESULT: -6.617603583      3.316      5.186
REMARK  0 active torsions:
REMARK  status: ('A' for Active; 'I' for Inactive)
REMARK       I    between atoms: C1_4  and  N3_6 
ROOT
HETATM    1  N1  UNL     1      15.429  36.793  42.112  1.00  0.00    -0.373 N 
ATOM      2  H11 UNL     1      15.776  36.258  41.315  1.00  0.00     0.158 HD
ATOM      3  H12 UNL     1      16.049  37.268  42.768  1.00  0.00     0.158 HD
HETATM    4  C1  UNL     1      14.160  36.868  42.293  1.00  0.00     0.200 C 
HETATM    5  N2  UNL     1      13.678  37.611  43.402  1.00  0.00    -0.063 NA
HETATM    6  N3  UNL     1      13.296  36.205  41.378  1.00  0.00    -0.187 N 
HETATM    7  C2  UNL     1      13.121  34.873  41.361  1.00  0.00     0.341 A 
HETATM    8  O1  UNL     1      13.752  34.180  42.196  1.00  0.00    -0.246 OA
HETATM    9  N4  UNL     1      12.313  34.231  40.507  1.00  0.00    -0.260 N 
ATOM     10  H4  UNL     1      12.217  33.217  40.540  1.00  0.00     0.175 HD
HETATM   11  C3  UNL     1      11.630  34.960  39.605  1.00  0.00     0.332 A 
HETATM   12  O2  UNL     1      10.855  34.380  38.782  1.00  0.00    -0.246 OA
HETATM   13  N5  UNL     1      11.770  36.313  39.579  1.00  0.00    -0.260 N 
ATOM     14  H5  UNL     1      11.255  36.872  38.897  1.00  0.00     0.175 HD
HETATM   15  C4  UNL     1      12.596  36.907  40.460  1.00  0.00     0.341 A 
HETATM   16  O3  UNL     1      12.688  38.162  40.389  1.00  0.00    -0.246 OA
ENDROOT
TORSDOF 0
ENDMDL
