MODEL 1
REMARK VINA RESULT: -6.627758533      0.000      0.000
REMARK  3 active torsions:
REMARK  status: ('A' for Active; 'I' for Inactive)
REMARK    1  A    between atoms: N1_1  and  N2_4 
REMARK    2  A    between atoms: N2_4  and  C1_6 
REMARK    3  A    between atoms: N6_16  and  C4_18 
ROOT
HETATM    1  C1  UNL     1      14.002  38.212  42.904  1.00  0.00     0.170 A 
HETATM    2  N3  UNL     1      13.370  37.010  42.901  1.00  0.00    -0.289 N 
ATOM      3  H3  UNL     1      12.405  36.946  43.225  1.00  0.00     0.172 HD
HETATM    4  C2  UNL     1      14.003  35.908  42.474  1.00  0.00     0.340 A 
HETATM    5  O1  UNL     1      13.358  34.831  42.498  1.00  0.00    -0.245 OA
HETATM    6  N4  UNL     1      15.272  36.002  42.051  1.00  0.00    -0.250 N 
ATOM      7  H4  UNL     1      15.735  35.151  41.730  1.00  0.00     0.192 HD
HETATM    8  N5  UNL     1      15.952  37.125  42.023  1.00  0.00    -0.278 N 
ATOM      9  H5  UNL     1      16.917  37.154  41.693  1.00  0.00     0.189 HD
HETATM   10  C3  UNL     1      15.313  38.257  42.457  1.00  0.00     0.168 A 
HETATM   11  N6  UNL     1      15.935  39.362  42.447  1.00  0.00    -0.316 N 
ATOM     12  H6  UNL     1      16.897  39.355  42.111  1.00  0.00     0.170 HD
ENDROOT
BRANCH   1  13
HETATM   13  N2  UNL     1      13.404  39.278  43.312  1.00  0.00    -0.289 N 
ATOM     14  H2  UNL     1      13.623  40.192  42.915  1.00  0.00     0.188 HD
BRANCH  13  15
HETATM   15  N1  UNL     1      12.443  39.138  44.315  1.00  0.00    -0.344 N 
ATOM     16  H12 UNL     1      12.475  39.732  45.143  1.00  0.00     0.176 HD
ATOM     17  H11 UNL     1      11.723  38.428  44.184  1.00  0.00     0.176 HD
ENDBRANCH  13  15
ENDBRANCH   1  13
BRANCH  11  18
HETATM   18  C4  UNL     1      15.406  40.594  42.861  1.00  0.00     0.354 C 
HETATM   19  O2  UNL     1      15.706  41.701  42.311  1.00  0.00    -0.283 OA
ENDBRANCH  11  18
TORSDOF 3
ENDMDL
MODEL 2
REMARK VINA RESULT: -6.622263408      1.912      2.804
REMARK  3 active torsions:
REMARK  status: ('A' for Active; 'I' for Inactive)
REMARK    1  A    between atoms: N1_1  and  N2_4 
REMARK    2  A    between atoms: N2_4  and  C1_6 
REMARK    3  A    between atoms: N6_16  and  C4_18 
ROOT
HETATM    1  C1  UNL     1      15.040  38.045  42.674  1.00  0.00     0.170 A 
HETATM    2  N3  UNL     1      15.955  37.346  41.954  1.00  0.00    -0.289 N 
ATOM      3  H3  UNL     1      16.833  37.790  41.686  1.00  0.00     0.172 HD
HETATM    4  C2  UNL     1      15.713  36.078  41.592  1.00  0.00     0.340 A 
HETATM    5  O1  UNL     1      16.603  35.492  40.927  1.00  0.00    -0.245 OA
HETATM    6  N4  UNL     1      14.555  35.503  41.948  1.00  0.00    -0.250 N 
ATOM      7  H4  UNL     1      14.391  34.538  41.662  1.00  0.00     0.192 HD
HETATM    8  N5  UNL     1      13.620  36.110  42.642  1.00  0.00    -0.278 N 
ATOM      9  H5  UNL     1      12.752  35.637  42.893  1.00  0.00     0.189 HD
HETATM   10  C3  UNL     1      13.859  37.407  43.017  1.00  0.00     0.168 A 
HETATM   11  N6  UNL     1      12.982  38.029  43.689  1.00  0.00    -0.316 N 
ATOM     12  H6  UNL     1      12.126  37.526  43.922  1.00  0.00     0.170 HD
ENDROOT
BRANCH   1  13
HETATM   13  N2  UNL     1      15.262  39.264  43.028  1.00  0.00    -0.289 N 
ATOM     14  H2  UNL     1      14.712  39.710  43.763  1.00  0.00     0.188 HD
BRANCH  13  15
HETATM   15  N1  UNL     1      16.282  39.954  42.370  1.00  0.00    -0.344 N 
ATOM     16  H12 UNL     1      16.074  40.511  41.542  1.00  0.00     0.176 HD
ATOM     17  H11 UNL     1      17.226  39.876  42.749  1.00  0.00     0.176 HD
ENDBRANCH  13  15
ENDBRANCH   1  13
BRANCH  11  18
HETATM   18  C4  UNL     1      13.093  39.354  44.138  1.00  0.00     0.354 C 
HETATM   19  O2  UNL     1      12.438  40.319  43.629  1.00  0.00    -0.283 OA
ENDBRANCH  11  18
TORSDOF 3
ENDMDL
MODEL 3
REMARK VINA RESULT: -6.586279060      0.842      3.965
REMARK  3 active torsions:
REMARK  status: ('A' for Active; 'I' for Inactive)
REMARK    1  A    between atoms: N1_1  and  N2_4 
REMARK    2  A    between atoms: N2_4  and  C1_6 
REMARK    3  A    between atoms: N6_16  and  C4_18 
ROOT
HETATM    1  C1  UNL     1      14.178  38.940  42.940  1.00  0.00     0.170 A 
HETATM    2  N3  UNL     1      14.399  40.279  42.890  1.00  0.00    -0.289 N 
ATOM      3  H3  UNL     1      13.638  40.924  43.099  1.00  0.00     0.172 HD
HETATM    4  C2  UNL     1      15.609  40.758  42.568  1.00  0.00     0.340 A 
HETATM    5  O1  UNL     1      15.742  42.007  42.541  1.00  0.00    -0.245 OA
HETATM    6  N4  UNL     1      16.603  39.902  42.294  1.00  0.00    -0.250 N 
ATOM      7  H4  UNL     1      17.516  40.288  42.051  1.00  0.00     0.192 HD
HETATM    8  N5  UNL     1      16.471  38.595  42.320  1.00  0.00    -0.278 N 
ATOM      9  H5  UNL     1      17.254  37.978  42.106  1.00  0.00     0.189 HD
HETATM   10  C3  UNL     1      15.238  38.096  42.648  1.00  0.00     0.168 A 
HETATM   11  N6  UNL     1      15.068  36.840  42.685  1.00  0.00    -0.316 N 
ATOM     12  H6  UNL     1      15.871  36.252  42.465  1.00  0.00     0.170 HD
ENDROOT
BRANCH   1  13
HETATM   13  N2  UNL     1      13.020  38.467  43.249  1.00  0.00    -0.289 N 
ATOM     14  H2  UNL     1      12.610  37.690  42.730  1.00  0.00     0.188 HD
BRANCH  13  15
HETATM   15  N1  UNL     1      12.345  39.056  44.319  1.00  0.00    -0.344 N 
ATOM     16  H12 UNL     1      12.525  38.744  45.274  1.00  0.00     0.176 HD
ATOM     17  H11 UNL     1      11.678  39.798  44.108  1.00  0.00     0.176 HD
ENDBRANCH  13  15
ENDBRANCH   1  13
BRANCH  11  18
HETATM   18  C4  UNL     1      13.864  36.193  43.005  1.00  0.00     0.354 C 
HETATM   19  O2  UNL     1      13.134  35.613  42.139  1.00  0.00    -0.283 OA
ENDBRANCH  11  18
TORSDOF 3
ENDMDL
MODEL 4
REMARK VINA RESULT: -6.369176801      2.266      3.692
REMARK  3 active torsions:
REMARK  status: ('A' for Active; 'I' for Inactive)
REMARK    1  A    between atoms: N1_1  and  N2_4 
REMARK    2  A    between atoms: N2_4  and  C1_6 
REMARK    3  A    between atoms: N6_16  and  C4_18 
ROOT
HETATM    1  C1  UNL     1      13.957  38.347  43.722  1.00  0.00     0.170 A 
HETATM    2  N3  UNL     1      12.782  38.674  44.318  1.00  0.00    -0.289 N 
ATOM      3  H3  UNL     1      12.332  38.009  44.947  1.00  0.00     0.172 HD
HETATM    4  C2  UNL     1      12.208  39.863  44.087  1.00  0.00     0.340 A 
HETATM    5  O1  UNL     1      11.121  40.098  44.671  1.00  0.00    -0.245 OA
HETATM    6  N4  UNL     1      12.806  40.730  43.258  1.00  0.00    -0.250 N 
ATOM      7  H4  UNL     1      12.352  41.630  43.095  1.00  0.00     0.192 HD
HETATM    8  N5  UNL     1      13.941  40.490  42.643  1.00  0.00    -0.278 N 
ATOM      9  H5  UNL     1      14.364  41.179  42.019  1.00  0.00     0.189 HD
HETATM   10  C3  UNL     1      14.535  39.277  42.874  1.00  0.00     0.168 A 
HETATM   11  N6  UNL     1      15.633  39.005  42.300  1.00  0.00    -0.316 N 
ATOM     12  H6  UNL     1      16.028  39.715  41.683  1.00  0.00     0.170 HD
ENDROOT
BRANCH   1  13
HETATM   13  N2  UNL     1      14.518  37.207  43.937  1.00  0.00    -0.289 N 
ATOM     14  H2  UNL     1      15.466  37.146  44.308  1.00  0.00     0.188 HD
BRANCH  13  15
HETATM   15  N1  UNL     1      13.782  36.058  43.645  1.00  0.00    -0.344 N 
ATOM     16  H12 UNL     1      14.235  35.252  43.215  1.00  0.00     0.176 HD
ATOM     17  H11 UNL     1      12.788  36.061  43.878  1.00  0.00     0.176 HD
ENDBRANCH  13  15
ENDBRANCH   1  13
BRANCH  11  18
HETATM   18  C4  UNL     1      16.349  37.807  42.444  1.00  0.00     0.354 C 
HETATM   19  O2  UNL     1      16.171  36.795  41.694  1.00  0.00    -0.283 OA
ENDBRANCH  11  18
TORSDOF 3
ENDMDL
MODEL 5
REMARK VINA RESULT: -6.351585543      2.370      3.337
REMARK  3 active torsions:
REMARK  status: ('A' for Active; 'I' for Inactive)
REMARK    1  A    between atoms: N1_1  and  N2_4 
REMARK    2  A    between atoms: N2_4  and  C1_6 
REMARK    3  A    between atoms: N6_16  and  C4_18 
ROOT
HETATM    1  C1  UNL     1      14.478  37.147  42.224  1.00  0.00     0.170 A 
HETATM    2  N3  UNL     1      14.883  36.446  41.133  1.00  0.00    -0.289 N 
ATOM      3  H3  UNL     1      15.868  36.206  41.025  1.00  0.00     0.172 HD
HETATM    4  C2  UNL     1      13.999  36.068  40.199  1.00  0.00     0.340 A 
HETATM    5  O1  UNL     1      14.444  35.423  39.217  1.00  0.00    -0.245 OA
HETATM    6  N4  UNL     1      12.706  36.389  40.350  1.00  0.00    -0.250 N 
ATOM      7  H4  UNL     1      12.050  36.092  39.627  1.00  0.00     0.192 HD
HETATM    8  N5  UNL     1      12.235  37.064  41.374  1.00  0.00    -0.278 N 
ATOM      9  H5  UNL     1      11.242  37.287  41.451  1.00  0.00     0.189 HD
HETATM   10  C3  UNL     1      13.132  37.454  42.334  1.00  0.00     0.168 A 
HETATM   11  N6  UNL     1      12.717  38.108  43.339  1.00  0.00    -0.316 N 
ATOM     12  H6  UNL     1      11.720  38.315  43.385  1.00  0.00     0.170 HD
ENDROOT
BRANCH   1  13
HETATM   13  N2  UNL     1      15.318  37.516  43.129  1.00  0.00    -0.289 N 
ATOM     14  H2  UNL     1      15.073  37.494  44.118  1.00  0.00     0.188 HD
BRANCH  13  15
HETATM   15  N1  UNL     1      16.577  37.945  42.706  1.00  0.00    -0.344 N 
ATOM     16  H12 UNL     1      16.671  38.507  41.860  1.00  0.00     0.176 HD
ATOM     17  H11 UNL     1      17.383  37.675  43.270  1.00  0.00     0.176 HD
ENDBRANCH  13  15
ENDBRANCH   1  13
BRANCH  11  18
HETATM   18  C4  UNL     1      13.520  38.569  44.393  1.00  0.00     0.354 C 
HETATM   19  O2  UNL     1      13.499  38.060  45.559  1.00  0.00    -0.283 OA
ENDBRANCH  11  18
TORSDOF 3
ENDMDL
