MODEL 1
REMARK VINA RESULT: -7.443078013      0.000      0.000
REMARK  8 active torsions:
REMARK  status: ('A' for Active; 'I' for Inactive)
REMARK    1  A    between atoms: S1_2  and  C2_3 
REMARK    2  A    between atoms: C2_3  and  N2_7 
REMARK       I    between atoms: C3_9  and  N3_10 
REMARK       I    between atoms: C3_9  and  N4_18 
REMARK    3  A    between atoms: N3_10  and  C4_12 
REMARK    4  A    between atoms: N4_18  and  C10_20 
REMARK    5  A    between atoms: C10_20  and  C11_21 
REMARK    6  A    between atoms: C10_20  and  C12_23 
REMARK       I    between atoms: C12_23  and  N5_25 
REMARK    7  A    between atoms: N5_25  and  C13_27 
REMARK    8  A    between atoms: C13_27  and  C15_29 
ROOT
HETATM    1  N2  UNL     1      17.055  16.802  17.805  1.00  0.00    -0.171 N 
ATOM      2  H2  UNL     1      16.568  16.127  18.395  1.00  0.00     0.186 HD
HETATM    3  C3  UNL     1      16.281  16.898  16.904  1.00  0.00     0.677 C 
HETATM    4  N3  UNL     1      15.078  16.133  16.967  1.00  0.00    -0.222 N 
ATOM      5  H3  UNL     1      15.112  15.330  16.339  1.00  0.00     0.178 HD
HETATM    6  N4  UNL     1      16.454  17.718  15.691  1.00  0.00    -0.207 N 
ATOM      7  H4  UNL     1      16.334  18.729  15.762  1.00  0.00     0.179 HD
ENDROOT
BRANCH   1   8
HETATM    8  C2  UNL     1      18.145  17.011  18.533  1.00  0.00     0.152 C 
HETATM    9  N1  UNL     1      19.190  17.331  17.731  1.00  0.00    -0.379 N 
ATOM     10  H12 UNL     1      20.028  17.492  18.290  1.00  0.00     0.158 HD
ATOM     11  H11 UNL     1      18.994  17.306  16.730  1.00  0.00     0.158 HD
BRANCH   8  12
HETATM   12  S1  UNL     1      18.484  17.055  20.267  1.00  0.00    -0.098 SA
HETATM   13  C1  UNL     1      16.989  16.641  21.238  1.00  0.00     0.099 C 
ENDBRANCH   8  12
ENDBRANCH   1   8
BRANCH   4  14
HETATM   14  C4  UNL     1      13.859  16.192  17.666  1.00  0.00     0.099 C 
HETATM   15  C5  UNL     1      12.795  16.824  16.729  1.00  0.00     0.026 C 
HETATM   16  C6  UNL     1      12.346  15.868  15.677  1.00  0.00     0.002 C 
HETATM   17  C7  UNL     1      11.462  14.781  16.266  1.00  0.00     0.000 C 
HETATM   18  C8  UNL     1      11.879  14.701  17.739  1.00  0.00     0.002 C 
HETATM   19  C9  UNL     1      13.367  14.737  17.813  1.00  0.00     0.026 C 
ENDBRANCH   4  14
BRANCH   6  20
HETATM   20  C10 UNL     1      16.767  17.180  14.478  1.00  0.00     0.252 C 
BRANCH  20  21
HETATM   21  C11 UNL     1      15.593  16.861  13.596  1.00  0.00     0.266 C 
HETATM   22  O1  UNL     1      15.569  15.740  13.085  1.00  0.00    -0.304 OA
ENDBRANCH  20  21
BRANCH  20  23
HETATM   23  C12 UNL     1      17.596  17.965  13.509  1.00  0.00     0.248 C 
HETATM   24  O2  UNL     1      17.779  19.181  13.762  1.00  0.00    -0.271 OA
HETATM   25  N5  UNL     1      18.097  17.282  12.374  1.00  0.00    -0.346 N 
ATOM     26  H5  UNL     1      17.942  16.274  12.364  1.00  0.00     0.163 HD
BRANCH  25  27
HETATM   27  C13 UNL     1      18.792  17.812  11.239  1.00  0.00     0.169 C 
HETATM   28  C14 UNL     1      18.430  17.244   9.932  1.00  0.00     0.042 C 
BRANCH  27  29
HETATM   29  C15 UNL     1      20.268  17.424  11.576  1.00  0.00     0.253 C 
HETATM   30  N6  UNL     1      20.670  16.236  10.934  1.00  0.00    -0.060 NA
HETATM   31  O3  UNL     1      20.958  18.125  12.312  1.00  0.00    -0.275 OA
ENDBRANCH  27  29
ENDBRANCH  25  27
ENDBRANCH  20  23
ENDBRANCH   6  20
TORSDOF 8
ENDMDL
MODEL 2
REMARK VINA RESULT: -7.140599758      1.042      1.445
REMARK  8 active torsions:
REMARK  status: ('A' for Active; 'I' for Inactive)
REMARK    1  A    between atoms: S1_2  and  C2_3 
REMARK    2  A    between atoms: C2_3  and  N2_7 
REMARK       I    between atoms: C3_9  and  N3_10 
REMARK       I    between atoms: C3_9  and  N4_18 
REMARK    3  A    between atoms: N3_10  and  C4_12 
REMARK    4  A    between atoms: N4_18  and  C10_20 
REMARK    5  A    between atoms: C10_20  and  C11_21 
REMARK    6  A    between atoms: C10_20  and  C12_23 
REMARK       I    between atoms: C12_23  and  N5_25 
REMARK    7  A    between atoms: N5_25  and  C13_27 
REMARK    8  A    between atoms: C13_27  and  C15_29 
ROOT
HETATM    1  N2  UNL     1      17.075  16.844  17.664  1.00  0.00    -0.171 N 
ATOM      2  H2  UNL     1      16.576  16.195  18.272  1.00  0.00     0.186 HD
HETATM    3  C3  UNL     1      16.299  16.931  16.762  1.00  0.00     0.677 C 
HETATM    4  N3  UNL     1      15.083  16.191  16.849  1.00  0.00    -0.222 N 
ATOM      5  H3  UNL     1      15.098  15.372  16.242  1.00  0.00     0.178 HD
HETATM    6  N4  UNL     1      16.484  17.715  15.527  1.00  0.00    -0.207 N 
ATOM      7  H4  UNL     1      16.384  18.729  15.571  1.00  0.00     0.179 HD
ENDROOT
BRANCH   1   8
HETATM    8  C2  UNL     1      18.171  17.051  18.382  1.00  0.00     0.152 C 
HETATM    9  N1  UNL     1      19.199  17.409  17.576  1.00  0.00    -0.379 N 
ATOM     10  H12 UNL     1      20.042  17.568  18.128  1.00  0.00     0.158 HD
ATOM     11  H11 UNL     1      18.991  17.407  16.577  1.00  0.00     0.158 HD
BRANCH   8  12
HETATM   12  S1  UNL     1      18.532  17.055  20.113  1.00  0.00    -0.098 SA
HETATM   13  C1  UNL     1      17.039  16.661  21.095  1.00  0.00     0.099 C 
ENDBRANCH   8  12
ENDBRANCH   1   8
BRANCH   4  14
HETATM   14  C4  UNL     1      13.867  16.293  17.549  1.00  0.00     0.099 C 
HETATM   15  C5  UNL     1      12.791  16.838  16.573  1.00  0.00     0.026 C 
HETATM   16  C6  UNL     1      12.345  15.798  15.602  1.00  0.00     0.002 C 
HETATM   17  C7  UNL     1      11.477  14.752  16.280  1.00  0.00     0.000 C 
HETATM   18  C8  UNL     1      11.904  14.791  17.752  1.00  0.00     0.002 C 
HETATM   19  C9  UNL     1      13.391  14.849  17.813  1.00  0.00     0.026 C 
ENDBRANCH   4  14
BRANCH   6  20
HETATM   20  C10 UNL     1      16.784  17.139  14.329  1.00  0.00     0.252 C 
BRANCH  20  21
HETATM   21  C11 UNL     1      15.599  16.802  13.466  1.00  0.00     0.266 C 
HETATM   22  O1  UNL     1      15.530  15.648  13.041  1.00  0.00    -0.304 OA
ENDBRANCH  20  21
BRANCH  20  23
HETATM   23  C12 UNL     1      17.609  17.888  13.330  1.00  0.00     0.248 C 
HETATM   24  O2  UNL     1      17.807  19.110  13.546  1.00  0.00    -0.271 OA
HETATM   25  N5  UNL     1      18.092  17.170  12.209  1.00  0.00    -0.346 N 
ATOM     26  H5  UNL     1      17.927  16.163  12.228  1.00  0.00     0.163 HD
BRANCH  25  27
HETATM   27  C13 UNL     1      18.780  17.660  11.053  1.00  0.00     0.169 C 
HETATM   28  C14 UNL     1      19.675  18.806  11.266  1.00  0.00     0.042 C 
BRANCH  27  29
HETATM   29  C15 UNL     1      17.584  18.106  10.151  1.00  0.00     0.253 C 
HETATM   30  N6  UNL     1      17.115  17.062   9.328  1.00  0.00    -0.060 NA
HETATM   31  O3  UNL     1      17.134  19.248  10.207  1.00  0.00    -0.275 OA
ENDBRANCH  27  29
ENDBRANCH  25  27
ENDBRANCH  20  23
ENDBRANCH   6  20
TORSDOF 8
ENDMDL
MODEL 3
REMARK VINA RESULT: -7.056636441      1.027      1.300
REMARK  8 active torsions:
REMARK  status: ('A' for Active; 'I' for Inactive)
REMARK    1  A    between atoms: S1_2  and  C2_3 
REMARK    2  A    between atoms: C2_3  and  N2_7 
REMARK       I    between atoms: C3_9  and  N3_10 
REMARK       I    between atoms: C3_9  and  N4_18 
REMARK    3  A    between atoms: N3_10  and  C4_12 
REMARK    4  A    between atoms: N4_18  and  C10_20 
REMARK    5  A    between atoms: C10_20  and  C11_21 
REMARK    6  A    between atoms: C10_20  and  C12_23 
REMARK       I    between atoms: C12_23  and  N5_25 
REMARK    7  A    between atoms: N5_25  and  C13_27 
REMARK    8  A    between atoms: C13_27  and  C15_29 
ROOT
HETATM    1  N2  UNL     1      15.987  16.222  17.774  1.00  0.00    -0.171 N 
ATOM      2  H2  UNL     1      15.420  15.470  18.167  1.00  0.00     0.186 HD
HETATM    3  C3  UNL     1      15.453  16.362  16.717  1.00  0.00     0.677 C 
HETATM    4  N3  UNL     1      14.332  15.534  16.415  1.00  0.00    -0.222 N 
ATOM      5  H3  UNL     1      14.577  14.797  15.755  1.00  0.00     0.178 HD
HETATM    6  N4  UNL     1      15.859  17.301  15.655  1.00  0.00    -0.207 N 
ATOM      7  H4  UNL     1      15.652  18.292  15.772  1.00  0.00     0.179 HD
ENDROOT
BRANCH   1   8
HETATM    8  C2  UNL     1      16.846  16.417  18.766  1.00  0.00     0.152 C 
HETATM    9  N1  UNL     1      18.047  16.807  18.276  1.00  0.00    -0.379 N 
ATOM     10  H12 UNL     1      18.708  16.957  19.039  1.00  0.00     0.158 HD
ATOM     11  H11 UNL     1      18.116  16.832  17.259  1.00  0.00     0.158 HD
BRANCH   8  12
HETATM   12  S1  UNL     1      16.728  16.374  20.530  1.00  0.00    -0.098 SA
HETATM   13  C1  UNL     1      18.273  16.974  21.305  1.00  0.00     0.099 C 
ENDBRANCH   8  12
ENDBRANCH   1   8
BRANCH   4  14
HETATM   14  C4  UNL     1      12.977  15.464  16.787  1.00  0.00     0.099 C 
HETATM   15  C5  UNL     1      12.441  16.913  16.933  1.00  0.00     0.026 C 
HETATM   16  C6  UNL     1      12.223  17.560  15.607  1.00  0.00     0.002 C 
HETATM   17  C7  UNL     1      11.010  16.975  14.905  1.00  0.00     0.000 C 
HETATM   18  C8  UNL     1      10.862  15.568  15.496  1.00  0.00     0.002 C 
HETATM   19  C9  UNL     1      12.211  14.937  15.556  1.00  0.00     0.026 C 
ENDBRANCH   4  14
BRANCH   6  20
HETATM   20  C10 UNL     1      16.500  16.896  14.522  1.00  0.00     0.252 C 
BRANCH  20  21
HETATM   21  C11 UNL     1      15.602  16.543  13.369  1.00  0.00     0.266 C 
HETATM   22  O1  UNL     1      15.201  15.380  13.310  1.00  0.00    -0.304 OA
ENDBRANCH  20  21
BRANCH  20  23
HETATM   23  C12 UNL     1      17.438  17.831  13.824  1.00  0.00     0.248 C 
HETATM   24  O2  UNL     1      17.805  18.854  14.454  1.00  0.00    -0.271 OA
HETATM   25  N5  UNL     1      17.829  17.502  12.504  1.00  0.00    -0.346 N 
ATOM     26  H5  UNL     1      17.521  16.589  12.169  1.00  0.00     0.163 HD
BRANCH  25  27
HETATM   27  C13 UNL     1      18.596  18.274  11.573  1.00  0.00     0.169 C 
HETATM   28  C14 UNL     1      18.187  18.187  10.163  1.00  0.00     0.042 C 
BRANCH  27  29
HETATM   29  C15 UNL     1      20.012  17.633  11.737  1.00  0.00     0.253 C 
HETATM   30  N6  UNL     1      20.187  16.502  10.915  1.00  0.00    -0.060 NA
HETATM   31  O3  UNL     1      20.844  18.115  12.501  1.00  0.00    -0.275 OA
ENDBRANCH  27  29
ENDBRANCH  25  27
ENDBRANCH  20  23
ENDBRANCH   6  20
TORSDOF 8
ENDMDL
MODEL 4
REMARK VINA RESULT: -6.983270005      1.470      1.858
REMARK  8 active torsions:
REMARK  status: ('A' for Active; 'I' for Inactive)
REMARK    1  A    between atoms: S1_2  and  C2_3 
REMARK    2  A    between atoms: C2_3  and  N2_7 
REMARK       I    between atoms: C3_9  and  N3_10 
REMARK       I    between atoms: C3_9  and  N4_18 
REMARK    3  A    between atoms: N3_10  and  C4_12 
REMARK    4  A    between atoms: N4_18  and  C10_20 
REMARK    5  A    between atoms: C10_20  and  C11_21 
REMARK    6  A    between atoms: C10_20  and  C12_23 
REMARK       I    between atoms: C12_23  and  N5_25 
REMARK    7  A    between atoms: N5_25  and  C13_27 
REMARK    8  A    between atoms: C13_27  and  C15_29 
ROOT
HETATM    1  N2  UNL     1      15.695  16.146  17.886  1.00  0.00    -0.171 N 
ATOM      2  H2  UNL     1      15.116  15.374  18.218  1.00  0.00     0.186 HD
HETATM    3  C3  UNL     1      15.248  16.294  16.791  1.00  0.00     0.677 C 
HETATM    4  N3  UNL     1      14.176  15.446  16.383  1.00  0.00    -0.222 N 
ATOM      5  H3  UNL     1      14.494  14.727  15.733  1.00  0.00     0.178 HD
HETATM    6  N4  UNL     1      15.717  17.262  15.782  1.00  0.00    -0.207 N 
ATOM      7  H4  UNL     1      15.476  18.246  15.899  1.00  0.00     0.179 HD
ENDROOT
BRANCH   1   8
HETATM    8  C2  UNL     1      16.464  16.343  18.950  1.00  0.00     0.152 C 
HETATM    9  N1  UNL     1      15.810  15.968  20.076  1.00  0.00    -0.379 N 
ATOM     10  H12 UNL     1      16.401  16.119  20.894  1.00  0.00     0.158 HD
ATOM     11  H11 UNL     1      14.847  15.661  19.939  1.00  0.00     0.158 HD
BRANCH   8  12
HETATM   12  S1  UNL     1      18.133  16.875  19.188  1.00  0.00    -0.098 SA
HETATM   13  C1  UNL     1      18.533  17.001  20.969  1.00  0.00     0.099 C 
ENDBRANCH   8  12
ENDBRANCH   1   8
BRANCH   4  14
HETATM   14  C4  UNL     1      12.797  15.337  16.639  1.00  0.00     0.099 C 
HETATM   15  C5  UNL     1      12.263  16.747  17.008  1.00  0.00     0.026 C 
HETATM   16  C6  UNL     1      12.148  17.627  15.810  1.00  0.00     0.002 C 
HETATM   17  C7  UNL     1      10.985  17.205  14.930  1.00  0.00     0.000 C 
HETATM   18  C8  UNL     1      10.784  15.717  15.241  1.00  0.00     0.002 C 
HETATM   19  C9  UNL     1      12.120  15.058  15.281  1.00  0.00     0.026 C 
ENDBRANCH   4  14
BRANCH   6  20
HETATM   20  C10 UNL     1      16.460  16.894  14.700  1.00  0.00     0.252 C 
BRANCH  20  21
HETATM   21  C11 UNL     1      15.698  16.776  13.410  1.00  0.00     0.266 C 
HETATM   22  O1  UNL     1      15.596  15.649  12.924  1.00  0.00    -0.304 OA
ENDBRANCH  20  21
BRANCH  20  23
HETATM   23  C12 UNL     1      17.586  17.766  14.241  1.00  0.00     0.248 C 
HETATM   24  O2  UNL     1      17.941  18.699  15.004  1.00  0.00    -0.271 OA
HETATM   25  N5  UNL     1      18.158  17.485  12.976  1.00  0.00    -0.346 N 
ATOM     26  H5  UNL     1      17.825  16.635  12.523  1.00  0.00     0.163 HD
BRANCH  25  27
HETATM   27  C13 UNL     1      19.140  18.229  12.246  1.00  0.00     0.169 C 
HETATM   28  C14 UNL     1      18.681  19.482  11.630  1.00  0.00     0.042 C 
BRANCH  27  29
HETATM   29  C15 UNL     1      19.520  17.214  11.121  1.00  0.00     0.253 C 
HETATM   30  N6  UNL     1      18.586  17.208  10.066  1.00  0.00    -0.060 NA
HETATM   31  O3  UNL     1      20.541  16.534  11.195  1.00  0.00    -0.275 OA
ENDBRANCH  27  29
ENDBRANCH  25  27
ENDBRANCH  20  23
ENDBRANCH   6  20
TORSDOF 8
ENDMDL
MODEL 5
REMARK VINA RESULT: -6.982880596      3.335      6.380
REMARK  8 active torsions:
REMARK  status: ('A' for Active; 'I' for Inactive)
REMARK    1  A    between atoms: S1_2  and  C2_3 
REMARK    2  A    between atoms: C2_3  and  N2_7 
REMARK       I    between atoms: C3_9  and  N3_10 
REMARK       I    between atoms: C3_9  and  N4_18 
REMARK    3  A    between atoms: N3_10  and  C4_12 
REMARK    4  A    between atoms: N4_18  and  C10_20 
REMARK    5  A    between atoms: C10_20  and  C11_21 
REMARK    6  A    between atoms: C10_20  and  C12_23 
REMARK       I    between atoms: C12_23  and  N5_25 
REMARK    7  A    between atoms: N5_25  and  C13_27 
REMARK    8  A    between atoms: C13_27  and  C15_29 
ROOT
HETATM    1  N2  UNL     1      16.376  17.836  14.761  1.00  0.00    -0.171 N 
ATOM      2  H2  UNL     1      15.672  18.385  14.267  1.00  0.00     0.186 HD
HETATM    3  C3  UNL     1      15.683  17.234  15.522  1.00  0.00     0.677 C 
HETATM    4  N3  UNL     1      14.276  17.458  15.470  1.00  0.00    -0.222 N 
ATOM      5  H3  UNL     1      13.959  18.035  16.249  1.00  0.00     0.178 HD
HETATM    6  N4  UNL     1      16.143  16.285  16.553  1.00  0.00    -0.207 N 
ATOM      7  H4  UNL     1      16.449  15.357  16.262  1.00  0.00     0.179 HD
ENDROOT
BRANCH   1   8
HETATM    8  C2  UNL     1      17.476  18.250  14.145  1.00  0.00     0.152 C 
HETATM    9  N1  UNL     1      18.310  18.850  15.028  1.00  0.00    -0.379 N 
ATOM     10  H12 UNL     1      19.156  19.169  14.555  1.00  0.00     0.158 HD
ATOM     11  H11 UNL     1      17.950  18.937  15.979  1.00  0.00     0.158 HD
BRANCH   8  12
HETATM   12  S1  UNL     1      18.102  18.101  12.498  1.00  0.00    -0.098 SA
HETATM   13  C1  UNL     1      19.925  18.251  12.473  1.00  0.00     0.099 C 
ENDBRANCH   8  12
ENDBRANCH   1   8
BRANCH   4  14
HETATM   14  C4  UNL     1      13.208  17.093  14.630  1.00  0.00     0.099 C 
HETATM   15  C5  UNL     1      13.096  15.545  14.636  1.00  0.00     0.026 C 
HETATM   16  C6  UNL     1      12.500  15.037  15.905  1.00  0.00     0.002 C 
HETATM   17  C7  UNL     1      11.012  15.337  15.969  1.00  0.00     0.000 C 
HETATM   18  C8  UNL     1      10.825  16.559  15.061  1.00  0.00     0.002 C 
HETATM   19  C9  UNL     1      11.915  17.533  15.348  1.00  0.00     0.026 C 
ENDBRANCH   4  14
BRANCH   6  20
HETATM   20  C10 UNL     1      16.174  16.599  17.879  1.00  0.00     0.252 C 
BRANCH  20  21
HETATM   21  C11 UNL     1      15.758  15.494  18.809  1.00  0.00     0.266 C 
HETATM   22  O1  UNL     1      15.683  14.361  18.330  1.00  0.00    -0.304 OA
ENDBRANCH  20  21
BRANCH  20  23
HETATM   23  C12 UNL     1      17.470  16.985  18.521  1.00  0.00     0.248 C 
HETATM   24  O2  UNL     1      18.426  17.274  17.760  1.00  0.00    -0.271 OA
HETATM   25  N5  UNL     1      17.526  16.981  19.936  1.00  0.00    -0.346 N 
ATOM     26  H5  UNL     1      16.638  16.818  20.410  1.00  0.00     0.163 HD
BRANCH  25  27
HETATM   27  C13 UNL     1      18.657  17.173  20.793  1.00  0.00     0.169 C 
HETATM   28  C14 UNL     1      19.734  16.179  20.682  1.00  0.00     0.042 C 
BRANCH  27  29
HETATM   29  C15 UNL     1      17.996  17.058  22.204  1.00  0.00     0.253 C 
HETATM   30  N6  UNL     1      16.629  16.722  22.130  1.00  0.00    -0.060 NA
HETATM   31  O3  UNL     1      18.649  17.237  23.229  1.00  0.00    -0.275 OA
ENDBRANCH  27  29
ENDBRANCH  25  27
ENDBRANCH  20  23
ENDBRANCH   6  20
TORSDOF 8
ENDMDL
