MODEL 1
REMARK VINA RESULT: -7.558858184      0.000      0.000
REMARK  7 active torsions:
REMARK  status: ('A' for Active; 'I' for Inactive)
REMARK    1  A    between atoms: N1_2  and  C2_4 
REMARK       I    between atoms: N2_5  and  C3_7 
REMARK       I    between atoms: C3_7  and  N3_9 
REMARK    2  A    between atoms: N3_9  and  C4_11 
REMARK    3  A    between atoms: C4_11  and  C8_15 
REMARK    4  A    between atoms: C8_15  and  N4_16 
REMARK    5  A    between atoms: C8_15  and  C14_29 
REMARK       I    between atoms: N4_16  and  C9_18 
REMARK    6  A    between atoms: C9_18  and  C10_20 
REMARK    7  A    between atoms: C12_22  and  O3_23 
ROOT
HETATM    1  C8  UNL     1      13.953  16.630  16.471  1.00  0.00     0.043 C 
ENDROOT
BRANCH   1   2
HETATM    2  C4  UNL     1      12.568  16.319  16.820  1.00  0.00     0.061 C 
HETATM    3  C5  UNL     1      11.903  15.036  16.752  1.00  0.00    -0.059 C 
HETATM    4  C6  UNL     1      12.217  14.068  15.661  1.00  0.00     0.045 C 
HETATM    5  C7  UNL     1      11.789  14.299  18.101  1.00  0.00     0.045 C 
BRANCH   2   6
HETATM    6  N3  UNL     1      12.045  17.079  17.935  1.00  0.00    -0.307 N 
HETATM    7  C3  UNL     1      10.912  17.884  17.996  1.00  0.00     0.325 C 
HETATM    8  N2  UNL     1      10.504  18.577  19.183  1.00  0.00    -0.305 N 
HETATM    9  O1  UNL     1      10.167  18.056  17.004  1.00  0.00    -0.247 OA
HETATM   10  C2  UNL     1      10.155  19.801  19.192  1.00  0.00     0.183 C 
ATOM     11  H2  UNL     1      10.493  18.064  20.064  1.00  0.00     0.171 HD
ATOM     12  H3  UNL     1      12.584  17.015  18.799  1.00  0.00     0.170 HD
BRANCH  10  13
HETATM   13  N1  UNL     1      10.115  20.652  18.061  1.00  0.00    -0.372 N 
HETATM   14  C1  UNL     1      10.861  21.684  17.917  1.00  0.00     0.118 C 
ATOM     15  H1  UNL     1       9.453  20.432  17.317  1.00  0.00     0.165 HD
ENDBRANCH  10  13
ENDBRANCH   2   6
ENDBRANCH   1   2
BRANCH   1  16
HETATM   16  N4  UNL     1      14.836  16.686  17.647  1.00  0.00    -0.326 N 
HETATM   17  C9  UNL     1      15.520  15.647  18.250  1.00  0.00     0.253 C 
HETATM   18  O2  UNL     1      15.399  14.492  17.759  1.00  0.00    -0.271 OA
ATOM     19  H4  UNL     1      14.959  17.606  18.069  1.00  0.00     0.168 HD
BRANCH  17  20
HETATM   20  C10 UNL     1      16.395  15.725  19.427  1.00  0.00     0.279 C 
HETATM   21  C11 UNL     1      17.616  16.607  19.174  1.00  0.00     0.076 C 
HETATM   22  C12 UNL     1      17.873  17.338  20.478  1.00  0.00     0.146 C 
HETATM   23  C13 UNL     1      16.994  16.524  21.435  1.00  0.00     0.264 C 
HETATM   24  N5  UNL     1      15.823  16.308  20.581  1.00  0.00    -0.060 N 
ATOM     25  H52 UNL     1      15.259  17.140  20.409  1.00  0.00     0.278 HD
ATOM     26  H51 UNL     1      15.072  15.767  21.010  1.00  0.00     0.278 HD
BRANCH  22  27
HETATM   27  O3  UNL     1      19.192  17.339  20.853  1.00  0.00    -0.394 OA
ATOM     28  H3  UNL     1      19.516  18.199  21.092  1.00  0.00     0.210 HD
ENDBRANCH  22  27
ENDBRANCH  17  20
ENDBRANCH   1  16
BRANCH   1  29
HETATM   29  C14 UNL     1      14.372  17.444  15.321  1.00  0.00     0.038 C 
HETATM   30  C15 UNL     1      14.757  16.501  14.127  1.00  0.00     0.011 C 
HETATM   31  C16 UNL     1      15.574  17.343  13.171  1.00  0.00     0.001 C 
HETATM   32  C17 UNL     1      14.942  18.708  12.976  1.00  0.00     0.000 C 
HETATM   33  C18 UNL     1      13.455  18.493  13.206  1.00  0.00     0.001 C 
HETATM   34  C19 UNL     1      13.194  18.202  14.656  1.00  0.00     0.011 C 
ENDBRANCH   1  29
TORSDOF 7
ENDMDL
MODEL 2
REMARK VINA RESULT: -6.872936110      1.813      2.344
REMARK  7 active torsions:
REMARK  status: ('A' for Active; 'I' for Inactive)
REMARK    1  A    between atoms: N1_2  and  C2_4 
REMARK       I    between atoms: N2_5  and  C3_7 
REMARK       I    between atoms: C3_7  and  N3_9 
REMARK    2  A    between atoms: N3_9  and  C4_11 
REMARK    3  A    between atoms: C4_11  and  C8_15 
REMARK    4  A    between atoms: C8_15  and  N4_16 
REMARK    5  A    between atoms: C8_15  and  C14_29 
REMARK       I    between atoms: N4_16  and  C9_18 
REMARK    6  A    between atoms: C9_18  and  C10_20 
REMARK    7  A    between atoms: C12_22  and  O3_23 
ROOT
HETATM    1  C8  UNL     1      13.933  16.556  16.327  1.00  0.00     0.043 C 
ENDROOT
BRANCH   1   2
HETATM    2  C4  UNL     1      12.526  16.762  16.660  1.00  0.00     0.061 C 
HETATM    3  C5  UNL     1      11.766  16.142  17.724  1.00  0.00    -0.059 C 
HETATM    4  C6  UNL     1      12.016  14.725  18.117  1.00  0.00     0.045 C 
HETATM    5  C7  UNL     1      11.583  17.019  18.978  1.00  0.00     0.045 C 
BRANCH   2   6
HETATM    6  N3  UNL     1      12.051  18.113  16.448  1.00  0.00    -0.307 N 
HETATM    7  C3  UNL     1      10.832  18.545  15.934  1.00  0.00     0.325 C 
HETATM    8  N2  UNL     1      10.489  19.930  15.788  1.00  0.00    -0.305 N 
HETATM    9  O1  UNL     1       9.946  17.742  15.562  1.00  0.00    -0.247 OA
HETATM   10  C2  UNL     1       9.973  20.413  14.729  1.00  0.00     0.183 C 
ATOM     11  H2  UNL     1      10.667  20.559  16.570  1.00  0.00     0.171 HD
ATOM     12  H3  UNL     1      12.701  18.852  16.713  1.00  0.00     0.170 HD
BRANCH  10  13
HETATM   13  N1  UNL     1       9.664  19.680  13.557  1.00  0.00    -0.372 N 
HETATM   14  C1  UNL     1       8.533  19.738  12.957  1.00  0.00     0.118 C 
ATOM     15  H1  UNL     1      10.383  19.071  13.168  1.00  0.00     0.165 HD
ENDBRANCH  10  13
ENDBRANCH   2   6
ENDBRANCH   1   2
BRANCH   1  16
HETATM   16  N4  UNL     1      14.814  16.631  17.503  1.00  0.00    -0.326 N 
HETATM   17  C9  UNL     1      15.498  15.603  18.125  1.00  0.00     0.253 C 
HETATM   18  O2  UNL     1      15.379  14.440  17.651  1.00  0.00    -0.271 OA
ATOM     19  H4  UNL     1      14.934  17.558  17.911  1.00  0.00     0.168 HD
BRANCH  17  20
HETATM   20  C10 UNL     1      16.369  15.700  19.302  1.00  0.00     0.279 C 
HETATM   21  C11 UNL     1      17.581  16.593  19.044  1.00  0.00     0.076 C 
HETATM   22  C12 UNL     1      17.828  17.338  20.342  1.00  0.00     0.146 C 
HETATM   23  C13 UNL     1      16.956  16.522  21.305  1.00  0.00     0.264 C 
HETATM   24  N5  UNL     1      15.789  16.287  20.451  1.00  0.00    -0.060 N 
ATOM     25  H52 UNL     1      15.216  17.111  20.270  1.00  0.00     0.278 HD
ATOM     26  H51 UNL     1      15.043  15.741  20.882  1.00  0.00     0.278 HD
BRANCH  22  27
HETATM   27  O3  UNL     1      19.146  17.356  20.719  1.00  0.00    -0.394 OA
ATOM     28  H3  UNL     1      19.393  18.143  21.191  1.00  0.00     0.210 HD
ENDBRANCH  22  27
ENDBRANCH  17  20
ENDBRANCH   1  16
BRANCH   1  29
HETATM   29  C14 UNL     1      14.557  16.906  15.042  1.00  0.00     0.038 C 
HETATM   30  C15 UNL     1      16.030  17.389  15.292  1.00  0.00     0.011 C 
HETATM   31  C16 UNL     1      16.448  18.131  14.041  1.00  0.00     0.001 C 
HETATM   32  C17 UNL     1      16.026  17.374  12.796  1.00  0.00     0.000 C 
HETATM   33  C18 UNL     1      15.997  15.912  13.212  1.00  0.00     0.001 C 
HETATM   34  C19 UNL     1      14.859  15.667  14.160  1.00  0.00     0.011 C 
ENDBRANCH   1  29
TORSDOF 7
ENDMDL
MODEL 3
REMARK VINA RESULT: -6.774403390      1.160      1.578
REMARK  7 active torsions:
REMARK  status: ('A' for Active; 'I' for Inactive)
REMARK    1  A    between atoms: N1_2  and  C2_4 
REMARK       I    between atoms: N2_5  and  C3_7 
REMARK       I    between atoms: C3_7  and  N3_9 
REMARK    2  A    between atoms: N3_9  and  C4_11 
REMARK    3  A    between atoms: C4_11  and  C8_15 
REMARK    4  A    between atoms: C8_15  and  N4_16 
REMARK    5  A    between atoms: C8_15  and  C14_29 
REMARK       I    between atoms: N4_16  and  C9_18 
REMARK    6  A    between atoms: C9_18  and  C10_20 
REMARK    7  A    between atoms: C12_22  and  O3_23 
ROOT
HETATM    1  C8  UNL     1      14.785  16.266  16.387  1.00  0.00     0.043 C 
ENDROOT
BRANCH   1   2
HETATM    2  C4  UNL     1      13.328  16.240  16.491  1.00  0.00     0.061 C 
HETATM    3  C5  UNL     1      12.404  15.365  15.803  1.00  0.00    -0.059 C 
HETATM    4  C6  UNL     1      12.663  14.930  14.400  1.00  0.00     0.045 C 
HETATM    5  C7  UNL     1      11.897  14.177  16.644  1.00  0.00     0.045 C 
BRANCH   2   6
HETATM    6  N3  UNL     1      12.815  16.547  17.809  1.00  0.00    -0.307 N 
HETATM    7  C3  UNL     1      11.589  17.098  18.170  1.00  0.00     0.325 C 
HETATM    8  N2  UNL     1      11.207  17.339  19.531  1.00  0.00    -0.305 N 
HETATM    9  O1  UNL     1      10.731  17.421  17.318  1.00  0.00    -0.247 OA
HETATM   10  C2  UNL     1      10.688  18.432  19.927  1.00  0.00     0.183 C 
ATOM     11  H2  UNL     1      11.359  16.599  20.216  1.00  0.00     0.171 HD
ATOM     12  H3  UNL     1      13.441  16.327  18.584  1.00  0.00     0.170 HD
BRANCH  10  13
HETATM   13  N1  UNL     1      10.411  19.554  19.109  1.00  0.00    -0.372 N 
HETATM   14  C1  UNL     1       9.468  20.390  19.339  1.00  0.00     0.118 C 
ATOM     15  H1  UNL     1      10.997  19.706  18.288  1.00  0.00     0.165 HD
ENDBRANCH  10  13
ENDBRANCH   2   6
ENDBRANCH   1   2
BRANCH   1  16
HETATM   16  N4  UNL     1      15.445  16.446  17.689  1.00  0.00    -0.326 N 
HETATM   17  C9  UNL     1      15.852  15.472  18.582  1.00  0.00     0.253 C 
HETATM   18  O2  UNL     1      15.651  14.265  18.275  1.00  0.00    -0.271 OA
ATOM     19  H4  UNL     1      15.625  17.410  17.968  1.00  0.00     0.168 HD
BRANCH  17  20
HETATM   20  C10 UNL     1      16.507  15.675  19.880  1.00  0.00     0.279 C 
HETATM   21  C11 UNL     1      17.772  16.520  19.756  1.00  0.00     0.076 C 
HETATM   22  C12 UNL     1      17.811  17.388  21.000  1.00  0.00     0.146 C 
HETATM   23  C13 UNL     1      16.760  16.684  21.866  1.00  0.00     0.264 C 
HETATM   24  N5  UNL     1      15.753  16.381  20.846  1.00  0.00    -0.060 N 
ATOM     25  H52 UNL     1      15.246  17.191  20.488  1.00  0.00     0.278 HD
ATOM     26  H51 UNL     1      14.927  15.892  21.189  1.00  0.00     0.278 HD
BRANCH  22  27
HETATM   27  O3  UNL     1      19.043  17.425  21.601  1.00  0.00    -0.394 OA
ATOM     28  H3  UNL     1      19.201  18.225  22.089  1.00  0.00     0.210 HD
ENDBRANCH  22  27
ENDBRANCH  17  20
ENDBRANCH   1  16
BRANCH   1  29
HETATM   29  C14 UNL     1      15.540  16.744  15.219  1.00  0.00     0.038 C 
HETATM   30  C15 UNL     1      14.809  17.987  14.598  1.00  0.00     0.011 C 
HETATM   31  C16 UNL     1      15.362  18.145  13.198  1.00  0.00     0.001 C 
HETATM   32  C17 UNL     1      16.870  17.984  13.191  1.00  0.00     0.000 C 
HETATM   33  C18 UNL     1      17.323  18.423  14.574  1.00  0.00     0.001 C 
HETATM   34  C19 UNL     1      16.879  17.424  15.603  1.00  0.00     0.011 C 
ENDBRANCH   1  29
TORSDOF 7
ENDMDL
MODEL 4
REMARK VINA RESULT: -6.578227316      2.366      3.064
REMARK  7 active torsions:
REMARK  status: ('A' for Active; 'I' for Inactive)
REMARK    1  A    between atoms: N1_2  and  C2_4 
REMARK       I    between atoms: N2_5  and  C3_7 
REMARK       I    between atoms: C3_7  and  N3_9 
REMARK    2  A    between atoms: N3_9  and  C4_11 
REMARK    3  A    between atoms: C4_11  and  C8_15 
REMARK    4  A    between atoms: C8_15  and  N4_16 
REMARK    5  A    between atoms: C8_15  and  C14_29 
REMARK       I    between atoms: N4_16  and  C9_18 
REMARK    6  A    between atoms: C9_18  and  C10_20 
REMARK    7  A    between atoms: C12_22  and  O3_23 
ROOT
HETATM    1  C8  UNL     1      14.056  16.281  15.837  1.00  0.00     0.043 C 
ENDROOT
BRANCH   1   2
HETATM    2  C4  UNL     1      12.657  16.120  16.227  1.00  0.00     0.061 C 
HETATM    3  C5  UNL     1      12.136  15.534  17.442  1.00  0.00    -0.059 C 
HETATM    4  C6  UNL     1      12.815  14.369  18.081  1.00  0.00     0.045 C 
HETATM    5  C7  UNL     1      11.706  16.553  18.515  1.00  0.00     0.045 C 
BRANCH   2   6
HETATM    6  N3  UNL     1      11.787  17.193  15.794  1.00  0.00    -0.307 N 
HETATM    7  C3  UNL     1      10.517  17.122  15.229  1.00  0.00     0.325 C 
HETATM    8  N2  UNL     1       9.758  18.280  14.855  1.00  0.00    -0.305 N 
HETATM    9  O1  UNL     1       9.949  16.027  15.010  1.00  0.00    -0.247 OA
HETATM   10  C2  UNL     1       9.162  18.390  13.735  1.00  0.00     0.183 C 
ATOM     11  H2  UNL     1       9.694  19.052  15.517  1.00  0.00     0.171 HD
ATOM     12  H3  UNL     1      12.157  18.135  15.921  1.00  0.00     0.170 HD
BRANCH  10  13
HETATM   13  N1  UNL     1       9.152  17.415  12.709  1.00  0.00    -0.372 N 
HETATM   14  C1  UNL     1       8.371  17.456  11.693  1.00  0.00     0.118 C 
ATOM     15  H1  UNL     1       9.804  16.634  12.782  1.00  0.00     0.165 HD
ENDBRANCH  10  13
ENDBRANCH   2   6
ENDBRANCH   1   2
BRANCH   1  16
HETATM   16  N4  UNL     1      14.880  16.870  16.905  1.00  0.00    -0.326 N 
HETATM   17  C9  UNL     1      15.770  16.230  17.747  1.00  0.00     0.253 C 
HETATM   18  O2  UNL     1      15.924  14.986  17.613  1.00  0.00    -0.271 OA
ATOM     19  H4  UNL     1      14.782  17.876  17.040  1.00  0.00     0.168 HD
BRANCH  17  20
HETATM   20  C10 UNL     1      16.580  16.838  18.810  1.00  0.00     0.279 C 
HETATM   21  C11 UNL     1      16.208  16.302  20.190  1.00  0.00     0.076 C 
HETATM   22  C12 UNL     1      17.512  16.206  20.960  1.00  0.00     0.146 C 
HETATM   23  C13 UNL     1      18.433  17.037  20.058  1.00  0.00     0.264 C 
HETATM   24  N5  UNL     1      17.970  16.588  18.743  1.00  0.00    -0.060 N 
ATOM     25  H52 UNL     1      18.224  15.629  18.503  1.00  0.00     0.278 HD
ATOM     26  H51 UNL     1      18.447  17.017  17.949  1.00  0.00     0.278 HD
BRANCH  22  27
HETATM   27  O3  UNL     1      17.433  16.710  22.232  1.00  0.00    -0.394 OA
ATOM     28  H3  UNL     1      18.214  16.553  22.750  1.00  0.00     0.210 HD
ENDBRANCH  22  27
ENDBRANCH  17  20
ENDBRANCH   1  16
BRANCH   1  29
HETATM   29  C14 UNL     1      14.529  16.517  14.465  1.00  0.00     0.038 C 
HETATM   30  C15 UNL     1      15.543  17.716  14.462  1.00  0.00     0.011 C 
HETATM   31  C16 UNL     1      15.642  18.180  13.025  1.00  0.00     0.001 C 
HETATM   32  C17 UNL     1      15.755  16.999  12.080  1.00  0.00     0.000 C 
HETATM   33  C18 UNL     1      16.419  15.901  12.895  1.00  0.00     0.001 C 
HETATM   34  C19 UNL     1      15.477  15.402  13.953  1.00  0.00     0.011 C 
ENDBRANCH   1  29
TORSDOF 7
ENDMDL
MODEL 5
REMARK VINA RESULT: -6.561355614      3.625      6.097
REMARK  7 active torsions:
REMARK  status: ('A' for Active; 'I' for Inactive)
REMARK    1  A    between atoms: N1_2  and  C2_4 
REMARK       I    between atoms: N2_5  and  C3_7 
REMARK       I    between atoms: C3_7  and  N3_9 
REMARK    2  A    between atoms: N3_9  and  C4_11 
REMARK    3  A    between atoms: C4_11  and  C8_15 
REMARK    4  A    between atoms: C8_15  and  N4_16 
REMARK    5  A    between atoms: C8_15  and  C14_29 
REMARK       I    between atoms: N4_16  and  C9_18 
REMARK    6  A    between atoms: C9_18  and  C10_20 
REMARK    7  A    between atoms: C12_22  and  O3_23 
ROOT
HETATM    1  C8  UNL     1      14.480  17.028  15.553  1.00  0.00     0.043 C 
ENDROOT
BRANCH   1   2
HETATM    2  C4  UNL     1      13.123  17.155  15.026  1.00  0.00     0.061 C 
HETATM    3  C5  UNL     1      11.987  16.296  15.282  1.00  0.00    -0.059 C 
HETATM    4  C6  UNL     1      12.164  14.824  15.445  1.00  0.00     0.045 C 
HETATM    5  C7  UNL     1      10.998  16.835  16.333  1.00  0.00     0.045 C 
BRANCH   2   6
HETATM    6  N3  UNL     1      12.671  18.520  14.858  1.00  0.00    -0.307 N 
HETATM    7  C3  UNL     1      12.606  19.288  13.698  1.00  0.00     0.325 C 
HETATM    8  N2  UNL     1      12.122  20.638  13.677  1.00  0.00    -0.305 N 
HETATM    9  O1  UNL     1      12.970  18.842  12.586  1.00  0.00    -0.247 OA
HETATM   10  C2  UNL     1      12.725  21.586  13.079  1.00  0.00     0.183 C 
ATOM     11  H2  UNL     1      11.252  20.849  14.165  1.00  0.00     0.171 HD
ATOM     12  H3  UNL     1      12.356  18.985  15.709  1.00  0.00     0.170 HD
BRANCH  10  13
HETATM   13  N1  UNL     1      13.938  21.463  12.358  1.00  0.00    -0.372 N 
HETATM   14  C1  UNL     1      15.048  21.977  12.737  1.00  0.00     0.118 C 
ATOM     15  H1  UNL     1      13.926  20.935  11.485  1.00  0.00     0.165 HD
ENDBRANCH  10  13
ENDBRANCH   2   6
ENDBRANCH   1   2
BRANCH   1  16
HETATM   16  N4  UNL     1      15.456  16.639  14.523  1.00  0.00    -0.326 N 
HETATM   17  C9  UNL     1      16.263  17.461  13.759  1.00  0.00     0.253 C 
HETATM   18  O2  UNL     1      16.183  18.706  13.940  1.00  0.00    -0.271 OA
ATOM     19  H4  UNL     1      15.549  15.638  14.352  1.00  0.00     0.168 HD
BRANCH  17  20
HETATM   20  C10 UNL     1      17.229  17.050  12.732  1.00  0.00     0.279 C 
HETATM   21  C11 UNL     1      16.761  17.419  11.326  1.00  0.00     0.076 C 
HETATM   22  C12 UNL     1      18.011  17.828  10.570  1.00  0.00     0.146 C 
HETATM   23  C13 UNL     1      19.097  17.303  11.517  1.00  0.00     0.264 C 
HETATM   24  N5  UNL     1      18.503  17.661  12.807  1.00  0.00    -0.060 N 
ATOM     25  H52 UNL     1      18.489  18.661  13.011  1.00  0.00     0.278 HD
ATOM     26  H51 UNL     1      19.057  17.402  13.623  1.00  0.00     0.278 HD
BRANCH  22  27
HETATM   27  O3  UNL     1      18.097  17.275   9.318  1.00  0.00    -0.394 OA
ATOM     28  H3  UNL     1      17.524  17.687   8.683  1.00  0.00     0.210 HD
ENDBRANCH  22  27
ENDBRANCH  17  20
ENDBRANCH   1  16
BRANCH   1  29
HETATM   29  C14 UNL     1      14.818  16.638  16.930  1.00  0.00     0.038 C 
HETATM   30  C15 UNL     1      15.007  15.081  17.000  1.00  0.00     0.011 C 
HETATM   31  C16 UNL     1      14.911  14.710  18.464  1.00  0.00     0.001 C 
HETATM   32  C17 UNL     1      15.703  15.679  19.321  1.00  0.00     0.000 C 
HETATM   33  C18 UNL     1      16.816  16.188  18.419  1.00  0.00     0.001 C 
HETATM   34  C19 UNL     1      16.247  17.071  17.346  1.00  0.00     0.011 C 
ENDBRANCH   1  29
TORSDOF 7
ENDMDL
