MODEL 1
REMARK VINA RESULT: -7.238801110      0.000      0.000
REMARK  7 active torsions:
REMARK  status: ('A' for Active; 'I' for Inactive)
REMARK    1  A    between atoms: C1_2  and  C2_4 
REMARK    2  A    between atoms: C8_10  and  N2_11 
REMARK       I    between atoms: N2_11  and  C9_13 
REMARK    3  A    between atoms: C9_13  and  C10_15 
REMARK    4  A    between atoms: C10_15  and  N3_16 
REMARK    5  A    between atoms: C10_15  and  C11_20 
REMARK    6  A    between atoms: C11_20  and  C12_21 
REMARK    7  A    between atoms: C12_21  and  C13_22 
ROOT
HETATM    1  N2  UNL     1      10.941  17.105  14.446  1.00  0.00    -0.350 N 
ATOM      2  H2  UNL     1      10.132  16.490  14.357  1.00  0.00     0.163 HD
HETATM    3  C9  UNL     1      10.981  18.287  13.699  1.00  0.00     0.248 C 
HETATM    4  O2  UNL     1      11.971  19.054  13.796  1.00  0.00    -0.271 OA
ENDROOT
BRANCH   1   5
HETATM    5  C8  UNL     1      12.021  16.725  15.347  1.00  0.00     0.036 C 
HETATM    6  C7  UNL     1      11.823  17.484  16.661  1.00  0.00     0.036 C 
HETATM    7  C6  UNL     1      12.113  16.160  17.356  1.00  0.00    -0.008 C 
HETATM    8  C5  UNL     1      13.445  16.018  17.912  1.00  0.00     0.029 C 
HETATM    9  C17 UNL     1      11.704  15.495  16.113  1.00  0.00     0.036 C 
HETATM   10  C4  UNL     1      14.621  15.747  17.106  1.00  0.00     0.081 C 
HETATM   11  C3  UNL     1      15.202  16.943  16.358  1.00  0.00     0.065 C 
HETATM   12  N4  UNL     1      14.560  15.106  15.894  1.00  0.00    -0.401 N 
HETATM   13  C2  UNL     1      14.538  16.244  15.161  1.00  0.00     0.109 C 
HETATM   14  C18 UNL     1      13.304  16.890  14.710  1.00  0.00     0.071 C 
ATOM     15  H4  UNL     1      14.538  14.119  15.636  1.00  0.00     0.154 HD
BRANCH  13  16
HETATM   16  C1  UNL     1      15.556  16.251  14.043  1.00  0.00     0.259 C 
HETATM   17  N1  UNL     1      16.707  17.095  14.155  1.00  0.00    -0.060 NA
HETATM   18  O1  UNL     1      15.359  15.514  13.047  1.00  0.00    -0.274 OA
ENDBRANCH  13  16
ENDBRANCH   1   5
BRANCH   3  19
HETATM   19  C10 UNL     1       9.885  18.689  12.771  1.00  0.00     0.276 C 
BRANCH  19  20
HETATM   20  N3  UNL     1       9.117  19.768  13.361  1.00  0.00    -0.066 N 
ATOM     21  H33 UNL     1       8.309  19.426  13.881  1.00  0.00     0.275 HD
ATOM     22  H32 UNL     1       9.612  20.215  14.133  1.00  0.00     0.275 HD
ATOM     23  H31 UNL     1       8.852  20.437  12.637  1.00  0.00     0.275 HD
ENDBRANCH  19  20
BRANCH  19  24
HETATM   24  C11 UNL     1       9.049  17.483  12.503  1.00  0.00     0.063 C 
BRANCH  24  25
HETATM   25  C12 UNL     1       8.313  17.475  11.211  1.00  0.00     0.051 C 
HETATM   26  C14 UNL     1       9.316  17.588  10.057  1.00  0.00     0.020 C 
HETATM   27  C15 UNL     1       8.784  16.353   9.405  1.00  0.00     0.002 C 
HETATM   28  C16 UNL     1       8.004  16.077  10.670  1.00  0.00     0.020 C 
BRANCH  25  29
HETATM   29  C13 UNL     1       7.177  18.412  11.068  1.00  0.00     0.181 C 
HETATM   30  O3  UNL     1       6.007  18.148  11.416  1.00  0.00    -0.647 OA
HETATM   31  O4  UNL     1       7.417  19.663  10.517  1.00  0.00    -0.647 OA
ENDBRANCH  25  29
ENDBRANCH  24  25
ENDBRANCH  19  24
ENDBRANCH   3  19
TORSDOF 7
ENDMDL
MODEL 2
REMARK VINA RESULT: -7.205892518      4.990      6.724
REMARK  7 active torsions:
REMARK  status: ('A' for Active; 'I' for Inactive)
REMARK    1  A    between atoms: C1_2  and  C2_4 
REMARK    2  A    between atoms: C8_10  and  N2_11 
REMARK       I    between atoms: N2_11  and  C9_13 
REMARK    3  A    between atoms: C9_13  and  C10_15 
REMARK    4  A    between atoms: C10_15  and  N3_16 
REMARK    5  A    between atoms: C10_15  and  C11_20 
REMARK    6  A    between atoms: C11_20  and  C12_21 
REMARK    7  A    between atoms: C12_21  and  C13_22 
ROOT
HETATM    1  N2  UNL     1      15.378  17.709  14.091  1.00  0.00    -0.350 N 
ATOM      2  H2  UNL     1      14.797  18.222  13.428  1.00  0.00     0.163 HD
HETATM    3  C9  UNL     1      16.769  17.840  14.018  1.00  0.00     0.248 C 
HETATM    4  O2  UNL     1      17.498  17.214  14.828  1.00  0.00    -0.271 OA
ENDROOT
BRANCH   1   5
HETATM    5  C8  UNL     1      14.734  16.862  15.087  1.00  0.00     0.036 C 
HETATM    6  C7  UNL     1      13.226  17.115  15.013  1.00  0.00     0.036 C 
HETATM    7  C6  UNL     1      13.068  15.601  15.071  1.00  0.00    -0.008 C 
HETATM    8  C5  UNL     1      12.676  15.058  16.357  1.00  0.00     0.029 C 
HETATM    9  C17 UNL     1      14.442  15.506  14.563  1.00  0.00     0.036 C 
HETATM   10  C4  UNL     1      13.590  14.913  17.475  1.00  0.00     0.081 C 
HETATM   11  C3  UNL     1      13.891  16.191  18.254  1.00  0.00     0.065 C 
HETATM   12  N4  UNL     1      14.946  14.773  17.314  1.00  0.00    -0.401 N 
HETATM   13  C2  UNL     1      15.220  16.088  17.488  1.00  0.00     0.109 C 
HETATM   14  C18 UNL     1      15.340  17.040  16.383  1.00  0.00     0.071 C 
ATOM     15  H4  UNL     1      15.538  13.964  17.127  1.00  0.00     0.154 HD
BRANCH  13  16
HETATM   16  C1  UNL     1      16.317  16.337  18.499  1.00  0.00     0.259 C 
HETATM   17  N1  UNL     1      16.091  15.990  19.870  1.00  0.00    -0.060 NA
HETATM   18  O1  UNL     1      17.394  16.842  18.103  1.00  0.00    -0.274 OA
ENDBRANCH  13  16
ENDBRANCH   1   5
BRANCH   3  19
HETATM   19  C10 UNL     1      17.443  18.702  13.005  1.00  0.00     0.276 C 
BRANCH  19  20
HETATM   20  N3  UNL     1      17.369  20.090  13.417  1.00  0.00    -0.066 N 
ATOM     21  H33 UNL     1      16.415  20.373  13.646  1.00  0.00     0.275 HD
ATOM     22  H32 UNL     1      17.791  20.242  14.333  1.00  0.00     0.275 HD
ATOM     23  H31 UNL     1      17.784  20.685  12.699  1.00  0.00     0.275 HD
ENDBRANCH  19  20
BRANCH  19  24
HETATM   24  C11 UNL     1      16.777  18.467  11.691  1.00  0.00     0.063 C 
BRANCH  24  25
HETATM   25  C12 UNL     1      17.649  18.577  10.490  1.00  0.00     0.051 C 
HETATM   26  C14 UNL     1      18.978  17.864  10.764  1.00  0.00     0.020 C 
HETATM   27  C15 UNL     1      18.832  17.014   9.543  1.00  0.00     0.002 C 
HETATM   28  C16 UNL     1      17.404  17.498   9.434  1.00  0.00     0.020 C 
BRANCH  25  29
HETATM   29  C13 UNL     1      17.838  19.923   9.908  1.00  0.00     0.181 C 
HETATM   30  O3  UNL     1      18.476  20.841  10.466  1.00  0.00    -0.647 OA
HETATM   31  O4  UNL     1      17.279  20.193   8.668  1.00  0.00    -0.647 OA
ENDBRANCH  25  29
ENDBRANCH  24  25
ENDBRANCH  19  24
ENDBRANCH   3  19
TORSDOF 7
ENDMDL
MODEL 3
REMARK VINA RESULT: -7.202184411      3.550      6.954
REMARK  7 active torsions:
REMARK  status: ('A' for Active; 'I' for Inactive)
REMARK    1  A    between atoms: C1_2  and  C2_4 
REMARK    2  A    between atoms: C8_10  and  N2_11 
REMARK       I    between atoms: N2_11  and  C9_13 
REMARK    3  A    between atoms: C9_13  and  C10_15 
REMARK    4  A    between atoms: C10_15  and  N3_16 
REMARK    5  A    between atoms: C10_15  and  C11_20 
REMARK    6  A    between atoms: C11_20  and  C12_21 
REMARK    7  A    between atoms: C12_21  and  C13_22 
ROOT
HETATM    1  N2  UNL     1      15.749  17.139  16.345  1.00  0.00    -0.350 N 
ATOM      2  H2  UNL     1      16.183  17.790  16.999  1.00  0.00     0.163 HD
HETATM    3  C9  UNL     1      16.279  17.017  15.055  1.00  0.00     0.248 C 
HETATM    4  O2  UNL     1      15.755  16.221  14.237  1.00  0.00    -0.271 OA
ENDROOT
BRANCH   1   5
HETATM    5  C8  UNL     1      14.595  16.364  16.781  1.00  0.00     0.036 C 
HETATM    6  C7  UNL     1      15.013  14.893  16.837  1.00  0.00     0.036 C 
HETATM    7  C6  UNL     1      14.305  14.844  18.185  1.00  0.00    -0.008 C 
HETATM    8  C5  UNL     1      12.993  14.227  18.185  1.00  0.00     0.029 C 
HETATM    9  C17 UNL     1      14.490  16.299  18.259  1.00  0.00     0.036 C 
HETATM   10  C4  UNL     1      11.801  14.887  17.686  1.00  0.00     0.081 C 
HETATM   11  C3  UNL     1      11.644  14.913  16.168  1.00  0.00     0.065 C 
HETATM   12  N4  UNL     1      11.664  16.252  17.655  1.00  0.00    -0.401 N 
HETATM   13  C2  UNL     1      12.059  16.379  16.366  1.00  0.00     0.109 C 
HETATM   14  C18 UNL     1      13.440  16.661  15.969  1.00  0.00     0.071 C 
ATOM     15  H4  UNL     1      11.369  16.932  18.355  1.00  0.00     0.154 HD
BRANCH  13  16
HETATM   16  C1  UNL     1      11.110  17.209  15.532  1.00  0.00     0.259 C 
HETATM   17  N1  UNL     1       9.703  17.120  15.784  1.00  0.00    -0.060 NA
HETATM   18  O1  UNL     1      11.585  17.952  14.641  1.00  0.00    -0.274 OA
ENDBRANCH  13  16
ENDBRANCH   1   5
BRANCH   3  19
HETATM   19  C10 UNL     1      17.459  17.805  14.594  1.00  0.00     0.276 C 
BRANCH  19  20
HETATM   20  N3  UNL     1      18.109  18.424  15.732  1.00  0.00    -0.066 N 
ATOM     21  H33 UNL     1      17.491  19.072  16.222  1.00  0.00     0.275 HD
ATOM     22  H32 UNL     1      18.262  17.762  16.493  1.00  0.00     0.275 HD
ATOM     23  H31 UNL     1      18.975  18.872  15.432  1.00  0.00     0.275 HD
ENDBRANCH  19  20
BRANCH  19  24
HETATM   24  C11 UNL     1      16.977  18.811  13.603  1.00  0.00     0.063 C 
BRANCH  24  25
HETATM   25  C12 UNL     1      17.798  18.957  12.372  1.00  0.00     0.051 C 
HETATM   26  C14 UNL     1      18.905  19.989  12.622  1.00  0.00     0.020 C 
HETATM   27  C15 UNL     1      19.969  19.024  12.206  1.00  0.00     0.002 C 
HETATM   28  C16 UNL     1      18.925  17.930  12.241  1.00  0.00     0.020 C 
BRANCH  25  29
HETATM   29  C13 UNL     1      17.081  19.194  11.099  1.00  0.00     0.181 C 
HETATM   30  O3  UNL     1      16.748  18.286  10.308  1.00  0.00    -0.647 OA
HETATM   31  O4  UNL     1      16.755  20.497  10.756  1.00  0.00    -0.647 OA
ENDBRANCH  25  29
ENDBRANCH  24  25
ENDBRANCH  19  24
ENDBRANCH   3  19
TORSDOF 7
ENDMDL
MODEL 4
REMARK VINA RESULT: -7.164495514      4.449      6.716
REMARK  7 active torsions:
REMARK  status: ('A' for Active; 'I' for Inactive)
REMARK    1  A    between atoms: C1_2  and  C2_4 
REMARK    2  A    between atoms: C8_10  and  N2_11 
REMARK       I    between atoms: N2_11  and  C9_13 
REMARK    3  A    between atoms: C9_13  and  C10_15 
REMARK    4  A    between atoms: C10_15  and  N3_16 
REMARK    5  A    between atoms: C10_15  and  C11_20 
REMARK    6  A    between atoms: C11_20  and  C12_21 
REMARK    7  A    between atoms: C12_21  and  C13_22 
ROOT
HETATM    1  N2  UNL     1      15.129  17.602  14.913  1.00  0.00    -0.350 N 
ATOM      2  H2  UNL     1      15.295  18.571  15.184  1.00  0.00     0.163 HD
HETATM    3  C9  UNL     1      16.003  16.993  14.004  1.00  0.00     0.248 C 
HETATM    4  O2  UNL     1      15.813  15.800  13.660  1.00  0.00    -0.271 OA
ENDROOT
BRANCH   1   5
HETATM    5  C8  UNL     1      13.991  16.893  15.482  1.00  0.00     0.036 C 
HETATM    6  C7  UNL     1      12.815  17.870  15.548  1.00  0.00     0.036 C 
HETATM    7  C6  UNL     1      11.970  16.738  14.979  1.00  0.00    -0.008 C 
HETATM    8  C5  UNL     1      11.134  16.036  15.934  1.00  0.00     0.029 C 
HETATM    9  C17 UNL     1      13.213  16.164  14.451  1.00  0.00     0.036 C 
HETATM   10  C4  UNL     1      11.646  15.058  16.875  1.00  0.00     0.081 C 
HETATM   11  C3  UNL     1      12.348  15.626  18.106  1.00  0.00     0.065 C 
HETATM   12  N4  UNL     1      12.788  14.331  16.645  1.00  0.00    -0.401 N 
HETATM   13  C2  UNL     1      13.598  15.163  17.341  1.00  0.00     0.109 C 
HETATM   14  C18 UNL     1      14.352  16.256  16.725  1.00  0.00     0.071 C 
ATOM     15  H4  UNL     1      12.963  13.468  16.131  1.00  0.00     0.154 HD
BRANCH  13  16
HETATM   16  C1  UNL     1      14.470  14.442  18.344  1.00  0.00     0.259 C 
HETATM   17  N1  UNL     1      15.826  14.870  18.521  1.00  0.00    -0.060 NA
HETATM   18  O1  UNL     1      13.978  13.488  18.992  1.00  0.00    -0.274 OA
ENDBRANCH  13  16
ENDBRANCH   1   5
BRANCH   3  19
HETATM   19  C10 UNL     1      17.171  17.706  13.412  1.00  0.00     0.276 C 
BRANCH  19  20
HETATM   20  N3  UNL     1      17.610  18.756  14.311  1.00  0.00    -0.066 N 
ATOM     21  H33 UNL     1      17.779  18.408  15.255  1.00  0.00     0.275 HD
ATOM     22  H32 UNL     1      18.556  19.072  14.099  1.00  0.00     0.275 HD
ATOM     23  H31 UNL     1      16.937  19.522  14.299  1.00  0.00     0.275 HD
ENDBRANCH  19  20
BRANCH  19  24
HETATM   24  C11 UNL     1      16.755  18.239  12.083  1.00  0.00     0.063 C 
BRANCH  24  25
HETATM   25  C12 UNL     1      17.739  18.076  10.979  1.00  0.00     0.051 C 
HETATM   26  C14 UNL     1      18.673  19.292  10.952  1.00  0.00     0.020 C 
HETATM   27  C15 UNL     1      19.888  18.424  11.034  1.00  0.00     0.002 C 
HETATM   28  C16 UNL     1      18.978  17.261  11.355  1.00  0.00     0.020 C 
BRANCH  25  29
HETATM   29  C13 UNL     1      17.210  17.738   9.639  1.00  0.00     0.181 C 
HETATM   30  O3  UNL     1      16.834  16.595   9.306  1.00  0.00    -0.647 OA
HETATM   31  O4  UNL     1      17.122  18.745   8.689  1.00  0.00    -0.647 OA
ENDBRANCH  25  29
ENDBRANCH  24  25
ENDBRANCH  19  24
ENDBRANCH   3  19
TORSDOF 7
ENDMDL
MODEL 5
REMARK VINA RESULT: -7.154489019      5.409      7.242
REMARK  7 active torsions:
REMARK  status: ('A' for Active; 'I' for Inactive)
REMARK    1  A    between atoms: C1_2  and  C2_4 
REMARK    2  A    between atoms: C8_10  and  N2_11 
REMARK       I    between atoms: N2_11  and  C9_13 
REMARK    3  A    between atoms: C9_13  and  C10_15 
REMARK    4  A    between atoms: C10_15  and  N3_16 
REMARK    5  A    between atoms: C10_15  and  C11_20 
REMARK    6  A    between atoms: C11_20  and  C12_21 
REMARK    7  A    between atoms: C12_21  and  C13_22 
ROOT
HETATM    1  N2  UNL     1      16.001  17.725  14.180  1.00  0.00    -0.350 N 
ATOM      2  H2  UNL     1      15.532  18.170  13.392  1.00  0.00     0.163 HD
HETATM    3  C9  UNL     1      17.378  17.912  14.345  1.00  0.00     0.248 C 
HETATM    4  O2  UNL     1      17.970  17.370  15.311  1.00  0.00    -0.271 OA
ENDROOT
BRANCH   1   5
HETATM    5  C8  UNL     1      15.217  16.914  15.103  1.00  0.00     0.036 C 
HETATM    6  C7  UNL     1      13.740  17.252  14.886  1.00  0.00     0.036 C 
HETATM    7  C6  UNL     1      13.492  15.750  14.917  1.00  0.00    -0.008 C 
HETATM    8  C5  UNL     1      12.947  15.227  16.155  1.00  0.00     0.029 C 
HETATM    9  C17 UNL     1      14.901  15.577  14.543  1.00  0.00     0.036 C 
HETATM   10  C4  UNL     1      13.739  15.029  17.355  1.00  0.00     0.081 C 
HETATM   11  C3  UNL     1      14.036  16.285  18.169  1.00  0.00     0.065 C 
HETATM   12  N4  UNL     1      15.094  14.812  17.324  1.00  0.00    -0.401 N 
HETATM   13  C2  UNL     1      15.424  16.108  17.534  1.00  0.00     0.109 C 
HETATM   14  C18 UNL     1      15.704  17.055  16.453  1.00  0.00     0.071 C 
ATOM     15  H4  UNL     1      15.655  13.971  17.190  1.00  0.00     0.154 HD
BRANCH  13  16
HETATM   16  C1  UNL     1      16.430  16.293  18.648  1.00  0.00     0.259 C 
HETATM   17  N1  UNL     1      16.044  15.984  19.992  1.00  0.00    -0.060 NA
HETATM   18  O1  UNL     1      17.576  16.712  18.358  1.00  0.00    -0.274 OA
ENDBRANCH  13  16
ENDBRANCH   1   5
BRANCH   3  19
HETATM   19  C10 UNL     1      18.194  18.738  13.409  1.00  0.00     0.276 C 
BRANCH  19  20
HETATM   20  N3  UNL     1      18.438  20.042  13.995  1.00  0.00    -0.066 N 
ATOM     21  H33 UNL     1      18.796  20.709  13.311  1.00  0.00     0.275 HD
ATOM     22  H32 UNL     1      17.572  20.524  14.232  1.00  0.00     0.275 HD
ATOM     23  H31 UNL     1      19.058  19.947  14.799  1.00  0.00     0.275 HD
ENDBRANCH  19  20
BRANCH  19  24
HETATM   24  C11 UNL     1      17.454  18.829  12.117  1.00  0.00     0.063 C 
BRANCH  24  25
HETATM   25  C12 UNL     1      18.150  18.272  10.927  1.00  0.00     0.051 C 
HETATM   26  C14 UNL     1      17.327  17.109  10.359  1.00  0.00     0.020 C 
HETATM   27  C15 UNL     1      17.292  17.732   9.000  1.00  0.00     0.002 C 
HETATM   28  C16 UNL     1      17.839  18.999   9.617  1.00  0.00     0.020 C 
BRANCH  25  29
HETATM   29  C13 UNL     1      19.583  17.933  11.073  1.00  0.00     0.181 C 
HETATM   30  O3  UNL     1      20.011  16.772  11.248  1.00  0.00    -0.647 OA
HETATM   31  O4  UNL     1      20.515  18.958  11.014  1.00  0.00    -0.647 OA
ENDBRANCH  25  29
ENDBRANCH  24  25
ENDBRANCH  19  24
ENDBRANCH   3  19
TORSDOF 7
ENDMDL
