MODEL 1
REMARK VINA RESULT: -6.478038873      0.000      0.000
REMARK  7 active torsions:
REMARK  status: ('A' for Active; 'I' for Inactive)
REMARK    1  A    between atoms: C3_4  and  O2_5 
REMARK    2  A    between atoms: C4_7  and  N1_8 
REMARK    3  A    between atoms: N1_8  and  C5_10 
REMARK    4  A    between atoms: C5_10  and  N2_12 
REMARK    5  A    between atoms: N2_12  and  C6_14 
REMARK    6  A    between atoms: C10_18  and  O3_19 
REMARK    7  A    between atoms: C11_21  and  O4_22 
ROOT
HETATM    1  C1  UNL     1      15.209  18.701  12.778  1.00  0.00     0.042 C 
HETATM    2  C2  UNL     1      15.218  17.711  13.938  1.00  0.00     0.152 C 
HETATM    3  O1  UNL     1      14.316  18.084  14.932  1.00  0.00    -0.352 OA
HETATM    4  C3  UNL     1      13.833  16.988  15.642  1.00  0.00     0.282 C 
HETATM    5  C4  UNL     1      14.832  15.886  15.707  1.00  0.00     0.170 C 
HETATM    6  C10 UNL     1      15.039  15.233  14.350  1.00  0.00     0.176 C 
HETATM    7  C11 UNL     1      14.915  16.354  13.339  1.00  0.00     0.177 C 
ENDROOT
BRANCH   5   8
HETATM    8  N1  UNL     1      14.560  14.907  16.695  1.00  0.00    -0.355 N 
ATOM      9  H1  UNL     1      14.883  13.956  16.517  1.00  0.00     0.162 HD
BRANCH   8  10
HETATM   10  C5  UNL     1      13.872  15.149  17.908  1.00  0.00     0.168 C 
HETATM   11  S1  UNL     1      12.389  14.503  18.120  1.00  0.00    -0.041 SA
BRANCH  10  12
HETATM   12  N2  UNL     1      14.421  15.955  18.945  1.00  0.00    -0.363 N 
ATOM     13  H2  UNL     1      13.868  16.680  19.403  1.00  0.00     0.162 HD
BRANCH  12  14
HETATM   14  C6  UNL     1      15.790  15.704  19.320  1.00  0.00     0.083 C 
HETATM   15  C7  UNL     1      16.193  16.207  20.684  1.00  0.00     0.025 C 
HETATM   16  C8  UNL     1      17.542  16.532  20.071  1.00  0.00     0.004 C 
HETATM   17  C9  UNL     1      16.791  16.694  18.742  1.00  0.00     0.025 C 
ENDBRANCH  12  14
ENDBRANCH  10  12
ENDBRANCH   8  10
ENDBRANCH   5   8
BRANCH   4  18
HETATM   18  O2  UNL     1      12.628  16.553  15.062  1.00  0.00    -0.369 OA
ATOM     19  H2  UNL     1      12.281  15.826  15.566  1.00  0.00     0.212 HD
ENDBRANCH   4  18
BRANCH   6  20
HETATM   20  O3  UNL     1      14.033  14.309  14.076  1.00  0.00    -0.391 OA
ATOM     21  H3  UNL     1      13.781  14.335  13.160  1.00  0.00     0.210 HD
ENDBRANCH   6  20
BRANCH   7  22
HETATM   22  O4  UNL     1      15.803  16.180  12.276  1.00  0.00    -0.390 OA
ATOM     23  H4  UNL     1      16.078  15.271  12.298  1.00  0.00     0.210 HD
ENDBRANCH   7  22
TORSDOF 7
ENDMDL
MODEL 2
REMARK VINA RESULT: -6.074284944      1.139      1.374
REMARK  7 active torsions:
REMARK  status: ('A' for Active; 'I' for Inactive)
REMARK    1  A    between atoms: C3_4  and  O2_5 
REMARK    2  A    between atoms: C4_7  and  N1_8 
REMARK    3  A    between atoms: N1_8  and  C5_10 
REMARK    4  A    between atoms: C5_10  and  N2_12 
REMARK    5  A    between atoms: N2_12  and  C6_14 
REMARK    6  A    between atoms: C10_18  and  O3_19 
REMARK    7  A    between atoms: C11_21  and  O4_22 
ROOT
HETATM    1  C1  UNL     1      17.036  18.975  13.066  1.00  0.00     0.042 C 
HETATM    2  C2  UNL     1      16.193  18.230  14.094  1.00  0.00     0.152 C 
HETATM    3  O1  UNL     1      15.062  18.962  14.451  1.00  0.00    -0.352 OA
HETATM    4  C3  UNL     1      14.008  18.142  14.842  1.00  0.00     0.282 C 
HETATM    5  C4  UNL     1      14.490  16.878  15.465  1.00  0.00     0.170 C 
HETATM    6  C10 UNL     1      15.150  15.965  14.446  1.00  0.00     0.176 C 
HETATM    7  C11 UNL     1      15.862  16.887  13.478  1.00  0.00     0.177 C 
ENDROOT
BRANCH   5   8
HETATM    8  N1  UNL     1      13.503  16.174  16.199  1.00  0.00    -0.355 N 
ATOM      9  H1  UNL     1      12.530  16.292  15.915  1.00  0.00     0.162 HD
BRANCH   8  10
HETATM   10  C5  UNL     1      13.764  15.319  17.296  1.00  0.00     0.168 C 
HETATM   11  S1  UNL     1      12.522  14.521  17.991  1.00  0.00    -0.041 SA
BRANCH  10  12
HETATM   12  N2  UNL     1      15.072  15.146  17.830  1.00  0.00    -0.363 N 
ATOM     13  H2  UNL     1      15.633  14.323  17.608  1.00  0.00     0.162 HD
BRANCH  12  14
HETATM   14  C6  UNL     1      15.570  16.184  18.699  1.00  0.00     0.083 C 
HETATM   15  C7  UNL     1      17.049  16.465  18.592  1.00  0.00     0.025 C 
HETATM   16  C8  UNL     1      17.024  16.705  20.090  1.00  0.00     0.004 C 
HETATM   17  C9  UNL     1      15.836  15.732  20.128  1.00  0.00     0.025 C 
ENDBRANCH  12  14
ENDBRANCH  10  12
ENDBRANCH   8  10
ENDBRANCH   5   8
BRANCH   4  18
HETATM   18  O2  UNL     1      13.183  17.883  13.733  1.00  0.00    -0.369 OA
ATOM     19  H2  UNL     1      12.492  17.282  13.988  1.00  0.00     0.212 HD
ENDBRANCH   4  18
BRANCH   6  20
HETATM   20  O3  UNL     1      14.202  15.248  13.719  1.00  0.00    -0.391 OA
ATOM     21  H3  UNL     1      13.347  15.292  14.131  1.00  0.00     0.210 HD
ENDBRANCH   6  20
BRANCH   7  22
HETATM   22  O4  UNL     1      17.071  16.337  13.048  1.00  0.00    -0.390 OA
ATOM     23  H4  UNL     1      16.863  15.754  12.328  1.00  0.00     0.210 HD
ENDBRANCH   7  22
TORSDOF 7
ENDMDL
MODEL 3
REMARK VINA RESULT: -6.005933386      1.278      2.066
REMARK  7 active torsions:
REMARK  status: ('A' for Active; 'I' for Inactive)
REMARK    1  A    between atoms: C3_4  and  O2_5 
REMARK    2  A    between atoms: C4_7  and  N1_8 
REMARK    3  A    between atoms: N1_8  and  C5_10 
REMARK    4  A    between atoms: C5_10  and  N2_12 
REMARK    5  A    between atoms: N2_12  and  C6_14 
REMARK    6  A    between atoms: C10_18  and  O3_19 
REMARK    7  A    between atoms: C11_21  and  O4_22 
ROOT
HETATM    1  C1  UNL     1      12.548  18.933  13.264  1.00  0.00     0.042 C 
HETATM    2  C2  UNL     1      12.997  17.990  14.375  1.00  0.00     0.152 C 
HETATM    3  O1  UNL     1      12.507  16.702  14.176  1.00  0.00    -0.352 OA
HETATM    4  C3  UNL     1      13.338  15.733  14.732  1.00  0.00     0.282 C 
HETATM    5  C4  UNL     1      14.059  16.242  15.930  1.00  0.00     0.170 C 
HETATM    6  C10 UNL     1      15.102  17.282  15.560  1.00  0.00     0.176 C 
HETATM    7  C11 UNL     1      14.509  18.055  14.401  1.00  0.00     0.177 C 
ENDROOT
BRANCH   5   8
HETATM    8  N1  UNL     1      14.630  15.231  16.743  1.00  0.00    -0.355 N 
ATOM      9  H1  UNL     1      15.452  14.745  16.383  1.00  0.00     0.162 HD
BRANCH   8  10
HETATM   10  C5  UNL     1      14.147  14.843  18.016  1.00  0.00     0.168 C 
HETATM   11  S1  UNL     1      12.579  14.419  18.172  1.00  0.00    -0.041 SA
BRANCH  10  12
HETATM   12  N2  UNL     1      14.976  14.833  19.172  1.00  0.00    -0.363 N 
ATOM     13  H2  UNL     1      15.108  13.985  19.724  1.00  0.00     0.162 HD
BRANCH  12  14
HETATM   14  C6  UNL     1      15.622  16.070  19.531  1.00  0.00     0.083 C 
HETATM   15  C7  UNL     1      17.031  16.241  19.017  1.00  0.00     0.025 C 
HETATM   16  C8  UNL     1      17.332  16.946  20.326  1.00  0.00     0.004 C 
HETATM   17  C9  UNL     1      16.213  16.086  20.934  1.00  0.00     0.025 C 
ENDBRANCH  12  14
ENDBRANCH  10  12
ENDBRANCH   8  10
ENDBRANCH   5   8
BRANCH   4  18
HETATM   18  O2  UNL     1      14.236  15.273  13.751  1.00  0.00    -0.369 OA
ATOM     19  H2  UNL     1      13.757  14.788  13.090  1.00  0.00     0.212 HD
ENDBRANCH   4  18
BRANCH   6  20
HETATM   20  O3  UNL     1      16.275  16.683  15.106  1.00  0.00    -0.391 OA
ATOM     21  H3  UNL     1      16.372  16.782  14.166  1.00  0.00     0.210 HD
ENDBRANCH   6  20
BRANCH   7  22
HETATM   22  O4  UNL     1      14.849  19.408  14.464  1.00  0.00    -0.390 OA
ATOM     23  H4  UNL     1      15.728  19.483  14.110  1.00  0.00     0.210 HD
ENDBRANCH   7  22
TORSDOF 7
ENDMDL
MODEL 4
REMARK VINA RESULT: -5.815505213      1.599      2.209
REMARK  7 active torsions:
REMARK  status: ('A' for Active; 'I' for Inactive)
REMARK    1  A    between atoms: C3_4  and  O2_5 
REMARK    2  A    between atoms: C4_7  and  N1_8 
REMARK    3  A    between atoms: N1_8  and  C5_10 
REMARK    4  A    between atoms: C5_10  and  N2_12 
REMARK    5  A    between atoms: N2_12  and  C6_14 
REMARK    6  A    between atoms: C10_18  and  O3_19 
REMARK    7  A    between atoms: C11_21  and  O4_22 
ROOT
HETATM    1  C1  UNL     1      12.387  18.926  13.471  1.00  0.00     0.042 C 
HETATM    2  C2  UNL     1      13.015  18.010  14.515  1.00  0.00     0.152 C 
HETATM    3  O1  UNL     1      12.527  16.710  14.411  1.00  0.00    -0.352 OA
HETATM    4  C3  UNL     1      13.450  15.765  14.848  1.00  0.00     0.282 C 
HETATM    5  C4  UNL     1      14.333  16.306  15.918  1.00  0.00     0.170 C 
HETATM    6  C10 UNL     1      15.288  17.358  15.380  1.00  0.00     0.176 C 
HETATM    7  C11 UNL     1      14.513  18.100  14.312  1.00  0.00     0.177 C 
ENDROOT
BRANCH   5   8
HETATM    8  N1  UNL     1      15.039  15.319  16.649  1.00  0.00    -0.355 N 
ATOM      9  H1  UNL     1      15.339  14.484  16.146  1.00  0.00     0.162 HD
BRANCH   8  10
HETATM   10  C5  UNL     1      15.360  15.404  18.026  1.00  0.00     0.168 C 
HETATM   11  S1  UNL     1      14.918  14.186  19.018  1.00  0.00    -0.041 SA
BRANCH  10  12
HETATM   12  N2  UNL     1      16.037  16.526  18.580  1.00  0.00    -0.363 N 
ATOM     13  H2  UNL     1      15.649  17.468  18.513  1.00  0.00     0.162 HD
BRANCH  12  14
HETATM   14  C6  UNL     1      17.293  16.276  19.242  1.00  0.00     0.083 C 
HETATM   15  C7  UNL     1      17.395  16.787  20.658  1.00  0.00     0.025 C 
HETATM   16  C8  UNL     1      18.845  17.108  20.347  1.00  0.00     0.004 C 
HETATM   17  C9  UNL     1      18.396  17.264  18.887  1.00  0.00     0.025 C 
ENDBRANCH  12  14
ENDBRANCH  10  12
ENDBRANCH   8  10
ENDBRANCH   5   8
BRANCH   4  18
HETATM   18  O2  UNL     1      14.200  15.304  13.751  1.00  0.00    -0.369 OA
ATOM     19  H2  UNL     1      13.632  15.229  12.992  1.00  0.00     0.212 HD
ENDBRANCH   4  18
BRANCH   6  20
HETATM   20  O3  UNL     1      16.392  16.771  14.764  1.00  0.00    -0.391 OA
ATOM     21  H3  UNL     1      16.667  15.987  15.224  1.00  0.00     0.210 HD
ENDBRANCH   6  20
BRANCH   7  22
HETATM   22  O4  UNL     1      14.832  19.460  14.304  1.00  0.00    -0.390 OA
ATOM     23  H4  UNL     1      14.256  19.870  13.671  1.00  0.00     0.210 HD
ENDBRANCH   7  22
TORSDOF 7
ENDMDL
MODEL 5
REMARK VINA RESULT: -5.739149699      3.153      3.954
REMARK  7 active torsions:
REMARK  status: ('A' for Active; 'I' for Inactive)
REMARK    1  A    between atoms: C3_4  and  O2_5 
REMARK    2  A    between atoms: C4_7  and  N1_8 
REMARK    3  A    between atoms: N1_8  and  C5_10 
REMARK    4  A    between atoms: C5_10  and  N2_12 
REMARK    5  A    between atoms: N2_12  and  C6_14 
REMARK    6  A    between atoms: C10_18  and  O3_19 
REMARK    7  A    between atoms: C11_21  and  O4_22 
ROOT
HETATM    1  C1  UNL     1      10.588  19.678  11.105  1.00  0.00     0.042 C 
HETATM    2  C2  UNL     1      11.242  18.777  12.147  1.00  0.00     0.152 C 
HETATM    3  O1  UNL     1      12.250  19.446  12.837  1.00  0.00    -0.352 OA
HETATM    4  C3  UNL     1      12.423  18.949  14.126  1.00  0.00     0.282 C 
HETATM    5  C4  UNL     1      12.089  17.502  14.211  1.00  0.00     0.170 C 
HETATM    6  C10 UNL     1      10.598  17.258  14.049  1.00  0.00     0.176 C 
HETATM    7  C11 UNL     1      10.126  18.291  13.048  1.00  0.00     0.177 C 
ENDROOT
BRANCH   5   8
HETATM    8  N1  UNL     1      12.575  16.856  15.376  1.00  0.00    -0.355 N 
ATOM      9  H1  UNL     1      12.109  17.064  16.260  1.00  0.00     0.162 HD
BRANCH   8  10
HETATM   10  C5  UNL     1      13.659  15.946  15.407  1.00  0.00     0.168 C 
HETATM   11  S1  UNL     1      14.493  15.662  14.033  1.00  0.00    -0.041 SA
BRANCH  10  12
HETATM   12  N2  UNL     1      14.034  15.251  16.590  1.00  0.00    -0.363 N 
ATOM     13  H2  UNL     1      13.910  14.241  16.676  1.00  0.00     0.162 HD
BRANCH  12  14
HETATM   14  C6  UNL     1      14.597  16.033  17.663  1.00  0.00     0.083 C 
HETATM   15  C7  UNL     1      15.936  16.665  17.373  1.00  0.00     0.025 C 
HETATM   16  C8  UNL     1      16.284  16.389  18.824  1.00  0.00     0.004 C 
HETATM   17  C9  UNL     1      15.301  15.212  18.735  1.00  0.00     0.025 C 
ENDBRANCH  12  14
ENDBRANCH  10  12
ENDBRANCH   8  10
ENDBRANCH   5   8
BRANCH   4  18
HETATM   18  O2  UNL     1      11.651  19.707  15.024  1.00  0.00    -0.369 OA
ATOM     19  H2  UNL     1      12.041  19.664  15.889  1.00  0.00     0.212 HD
ENDBRANCH   4  18
BRANCH   6  20
HETATM   20  O3  UNL     1       9.915  17.488  15.241  1.00  0.00    -0.391 OA
ATOM     21  H3  UNL     1       9.097  17.946  15.087  1.00  0.00     0.210 HD
ENDBRANCH   6  20
BRANCH   7  22
HETATM   22  O4  UNL     1       9.135  17.773  12.211  1.00  0.00    -0.390 OA
ATOM     23  H4  UNL     1       8.310  17.885  12.667  1.00  0.00     0.210 HD
ENDBRANCH   7  22
TORSDOF 7
ENDMDL
