MODEL 1
REMARK VINA RESULT: -6.835967489      0.000      0.000
REMARK  6 active torsions:
REMARK  status: ('A' for Active; 'I' for Inactive)
REMARK    1  A    between atoms: C1_2  and  C2_4 
REMARK    2  A    between atoms: C4_6  and  O3_7 
REMARK    3  A    between atoms: C5_9  and  O4_10 
REMARK    4  A    between atoms: C6_12  and  C7_13 
REMARK    5  A    between atoms: C7_13  and  O5_14 
REMARK    6  A    between atoms: C7_13  and  C8_16 
ROOT
HETATM    1  C2  UNL     1      14.139  16.195  15.629  1.00  0.00     0.181 C 
HETATM    2  C3  UNL     1      13.159  15.078  15.752  1.00  0.00     0.070 C 
HETATM    3  C4  UNL     1      12.439  15.303  17.072  1.00  0.00     0.151 C 
HETATM    4  C5  UNL     1      13.463  15.151  18.142  1.00  0.00     0.171 C 
HETATM    5  C6  UNL     1      14.601  16.168  18.023  1.00  0.00     0.138 C 
HETATM    6  N1  UNL     1      15.039  16.380  16.709  1.00  0.00    -0.399 N 
ATOM      7  H1  UNL     1      16.001  16.666  16.530  1.00  0.00     0.154 HD
ENDROOT
BRANCH   5   8
HETATM    8  C7  UNL     1      15.642  15.721  18.972  1.00  0.00     0.147 C 
BRANCH   8   9
HETATM    9  O5  UNL     1      15.070  15.100  20.118  1.00  0.00    -0.393 OA
ATOM     10  H5  UNL     1      14.422  14.449  19.874  1.00  0.00     0.210 HD
ENDBRANCH   8   9
BRANCH   8  11
HETATM   11  C8  UNL     1      16.672  16.643  19.462  1.00  0.00     0.016 C 
HETATM   12  C9  UNL     1      17.010  16.624  20.920  1.00  0.00     0.007 C 
HETATM   13  C10 UNL     1      18.508  16.474  21.141  1.00  0.00     0.000 C 
HETATM   14  C11 UNL     1      19.171  17.678  20.523  1.00  0.00     0.000 C 
HETATM   15  C12 UNL     1      18.829  17.765  19.063  1.00  0.00     0.000 C 
HETATM   16  C13 UNL     1      17.950  16.618  18.609  1.00  0.00     0.007 C 
ENDBRANCH   8  11
ENDBRANCH   5   8
BRANCH   4  17
HETATM   17  O4  UNL     1      13.928  13.838  18.117  1.00  0.00    -0.391 OA
ATOM     18  H4  UNL     1      14.707  13.788  18.657  1.00  0.00     0.210 HD
ENDBRANCH   4  17
BRANCH   3  19
HETATM   19  O3  UNL     1      11.507  14.298  17.206  1.00  0.00    -0.393 OA
ATOM     20  H3  UNL     1      10.821  14.464  16.571  1.00  0.00     0.210 HD
ENDBRANCH   3  19
BRANCH   1  21
HETATM   21  C1  UNL     1      14.919  15.964  14.382  1.00  0.00     0.196 C 
HETATM   22  O1  UNL     1      14.525  15.262  13.427  1.00  0.00    -0.646 OA
HETATM   23  O2  UNL     1      16.162  16.568  14.283  1.00  0.00    -0.646 OA
ENDBRANCH   1  21
TORSDOF 6
ENDMDL
MODEL 2
REMARK VINA RESULT: -6.401201690      2.204      5.427
REMARK  6 active torsions:
REMARK  status: ('A' for Active; 'I' for Inactive)
REMARK    1  A    between atoms: C1_2  and  C2_4 
REMARK    2  A    between atoms: C4_6  and  O3_7 
REMARK    3  A    between atoms: C5_9  and  O4_10 
REMARK    4  A    between atoms: C6_12  and  C7_13 
REMARK    5  A    between atoms: C7_13  and  O5_14 
REMARK    6  A    between atoms: C7_13  and  C8_16 
ROOT
HETATM    1  C2  UNL     1      16.648  15.803  18.817  1.00  0.00     0.181 C 
HETATM    2  C3  UNL     1      15.604  15.145  19.652  1.00  0.00     0.070 C 
HETATM    3  C4  UNL     1      14.810  14.262  18.701  1.00  0.00     0.151 C 
HETATM    4  C5  UNL     1      14.136  15.179  17.740  1.00  0.00     0.171 C 
HETATM    5  C6  UNL     1      15.124  16.015  16.925  1.00  0.00     0.138 C 
HETATM    6  N1  UNL     1      16.202  16.511  17.672  1.00  0.00    -0.399 N 
ATOM      7  H1  UNL     1      16.662  17.377  17.394  1.00  0.00     0.154 HD
ENDROOT
BRANCH   5   8
HETATM    8  C7  UNL     1      14.313  17.037  16.231  1.00  0.00     0.147 C 
BRANCH   8   9
HETATM    9  O5  UNL     1      13.059  16.510  15.813  1.00  0.00    -0.393 OA
ATOM     10  H5  UNL     1      12.904  15.648  16.181  1.00  0.00     0.210 HD
ENDBRANCH   8   9
BRANCH   8  11
HETATM   11  C8  UNL     1      14.851  17.796  15.098  1.00  0.00     0.016 C 
HETATM   12  C9  UNL     1      16.054  17.259  14.387  1.00  0.00     0.007 C 
HETATM   13  C10 UNL     1      15.821  17.176  12.886  1.00  0.00     0.000 C 
HETATM   14  C11 UNL     1      15.576  18.580  12.396  1.00  0.00     0.000 C 
HETATM   15  C12 UNL     1      14.399  19.180  13.110  1.00  0.00     0.000 C 
HETATM   16  C13 UNL     1      13.768  18.214  14.090  1.00  0.00     0.007 C 
ENDBRANCH   8  11
ENDBRANCH   5   8
BRANCH   4  17
HETATM   17  O4  UNL     1      13.238  15.972  18.451  1.00  0.00    -0.391 OA
ATOM     18  H4  UNL     1      12.465  16.099  17.915  1.00  0.00     0.210 HD
ENDBRANCH   4  17
BRANCH   3  19
HETATM   19  O3  UNL     1      13.847  13.620  19.448  1.00  0.00    -0.393 OA
ATOM     20  H3  UNL     1      13.432  14.275  19.995  1.00  0.00     0.210 HD
ENDBRANCH   3  19
BRANCH   1  21
HETATM   21  C1  UNL     1      17.398  16.737  19.701  1.00  0.00     0.196 C 
HETATM   22  O1  UNL     1      18.365  17.433  19.329  1.00  0.00    -0.646 OA
HETATM   23  O2  UNL     1      16.991  16.833  21.023  1.00  0.00    -0.646 OA
ENDBRANCH   1  21
TORSDOF 6
ENDMDL
MODEL 3
REMARK VINA RESULT: -6.280464084      3.019      4.617
REMARK  6 active torsions:
REMARK  status: ('A' for Active; 'I' for Inactive)
REMARK    1  A    between atoms: C1_2  and  C2_4 
REMARK    2  A    between atoms: C4_6  and  O3_7 
REMARK    3  A    between atoms: C5_9  and  O4_10 
REMARK    4  A    between atoms: C6_12  and  C7_13 
REMARK    5  A    between atoms: C7_13  and  O5_14 
REMARK    6  A    between atoms: C7_13  and  C8_16 
ROOT
HETATM    1  C2  UNL     1      15.376  17.922  14.355  1.00  0.00     0.181 C 
HETATM    2  C3  UNL     1      16.253  18.789  13.517  1.00  0.00     0.070 C 
HETATM    3  C4  UNL     1      17.576  18.047  13.400  1.00  0.00     0.151 C 
HETATM    4  C5  UNL     1      18.147  17.986  14.774  1.00  0.00     0.171 C 
HETATM    5  C6  UNL     1      17.248  17.235  15.758  1.00  0.00     0.138 C 
HETATM    6  N1  UNL     1      15.884  17.525  15.618  1.00  0.00    -0.399 N 
ATOM      7  H1  UNL     1      15.259  17.452  16.420  1.00  0.00     0.154 HD
ENDROOT
BRANCH   5   8
HETATM    8  C7  UNL     1      17.813  17.491  17.099  1.00  0.00     0.147 C 
BRANCH   8   9
HETATM    9  O5  UNL     1      19.236  17.525  17.066  1.00  0.00    -0.393 OA
ATOM     10  H5  UNL     1      19.608  17.316  17.915  1.00  0.00     0.210 HD
ENDBRANCH   8   9
BRANCH   8  11
HETATM   11  C8  UNL     1      17.438  16.668  18.253  1.00  0.00     0.016 C 
HETATM   12  C9  UNL     1      18.201  16.841  19.530  1.00  0.00     0.007 C 
HETATM   13  C10 UNL     1      17.268  17.081  20.708  1.00  0.00     0.000 C 
HETATM   14  C11 UNL     1      16.400  15.856  20.843  1.00  0.00     0.000 C 
HETATM   15  C12 UNL     1      15.641  15.614  19.570  1.00  0.00     0.000 C 
HETATM   16  C13 UNL     1      15.925  16.671  18.523  1.00  0.00     0.007 C 
ENDBRANCH   8  11
ENDBRANCH   5   8
BRANCH   4  17
HETATM   17  O4  UNL     1      18.413  19.288  15.194  1.00  0.00    -0.391 OA
ATOM     18  H4  UNL     1      18.183  19.356  16.113  1.00  0.00     0.210 HD
ENDBRANCH   4  17
BRANCH   3  19
HETATM   19  O3  UNL     1      18.405  18.813  12.611  1.00  0.00    -0.393 OA
ATOM     20  H3  UNL     1      19.297  18.638  12.887  1.00  0.00     0.210 HD
ENDBRANCH   3  19
BRANCH   1  21
HETATM   21  C1  UNL     1      14.095  18.654  14.556  1.00  0.00     0.196 C 
HETATM   22  O1  UNL     1      12.987  18.100  14.716  1.00  0.00    -0.646 OA
HETATM   23  O2  UNL     1      14.143  20.039  14.565  1.00  0.00    -0.646 OA
ENDBRANCH   1  21
TORSDOF 6
ENDMDL
MODEL 4
REMARK VINA RESULT: -6.146619599      2.997      4.650
REMARK  6 active torsions:
REMARK  status: ('A' for Active; 'I' for Inactive)
REMARK    1  A    between atoms: C1_2  and  C2_4 
REMARK    2  A    between atoms: C4_6  and  O3_7 
REMARK    3  A    between atoms: C5_9  and  O4_10 
REMARK    4  A    between atoms: C6_12  and  C7_13 
REMARK    5  A    between atoms: C7_13  and  O5_14 
REMARK    6  A    between atoms: C7_13  and  C8_16 
ROOT
HETATM    1  C2  UNL     1      15.381  17.913  14.287  1.00  0.00     0.181 C 
HETATM    2  C3  UNL     1      16.261  18.729  13.403  1.00  0.00     0.070 C 
HETATM    3  C4  UNL     1      17.563  17.952  13.285  1.00  0.00     0.151 C 
HETATM    4  C5  UNL     1      18.162  17.924  14.648  1.00  0.00     0.171 C 
HETATM    5  C6  UNL     1      17.266  17.228  15.675  1.00  0.00     0.138 C 
HETATM    6  N1  UNL     1      15.906  17.547  15.552  1.00  0.00    -0.399 N 
ATOM      7  H1  UNL     1      15.297  17.515  16.369  1.00  0.00     0.154 HD
ENDROOT
BRANCH   5   8
HETATM    8  C7  UNL     1      17.866  17.515  16.994  1.00  0.00     0.147 C 
BRANCH   8   9
HETATM    9  O5  UNL     1      19.146  16.908  17.127  1.00  0.00    -0.393 OA
ATOM     10  H5  UNL     1      19.182  16.072  16.677  1.00  0.00     0.210 HD
ENDBRANCH   8   9
BRANCH   8  11
HETATM   11  C8  UNL     1      17.138  17.241  18.237  1.00  0.00     0.016 C 
HETATM   12  C9  UNL     1      15.868  16.451  18.160  1.00  0.00     0.007 C 
HETATM   13  C10 UNL     1      15.884  15.277  19.129  1.00  0.00     0.000 C 
HETATM   14  C11 UNL     1      15.996  15.850  20.519  1.00  0.00     0.000 C 
HETATM   15  C12 UNL     1      17.238  16.687  20.637  1.00  0.00     0.000 C 
HETATM   16  C13 UNL     1      18.045  16.701  19.355  1.00  0.00     0.007 C 
ENDBRANCH   8  11
ENDBRANCH   5   8
BRANCH   4  17
HETATM   17  O4  UNL     1      18.467  19.232  15.018  1.00  0.00    -0.391 OA
ATOM     18  H4  UNL     1      19.023  19.201  15.787  1.00  0.00     0.210 HD
ENDBRANCH   4  17
BRANCH   3  19
HETATM   19  O3  UNL     1      18.394  18.671  12.453  1.00  0.00    -0.393 OA
ATOM     20  H3  UNL     1      18.846  19.310  12.990  1.00  0.00     0.210 HD
ENDBRANCH   3  19
BRANCH   1  21
HETATM   21  C1  UNL     1      14.123  18.682  14.489  1.00  0.00     0.196 C 
HETATM   22  O1  UNL     1      12.999  18.161  14.651  1.00  0.00    -0.646 OA
HETATM   23  O2  UNL     1      14.211  20.065  14.496  1.00  0.00    -0.646 OA
ENDBRANCH   1  21
TORSDOF 6
ENDMDL
MODEL 5
REMARK VINA RESULT: -5.995538438      1.678      2.636
REMARK  6 active torsions:
REMARK  status: ('A' for Active; 'I' for Inactive)
REMARK    1  A    between atoms: C1_2  and  C2_4 
REMARK    2  A    between atoms: C4_6  and  O3_7 
REMARK    3  A    between atoms: C5_9  and  O4_10 
REMARK    4  A    between atoms: C6_12  and  C7_13 
REMARK    5  A    between atoms: C7_13  and  O5_14 
REMARK    6  A    between atoms: C7_13  and  C8_16 
ROOT
HETATM    1  C2  UNL     1      12.453  15.171  17.102  1.00  0.00     0.181 C 
HETATM    2  C3  UNL     1      12.818  13.801  17.565  1.00  0.00     0.070 C 
HETATM    3  C4  UNL     1      13.422  13.979  18.949  1.00  0.00     0.151 C 
HETATM    4  C5  UNL     1      14.675  14.763  18.764  1.00  0.00     0.171 C 
HETATM    5  C6  UNL     1      14.426  16.145  18.154  1.00  0.00     0.138 C 
HETATM    6  N1  UNL     1      13.480  16.148  17.119  1.00  0.00    -0.399 N 
ATOM      7  H1  UNL     1      13.531  16.850  16.382  1.00  0.00     0.154 HD
ENDROOT
BRANCH   5   8
HETATM    8  C7  UNL     1      15.758  16.674  17.795  1.00  0.00     0.147 C 
BRANCH   8   9
HETATM    9  O5  UNL     1      16.137  16.281  16.481  1.00  0.00    -0.393 OA
ATOM     10  H5  UNL     1      17.059  16.446  16.321  1.00  0.00     0.210 HD
ENDBRANCH   8   9
BRANCH   8  11
HETATM   11  C8  UNL     1      16.923  16.449  18.655  1.00  0.00     0.016 C 
HETATM   12  C9  UNL     1      18.242  17.018  18.232  1.00  0.00     0.007 C 
HETATM   13  C10 UNL     1      18.877  17.838  19.346  1.00  0.00     0.000 C 
HETATM   14  C11 UNL     1      19.120  16.904  20.502  1.00  0.00     0.000 C 
HETATM   15  C12 UNL     1      17.829  16.273  20.941  1.00  0.00     0.000 C 
HETATM   16  C13 UNL     1      16.646  16.766  20.133  1.00  0.00     0.007 C 
ENDBRANCH   8  11
ENDBRANCH   5   8
BRANCH   4  17
HETATM   17  O4  UNL     1      15.556  14.002  17.998  1.00  0.00    -0.391 OA
ATOM     18  H4  UNL     1      15.645  13.150  18.407  1.00  0.00     0.210 HD
ENDBRANCH   4  17
BRANCH   3  19
HETATM   19  O3  UNL     1      13.751  12.726  19.416  1.00  0.00    -0.393 OA
ATOM     20  H3  UNL     1      13.424  12.096  18.785  1.00  0.00     0.210 HD
ENDBRANCH   3  19
BRANCH   1  21
HETATM   21  C1  UNL     1      11.929  15.043  15.715  1.00  0.00     0.196 C 
HETATM   22  O1  UNL     1      12.563  14.532  14.768  1.00  0.00    -0.646 OA
HETATM   23  O2  UNL     1      10.654  15.527  15.464  1.00  0.00    -0.646 OA
ENDBRANCH   1  21
TORSDOF 6
ENDMDL
