MODEL 1
REMARK VINA RESULT: -6.354993572      0.000      0.000
REMARK  8 active torsions:
REMARK  status: ('A' for Active; 'I' for Inactive)
REMARK    1  A    between atoms: C3_3  and  O1_4 
REMARK    2  A    between atoms: C4_6  and  O2_7 
REMARK    3  A    between atoms: C6_10  and  O3_11 
REMARK    4  A    between atoms: C7_13  and  O4_14 
REMARK    5  A    between atoms: C7_13  and  C8_16 
REMARK    6  A    between atoms: C9_17  and  C10_18 
REMARK    7  A    between atoms: C11_19  and  C12_20 
REMARK    8  A    between atoms: C15_23  and  O5_24 
ROOT
HETATM    1  C1  UNL     1      20.506  17.975  12.220  1.00  0.00     0.015 C 
HETATM    2  C2  UNL     1      19.317  17.874  12.059  1.00  0.00    -0.073 C 
HETATM    3  C3  UNL     1      17.851  17.755  11.835  1.00  0.00     0.175 C 
HETATM    4  C4  UNL     1      17.289  19.126  11.613  1.00  0.00     0.170 C 
HETATM    5  C5  UNL     1      16.208  19.398  12.625  1.00  0.00     0.071 C 
HETATM    6  C6  UNL     1      16.784  19.175  14.006  1.00  0.00     0.161 C 
HETATM    7  C7  UNL     1      17.041  17.716  14.228  1.00  0.00     0.131 C 
HETATM    8  C15 UNL     1      17.192  16.976  12.908  1.00  0.00     0.208 C 
ENDROOT
BRANCH   3   9
HETATM    9  O1  UNL     1      17.715  17.057  10.609  1.00  0.00    -0.372 OA
ATOM     10  H1  UNL     1      16.836  17.253  10.304  1.00  0.00     0.212 HD
ENDBRANCH   3   9
BRANCH   4  11
HETATM   11  O2  UNL     1      16.666  19.225  10.341  1.00  0.00    -0.391 OA
ATOM     12  H2  UNL     1      15.856  19.719  10.393  1.00  0.00     0.210 HD
ENDBRANCH   4  11
BRANCH   8  13
HETATM   13  O5  UNL     1      16.006  16.409  12.464  1.00  0.00    -0.388 OA
ATOM     14  H5  UNL     1      15.876  15.545  12.836  1.00  0.00     0.210 HD
ENDBRANCH   8  13
BRANCH   7  15
HETATM   15  O4  UNL     1      18.219  17.451  14.934  1.00  0.00    -0.380 OA
ATOM     16  H4  UNL     1      18.212  16.619  15.393  1.00  0.00     0.211 HD
ENDBRANCH   7  15
BRANCH   7  17
HETATM   17  C8  UNL     1      15.888  17.113  14.909  1.00  0.00     0.016 C 
HETATM   18  C9  UNL     1      15.870  16.870  16.195  1.00  0.00    -0.001 C 
BRANCH  18  19
HETATM   19  C10 UNL     1      16.979  17.170  17.072  1.00  0.00    -0.000 C 
HETATM   20  C11 UNL     1      17.005  16.801  18.323  1.00  0.00    -0.000 C 
BRANCH  20  21
HETATM   21  C12 UNL     1      15.953  16.069  18.951  1.00  0.00    -0.004 C 
HETATM   22  C13 UNL     1      15.913  15.947  20.269  1.00  0.00    -0.031 C 
HETATM   23  C14 UNL     1      16.964  16.572  21.117  1.00  0.00     0.036 C 
ENDBRANCH  20  21
ENDBRANCH  18  19
ENDBRANCH   7  17
BRANCH   6  24
HETATM   24  O3  UNL     1      17.962  19.954  14.076  1.00  0.00    -0.392 OA
ATOM     25  H3  UNL     1      18.633  19.391  14.443  1.00  0.00     0.210 HD
ENDBRANCH   6  24
TORSDOF 8
ENDMDL
MODEL 2
REMARK VINA RESULT: -6.302576032      2.782      4.337
REMARK  8 active torsions:
REMARK  status: ('A' for Active; 'I' for Inactive)
REMARK    1  A    between atoms: C3_3  and  O1_4 
REMARK    2  A    between atoms: C4_6  and  O2_7 
REMARK    3  A    between atoms: C6_10  and  O3_11 
REMARK    4  A    between atoms: C7_13  and  O4_14 
REMARK    5  A    between atoms: C7_13  and  C8_16 
REMARK    6  A    between atoms: C9_17  and  C10_18 
REMARK    7  A    between atoms: C11_19  and  C12_20 
REMARK    8  A    between atoms: C15_23  and  O5_24 
ROOT
HETATM    1  C1  UNL     1      11.736  17.515  14.492  1.00  0.00     0.015 C 
HETATM    2  C2  UNL     1      12.921  17.436  14.293  1.00  0.00    -0.073 C 
HETATM    3  C3  UNL     1      14.379  17.336  14.019  1.00  0.00     0.175 C 
HETATM    4  C4  UNL     1      14.677  15.960  13.508  1.00  0.00     0.170 C 
HETATM    5  C5  UNL     1      15.707  15.306  14.391  1.00  0.00     0.071 C 
HETATM    6  C6  UNL     1      15.204  15.348  15.817  1.00  0.00     0.161 C 
HETATM    7  C7  UNL     1      15.222  16.755  16.329  1.00  0.00     0.131 C 
HETATM    8  C15 UNL     1      15.188  17.758  15.186  1.00  0.00     0.208 C 
ENDROOT
BRANCH   3   9
HETATM    9  O1  UNL     1      14.621  18.229  12.945  1.00  0.00    -0.372 OA
ATOM     10  H1  UNL     1      14.951  17.687  12.237  1.00  0.00     0.212 HD
ENDBRANCH   3   9
BRANCH   4  11
HETATM   11  O2  UNL     1      15.251  16.008  12.210  1.00  0.00    -0.391 OA
ATOM     12  H2  UNL     1      14.685  15.593  11.569  1.00  0.00     0.210 HD
ENDBRANCH   4  11
BRANCH   8  13
HETATM   13  O5  UNL     1      16.450  18.183  14.798  1.00  0.00    -0.388 OA
ATOM     14  H5  UNL     1      16.947  18.509  15.539  1.00  0.00     0.210 HD
ENDBRANCH   8  13
BRANCH   7  15
HETATM   15  O4  UNL     1      14.124  17.078  17.133  1.00  0.00    -0.380 OA
ATOM     16  H4  UNL     1      14.184  17.936  17.537  1.00  0.00     0.211 HD
ENDBRANCH   7  15
BRANCH   7  17
HETATM   17  C8  UNL     1      16.477  16.998  17.052  1.00  0.00     0.016 C 
HETATM   18  C9  UNL     1      16.644  16.681  18.311  1.00  0.00    -0.001 C 
BRANCH  18  19
HETATM   19  C10 UNL     1      15.615  16.061  19.114  1.00  0.00    -0.000 C 
HETATM   20  C11 UNL     1      15.702  15.957  20.411  1.00  0.00    -0.000 C 
BRANCH  20  21
HETATM   21  C12 UNL     1      16.812  16.441  21.168  1.00  0.00    -0.004 C 
HETATM   22  C13 UNL     1      16.703  16.633  22.473  1.00  0.00    -0.031 C 
HETATM   23  C14 UNL     1      15.421  16.348  23.174  1.00  0.00     0.036 C 
ENDBRANCH  20  21
ENDBRANCH  18  19
ENDBRANCH   7  17
BRANCH   6  24
HETATM   24  O3  UNL     1      13.904  14.790  15.797  1.00  0.00    -0.392 OA
ATOM     25  H3  UNL     1      13.866  14.232  15.030  1.00  0.00     0.210 HD
ENDBRANCH   6  24
TORSDOF 8
ENDMDL
MODEL 3
REMARK VINA RESULT: -6.191325675      1.554      3.204
REMARK  8 active torsions:
REMARK  status: ('A' for Active; 'I' for Inactive)
REMARK    1  A    between atoms: C3_3  and  O1_4 
REMARK    2  A    between atoms: C4_6  and  O2_7 
REMARK    3  A    between atoms: C6_10  and  O3_11 
REMARK    4  A    between atoms: C7_13  and  O4_14 
REMARK    5  A    between atoms: C7_13  and  C8_16 
REMARK    6  A    between atoms: C9_17  and  C10_18 
REMARK    7  A    between atoms: C11_19  and  C12_20 
REMARK    8  A    between atoms: C15_23  and  O5_24 
ROOT
HETATM    1  C1  UNL     1      12.718  18.590  13.043  1.00  0.00     0.015 C 
HETATM    2  C2  UNL     1      13.896  18.766  12.861  1.00  0.00    -0.073 C 
HETATM    3  C3  UNL     1      15.345  18.991  12.611  1.00  0.00     0.175 C 
HETATM    4  C4  UNL     1      15.824  17.971  11.625  1.00  0.00     0.170 C 
HETATM    5  C5  UNL     1      16.964  17.189  12.222  1.00  0.00     0.071 C 
HETATM    6  C6  UNL     1      16.503  16.613  13.544  1.00  0.00     0.161 C 
HETATM    7  C7  UNL     1      16.332  17.709  14.551  1.00  0.00     0.131 C 
HETATM    8  C15 UNL     1      16.118  19.053  13.873  1.00  0.00     0.208 C 
ENDROOT
BRANCH   3   9
HETATM    9  O1  UNL     1      15.422  20.250  11.962  1.00  0.00    -0.372 OA
ATOM     10  H1  UNL     1      16.350  20.436  11.884  1.00  0.00     0.212 HD
ENDBRANCH   3   9
BRANCH   4  11
HETATM   11  O2  UNL     1      16.346  18.590  10.459  1.00  0.00    -0.391 OA
ATOM     12  H2  UNL     1      17.164  18.187  10.193  1.00  0.00     0.210 HD
ENDBRANCH   4  11
BRANCH   8  13
HETATM   13  O5  UNL     1      17.292  19.773  13.710  1.00  0.00    -0.388 OA
ATOM     14  H5  UNL     1      18.004  19.212  13.426  1.00  0.00     0.210 HD
ENDBRANCH   8  13
BRANCH   7  15
HETATM   15  O4  UNL     1      15.223  17.538  15.386  1.00  0.00    -0.380 OA
ATOM     16  H4  UNL     1      15.154  18.196  16.069  1.00  0.00     0.211 HD
ENDBRANCH   7  15
BRANCH   7  17
HETATM   17  C8  UNL     1      17.558  17.840  15.347  1.00  0.00     0.016 C 
HETATM   18  C9  UNL     1      17.663  17.387  16.571  1.00  0.00    -0.001 C 
BRANCH  18  19
HETATM   19  C10 UNL     1      16.586  16.715  17.260  1.00  0.00    -0.000 C 
HETATM   20  C11 UNL     1      16.642  16.414  18.528  1.00  0.00    -0.000 C 
BRANCH  20  21
HETATM   21  C12 UNL     1      17.762  16.715  19.361  1.00  0.00    -0.004 C 
HETATM   22  C13 UNL     1      17.645  16.686  20.679  1.00  0.00    -0.031 C 
HETATM   23  C14 UNL     1      16.346  16.340  21.315  1.00  0.00     0.036 C 
ENDBRANCH  20  21
ENDBRANCH  18  19
ENDBRANCH   7  17
BRANCH   6  24
HETATM   24  O3  UNL     1      15.299  15.922  13.277  1.00  0.00    -0.392 OA
ATOM     25  H3  UNL     1      14.594  16.528  13.474  1.00  0.00     0.210 HD
ENDBRANCH   6  24
TORSDOF 8
ENDMDL
MODEL 4
REMARK VINA RESULT: -6.013092950      1.393      1.781
REMARK  8 active torsions:
REMARK  status: ('A' for Active; 'I' for Inactive)
REMARK    1  A    between atoms: C3_3  and  O1_4 
REMARK    2  A    between atoms: C4_6  and  O2_7 
REMARK    3  A    between atoms: C6_10  and  O3_11 
REMARK    4  A    between atoms: C7_13  and  O4_14 
REMARK    5  A    between atoms: C7_13  and  C8_16 
REMARK    6  A    between atoms: C9_17  and  C10_18 
REMARK    7  A    between atoms: C11_19  and  C12_20 
REMARK    8  A    between atoms: C15_23  and  O5_24 
ROOT
HETATM    1  C1  UNL     1      19.215  16.883  10.163  1.00  0.00     0.015 C 
HETATM    2  C2  UNL     1      18.453  17.705  10.605  1.00  0.00    -0.073 C 
HETATM    3  C3  UNL     1      17.523  18.738  11.133  1.00  0.00     0.175 C 
HETATM    4  C4  UNL     1      18.314  19.735  11.923  1.00  0.00     0.170 C 
HETATM    5  C5  UNL     1      17.772  19.813  13.325  1.00  0.00     0.071 C 
HETATM    6  C6  UNL     1      17.765  18.416  13.909  1.00  0.00     0.161 C 
HETATM    7  C7  UNL     1      16.723  17.580  13.232  1.00  0.00     0.131 C 
HETATM    8  C15 UNL     1      16.381  18.132  11.856  1.00  0.00     0.208 C 
ENDROOT
BRANCH   3   9
HETATM    9  O1  UNL     1      17.033  19.421   9.991  1.00  0.00    -0.372 OA
ATOM     10  H1  UNL     1      17.338  20.317  10.084  1.00  0.00     0.212 HD
ENDBRANCH   3   9
BRANCH   4  11
HETATM   11  O2  UNL     1      18.181  21.040  11.381  1.00  0.00    -0.391 OA
ATOM     12  H2  UNL     1      18.273  21.703  12.055  1.00  0.00     0.210 HD
ENDBRANCH   4  11
BRANCH   8  13
HETATM   13  O5  UNL     1      15.284  18.981  11.869  1.00  0.00    -0.388 OA
ATOM     14  H5  UNL     1      14.519  18.550  12.232  1.00  0.00     0.210 HD
ENDBRANCH   8  13
BRANCH   7  15
HETATM   15  O4  UNL     1      17.120  16.257  13.008  1.00  0.00    -0.380 OA
ATOM     16  H4  UNL     1      16.858  15.657  13.697  1.00  0.00     0.211 HD
ENDBRANCH   7  15
BRANCH   7  17
HETATM   17  C8  UNL     1      15.480  17.618  14.011  1.00  0.00     0.016 C 
HETATM   18  C9  UNL     1      15.456  17.501  15.316  1.00  0.00    -0.001 C 
BRANCH  18  19
HETATM   19  C10 UNL     1      16.646  17.323  16.116  1.00  0.00    -0.000 C 
HETATM   20  C11 UNL     1      16.627  16.743  17.284  1.00  0.00    -0.000 C 
BRANCH  20  21
HETATM   21  C12 UNL     1      15.441  16.226  17.888  1.00  0.00    -0.004 C 
HETATM   22  C13 UNL     1      15.383  16.037  19.197  1.00  0.00    -0.031 C 
HETATM   23  C14 UNL     1      16.551  16.360  20.061  1.00  0.00     0.036 C 
ENDBRANCH  20  21
ENDBRANCH  18  19
ENDBRANCH   7  17
BRANCH   6  24
HETATM   24  O3  UNL     1      19.073  17.907  13.736  1.00  0.00    -0.392 OA
ATOM     25  H3  UNL     1      19.212  17.842  12.798  1.00  0.00     0.210 HD
ENDBRANCH   6  24
TORSDOF 8
ENDMDL
MODEL 5
REMARK VINA RESULT: -5.894510764      2.351      6.319
REMARK  8 active torsions:
REMARK  status: ('A' for Active; 'I' for Inactive)
REMARK    1  A    between atoms: C3_3  and  O1_4 
REMARK    2  A    between atoms: C4_6  and  O2_7 
REMARK    3  A    between atoms: C6_10  and  O3_11 
REMARK    4  A    between atoms: C7_13  and  O4_14 
REMARK    5  A    between atoms: C7_13  and  C8_16 
REMARK    6  A    between atoms: C9_17  and  C10_18 
REMARK    7  A    between atoms: C11_19  and  C12_20 
REMARK    8  A    between atoms: C15_23  and  O5_24 
ROOT
HETATM    1  C1  UNL     1      16.417  16.623  17.723  1.00  0.00     0.015 C 
HETATM    2  C2  UNL     1      15.511  16.611  16.930  1.00  0.00    -0.073 C 
HETATM    3  C3  UNL     1      14.380  16.575  15.964  1.00  0.00     0.175 C 
HETATM    4  C4  UNL     1      14.527  15.359  15.102  1.00  0.00     0.170 C 
HETATM    5  C5  UNL     1      14.578  15.770  13.655  1.00  0.00     0.071 C 
HETATM    6  C6  UNL     1      15.684  16.789  13.490  1.00  0.00     0.161 C 
HETATM    7  C7  UNL     1      15.300  18.077  14.153  1.00  0.00     0.131 C 
HETATM    8  C15 UNL     1      14.246  17.852  15.226  1.00  0.00     0.208 C 
ENDROOT
BRANCH   3   9
HETATM    9  O1  UNL     1      13.219  16.376  16.753  1.00  0.00    -0.372 OA
ATOM     10  H1  UNL     1      12.705  17.168  16.648  1.00  0.00     0.212 HD
ENDBRANCH   3   9
BRANCH   4  11
HETATM   11  O2  UNL     1      13.399  14.505  15.225  1.00  0.00    -0.391 OA
ATOM     12  H2  UNL     1      13.659  13.591  15.222  1.00  0.00     0.210 HD
ENDBRANCH   4  11
BRANCH   8  13
HETATM   13  O5  UNL     1      12.952  18.034  14.763  1.00  0.00    -0.388 OA
ATOM     14  H5  UNL     1      12.918  18.701  14.087  1.00  0.00     0.210 HD
ENDBRANCH   8  13
BRANCH   7  15
HETATM   15  O4  UNL     1      16.361  18.713  14.807  1.00  0.00    -0.380 OA
ATOM     16  H4  UNL     1      16.613  19.540  14.413  1.00  0.00     0.211 HD
ENDBRANCH   7  15
BRANCH   7  17
HETATM   17  C8  UNL     1      14.695  18.977  13.163  1.00  0.00     0.016 C 
HETATM   18  C9  UNL     1      15.400  19.646  12.286  1.00  0.00    -0.001 C 
BRANCH  18  19
HETATM   19  C10 UNL     1      16.840  19.568  12.204  1.00  0.00    -0.000 C 
HETATM   20  C11 UNL     1      17.454  18.832  11.318  1.00  0.00    -0.000 C 
BRANCH  20  21
HETATM   21  C12 UNL     1      16.775  18.037  10.346  1.00  0.00    -0.004 C 
HETATM   22  C13 UNL     1      17.458  17.277   9.504  1.00  0.00    -0.031 C 
HETATM   23  C14 UNL     1      18.945  17.239   9.557  1.00  0.00     0.036 C 
ENDBRANCH  20  21
ENDBRANCH  18  19
ENDBRANCH   7  17
BRANCH   6  24
HETATM   24  O3  UNL     1      16.845  16.210  14.052  1.00  0.00    -0.392 OA
ATOM     25  H3  UNL     1      17.555  16.819  13.884  1.00  0.00     0.210 HD
ENDBRANCH   6  24
TORSDOF 8
ENDMDL
