MODEL 1
REMARK VINA RESULT: -7.974372061      0.000      0.000
REMARK  8 active torsions:
REMARK  status: ('A' for Active; 'I' for Inactive)
REMARK    1  A    between atoms: C2_2  and  N1_4 
REMARK    2  A    between atoms: N1_4  and  C4_6 
REMARK    3  A    between atoms: C10_12  and  O1_13 
REMARK    4  A    between atoms: N2_15  and  C11_16 
REMARK    5  A    between atoms: C11_16  and  C12_17 
REMARK    6  A    between atoms: C12_17  and  C13_18 
REMARK    7  A    between atoms: C13_18  and  C14_21 
REMARK    8  A    between atoms: C20_29  and  O2_30 
ROOT
HETATM    1  C4  UNL     1     -22.428  -0.781  19.991  1.00  0.00     0.026 C 
HETATM    2  C5  UNL     1     -21.810  -1.629  18.863  1.00  0.00     0.038 C 
HETATM    3  C6  UNL     1     -21.519  -1.123  21.199  1.00  0.00     0.035 C 
HETATM    4  C7  UNL     1     -21.967  -0.393  22.419  1.00  0.00     0.046 C 
HETATM    5  C8  UNL     1     -22.214   1.045  22.146  1.00  0.00     0.004 A 
HETATM    6  C9  UNL     1     -22.335   1.552  20.880  1.00  0.00     0.006 A 
HETATM    7  C10 UNL     1     -22.558   2.921  20.977  1.00  0.00     0.151 A 
HETATM    8  N2  UNL     1     -22.577   3.257  22.275  1.00  0.00    -0.307 N 
HETATM    9  C20 UNL     1     -22.369   2.134  23.000  1.00  0.00     0.151 A 
HETATM   10  C21 UNL     1     -22.216   0.645  19.679  1.00  0.00     0.073 C 
ENDROOT
BRANCH   8  11
HETATM   11  C11 UNL     1     -22.784   4.606  22.789  1.00  0.00     0.138 C 
BRANCH  11  12
HETATM   12  C12 UNL     1     -21.472   5.299  23.115  1.00  0.00     0.086 C 
BRANCH  12  13
HETATM   13  C13 UNL     1     -21.193   6.236  21.977  1.00  0.00     0.207 C 
HETATM   14  F1  UNL     1     -22.293   6.468  21.195  1.00  0.00    -0.220 F 
HETATM   15 CL1  UNL     1     -20.792   7.819  22.739  1.00  0.00    -0.077 Cl
BRANCH  13  16
HETATM   16  C14 UNL     1     -20.063   5.879  21.129  1.00  0.00    -0.000 A 
HETATM   17  C15 UNL     1     -18.809   5.825  21.701  1.00  0.00     0.035 A 
HETATM   18  C16 UNL     1     -17.688   5.498  20.988  1.00  0.00     0.036 A 
HETATM   19 CL2  UNL     1     -16.116   5.450  21.794  1.00  0.00    -0.084 Cl
HETATM   20  C17 UNL     1     -17.768   5.204  19.646  1.00  0.00     0.047 A 
HETATM   21  C18 UNL     1     -19.026   5.256  19.062  1.00  0.00     0.036 A 
HETATM   22 CL3  UNL     1     -19.105   4.878  17.351  1.00  0.00    -0.084 Cl
HETATM   23  C19 UNL     1     -20.159   5.585  19.776  1.00  0.00     0.035 A 
ENDBRANCH  13  16
ENDBRANCH  12  13
ENDBRANCH  11  12
ENDBRANCH   8  11
BRANCH   7  24
HETATM   24  O1  UNL     1     -22.727   3.736  19.868  1.00  0.00    -0.345 OA
ATOM     25  H1  UNL     1     -22.046   4.315  19.547  1.00  0.00     0.219 HD
ENDBRANCH   7  24
BRANCH   9  26
HETATM   26  O2  UNL     1     -22.315   2.058  24.380  1.00  0.00    -0.345 OA
ATOM     27  H2  UNL     1     -21.700   2.539  24.920  1.00  0.00     0.219 HD
ENDBRANCH   9  26
BRANCH   1  28
HETATM   28  N1  UNL     1     -23.715  -1.223  20.317  1.00  0.00    -0.409 N 
ATOM     29  H1  UNL     1     -24.505  -0.596  20.161  1.00  0.00     0.154 HD
BRANCH  28  30
HETATM   30  C2  UNL     1     -23.958  -2.494  20.849  1.00  0.00     0.069 C 
HETATM   31  C1  UNL     1     -24.109  -3.650  19.897  1.00  0.00     0.031 C 
HETATM   32  C3  UNL     1     -25.270  -2.442  21.662  1.00  0.00     0.031 C 
ENDBRANCH  28  30
ENDBRANCH   1  28
TORSDOF 8
ENDMDL
MODEL 2
REMARK VINA RESULT: -7.936144520      0.276      1.674
REMARK  8 active torsions:
REMARK  status: ('A' for Active; 'I' for Inactive)
REMARK    1  A    between atoms: C2_2  and  N1_4 
REMARK    2  A    between atoms: N1_4  and  C4_6 
REMARK    3  A    between atoms: C10_12  and  O1_13 
REMARK    4  A    between atoms: N2_15  and  C11_16 
REMARK    5  A    between atoms: C11_16  and  C12_17 
REMARK    6  A    between atoms: C12_17  and  C13_18 
REMARK    7  A    between atoms: C13_18  and  C14_21 
REMARK    8  A    between atoms: C20_29  and  O2_30 
ROOT
HETATM    1  C4  UNL     1     -22.469  -0.838  20.105  1.00  0.00     0.026 C 
HETATM    2  C5  UNL     1     -21.892  -1.748  19.002  1.00  0.00     0.038 C 
HETATM    3  C6  UNL     1     -21.542  -1.148  21.308  1.00  0.00     0.035 C 
HETATM    4  C7  UNL     1     -21.949  -0.356  22.504  1.00  0.00     0.046 C 
HETATM    5  C8  UNL     1     -22.171   1.074  22.173  1.00  0.00     0.004 A 
HETATM    6  C9  UNL     1     -22.307   1.528  20.889  1.00  0.00     0.006 A 
HETATM    7  C10 UNL     1     -22.500   2.905  20.930  1.00  0.00     0.151 A 
HETATM    8  N2  UNL     1     -22.484   3.297  22.212  1.00  0.00    -0.307 N 
HETATM    9  C20 UNL     1     -22.285   2.201  22.981  1.00  0.00     0.151 A 
HETATM   10  C21 UNL     1     -22.233   0.568  19.726  1.00  0.00     0.073 C 
ENDROOT
BRANCH   8  11
HETATM   11  C11 UNL     1     -22.652   4.671  22.671  1.00  0.00     0.138 C 
BRANCH  11  12
HETATM   12  C12 UNL     1     -21.322   5.333  22.984  1.00  0.00     0.086 C 
BRANCH  12  13
HETATM   13  C13 UNL     1     -21.026   6.257  21.838  1.00  0.00     0.207 C 
HETATM   14  F1  UNL     1     -22.122   6.498  21.052  1.00  0.00    -0.220 F 
HETATM   15 CL1  UNL     1     -20.605   7.840  22.588  1.00  0.00    -0.077 Cl
BRANCH  13  16
HETATM   16  C14 UNL     1     -19.901   5.876  20.996  1.00  0.00    -0.000 A 
HETATM   17  C15 UNL     1     -20.160   5.475  19.701  1.00  0.00     0.035 A 
HETATM   18  C16 UNL     1     -19.171   5.101  18.834  1.00  0.00     0.036 A 
HETATM   19 CL2  UNL     1     -19.586   4.601  17.190  1.00  0.00    -0.084 Cl
HETATM   20  C17 UNL     1     -17.852   5.108  19.225  1.00  0.00     0.047 A 
HETATM   21  C18 UNL     1     -17.581   5.509  20.526  1.00  0.00     0.036 A 
HETATM   22 CL3  UNL     1     -15.893   5.511  21.003  1.00  0.00    -0.084 Cl
HETATM   23  C19 UNL     1     -18.575   5.888  21.404  1.00  0.00     0.035 A 
ENDBRANCH  13  16
ENDBRANCH  12  13
ENDBRANCH  11  12
ENDBRANCH   8  11
BRANCH   7  24
HETATM   24  O1  UNL     1     -22.673   3.675  19.790  1.00  0.00    -0.345 OA
ATOM     25  H1  UNL     1     -22.474   4.603  19.760  1.00  0.00     0.219 HD
ENDBRANCH   7  24
BRANCH   9  26
HETATM   26  O2  UNL     1     -22.205   2.184  24.362  1.00  0.00    -0.345 OA
ATOM     27  H2  UNL     1     -21.777   2.853  24.883  1.00  0.00     0.219 HD
ENDBRANCH   9  26
BRANCH   1  28
HETATM   28  N1  UNL     1     -23.758  -1.237  20.475  1.00  0.00    -0.409 N 
ATOM     29  H1  UNL     1     -24.521  -0.563  20.405  1.00  0.00     0.154 HD
BRANCH  28  30
HETATM   30  C2  UNL     1     -24.039  -2.528  20.937  1.00  0.00     0.069 C 
HETATM   31  C1  UNL     1     -24.203  -3.629  19.924  1.00  0.00     0.031 C 
HETATM   32  C3  UNL     1     -25.361  -2.485  21.733  1.00  0.00     0.031 C 
ENDBRANCH  28  30
ENDBRANCH   1  28
TORSDOF 8
ENDMDL
MODEL 3
REMARK VINA RESULT: -7.883018447      1.173      3.041
REMARK  8 active torsions:
REMARK  status: ('A' for Active; 'I' for Inactive)
REMARK    1  A    between atoms: C2_2  and  N1_4 
REMARK    2  A    between atoms: N1_4  and  C4_6 
REMARK    3  A    between atoms: C10_12  and  O1_13 
REMARK    4  A    between atoms: N2_15  and  C11_16 
REMARK    5  A    between atoms: C11_16  and  C12_17 
REMARK    6  A    between atoms: C12_17  and  C13_18 
REMARK    7  A    between atoms: C13_18  and  C14_21 
REMARK    8  A    between atoms: C20_29  and  O2_30 
ROOT
HETATM    1  C4  UNL     1     -22.152  -1.231  20.806  1.00  0.00     0.026 C 
HETATM    2  C5  UNL     1     -22.708  -2.651  21.026  1.00  0.00     0.038 C 
HETATM    3  C6  UNL     1     -23.078  -0.681  19.692  1.00  0.00     0.035 C 
HETATM    4  C7  UNL     1     -22.690   0.711  19.323  1.00  0.00     0.046 C 
HETATM    5  C8  UNL     1     -22.492   1.567  20.518  1.00  0.00     0.004 A 
HETATM    6  C9  UNL     1     -22.357   1.059  21.783  1.00  0.00     0.006 A 
HETATM    7  C10 UNL     1     -22.188   2.121  22.665  1.00  0.00     0.151 A 
HETATM    8  N2  UNL     1     -22.216   3.264  21.963  1.00  0.00    -0.307 N 
HETATM    9  C20 UNL     1     -22.400   2.949  20.660  1.00  0.00     0.151 A 
HETATM   10  C21 UNL     1     -22.409  -0.431  22.018  1.00  0.00     0.073 C 
ENDROOT
BRANCH   8  11
HETATM   11  C11 UNL     1     -22.074   4.600  22.531  1.00  0.00     0.138 C 
BRANCH  11  12
HETATM   12  C12 UNL     1     -20.617   5.006  22.670  1.00  0.00     0.086 C 
BRANCH  12  13
HETATM   13  C13 UNL     1     -20.367   6.055  21.626  1.00  0.00     0.207 C 
HETATM   14  F1  UNL     1     -21.512   6.464  20.997  1.00  0.00    -0.220 F 
HETATM   15 CL1  UNL     1     -19.758   7.495  22.521  1.00  0.00    -0.077 Cl
BRANCH  13  16
HETATM   16  C14 UNL     1     -19.359   5.722  20.628  1.00  0.00    -0.000 A 
HETATM   17  C15 UNL     1     -19.785   5.310  19.382  1.00  0.00     0.035 A 
HETATM   18  C16 UNL     1     -18.917   4.977  18.379  1.00  0.00     0.036 A 
HETATM   19 CL2  UNL     1     -19.542   4.459  16.810  1.00  0.00    -0.084 Cl
HETATM   20  C17 UNL     1     -17.557   5.041  18.576  1.00  0.00     0.047 A 
HETATM   21  C18 UNL     1     -17.118   5.455  19.827  1.00  0.00     0.036 A 
HETATM   22 CL3  UNL     1     -15.380   5.529  20.056  1.00  0.00    -0.084 Cl
HETATM   23  C19 UNL     1     -17.990   5.791  20.841  1.00  0.00     0.035 A 
ENDBRANCH  13  16
ENDBRANCH  12  13
ENDBRANCH  11  12
ENDBRANCH   8  11
BRANCH   7  24
HETATM   24  O1  UNL     1     -22.022   1.947  24.030  1.00  0.00    -0.345 OA
ATOM     25  H1  UNL     1     -21.169   1.855  24.438  1.00  0.00     0.219 HD
ENDBRANCH   7  24
BRANCH   9  26
HETATM   26  O2  UNL     1     -22.486   3.848  19.613  1.00  0.00    -0.345 OA
ATOM     27  H2  UNL     1     -21.805   4.467  19.380  1.00  0.00     0.219 HD
ENDBRANCH   9  26
BRANCH   1  28
HETATM   28  N1  UNL     1     -20.857  -1.264  20.274  1.00  0.00    -0.409 N 
ATOM     29  H1  UNL     1     -20.233  -0.478  20.450  1.00  0.00     0.154 HD
BRANCH  28  30
HETATM   30  C2  UNL     1     -20.390  -2.339  19.509  1.00  0.00     0.069 C 
HETATM   31  C1  UNL     1     -18.959  -2.770  19.684  1.00  0.00     0.031 C 
HETATM   32  C3  UNL     1     -20.543  -1.979  18.016  1.00  0.00     0.031 C 
ENDBRANCH  28  30
ENDBRANCH   1  28
TORSDOF 8
ENDMDL
MODEL 4
REMARK VINA RESULT: -7.820443457      1.184      2.576
REMARK  8 active torsions:
REMARK  status: ('A' for Active; 'I' for Inactive)
REMARK    1  A    between atoms: C2_2  and  N1_4 
REMARK    2  A    between atoms: N1_4  and  C4_6 
REMARK    3  A    between atoms: C10_12  and  O1_13 
REMARK    4  A    between atoms: N2_15  and  C11_16 
REMARK    5  A    between atoms: C11_16  and  C12_17 
REMARK    6  A    between atoms: C12_17  and  C13_18 
REMARK    7  A    between atoms: C13_18  and  C14_21 
REMARK    8  A    between atoms: C20_29  and  O2_30 
ROOT
HETATM    1  C4  UNL     1     -22.124  -1.368  20.801  1.00  0.00     0.026 C 
HETATM    2  C5  UNL     1     -22.669  -2.792  21.025  1.00  0.00     0.038 C 
HETATM    3  C6  UNL     1     -23.051  -0.830  19.682  1.00  0.00     0.035 C 
HETATM    4  C7  UNL     1     -22.673   0.563  19.309  1.00  0.00     0.046 C 
HETATM    5  C8  UNL     1     -22.485   1.425  20.501  1.00  0.00     0.004 A 
HETATM    6  C9  UNL     1     -22.351   0.924  21.769  1.00  0.00     0.006 A 
HETATM    7  C10 UNL     1     -22.194   1.991  22.647  1.00  0.00     0.151 A 
HETATM    8  N2  UNL     1     -22.228   3.130  21.940  1.00  0.00    -0.307 N 
HETATM    9  C20 UNL     1     -22.406   2.808  20.638  1.00  0.00     0.151 A 
HETATM   10  C21 UNL     1     -22.392  -0.566  22.010  1.00  0.00     0.073 C 
ENDROOT
BRANCH   8  11
HETATM   11  C11 UNL     1     -22.099   4.470  22.503  1.00  0.00     0.138 C 
BRANCH  11  12
HETATM   12  C12 UNL     1     -20.648   4.908  22.600  1.00  0.00     0.086 C 
BRANCH  12  13
HETATM   13  C13 UNL     1     -20.454   5.971  21.558  1.00  0.00     0.207 C 
HETATM   14  F1  UNL     1     -21.633   6.399  21.009  1.00  0.00    -0.220 F 
HETATM   15 CL1  UNL     1     -19.779   7.392  22.435  1.00  0.00    -0.077 Cl
BRANCH  13  16
HETATM   16  C14 UNL     1     -19.514   5.646  20.494  1.00  0.00    -0.000 A 
HETATM   17  C15 UNL     1     -18.165   5.706  20.774  1.00  0.00     0.035 A 
HETATM   18  C16 UNL     1     -17.205   5.418  19.842  1.00  0.00     0.036 A 
HETATM   19 CL2  UNL     1     -15.496   5.518  20.280  1.00  0.00    -0.084 Cl
HETATM   20  C17 UNL     1     -17.555   5.050  18.563  1.00  0.00     0.047 A 
HETATM   21  C18 UNL     1     -18.911   4.986  18.272  1.00  0.00     0.036 A 
HETATM   22 CL3  UNL     1     -19.333   4.515  16.636  1.00  0.00    -0.084 Cl
HETATM   23  C19 UNL     1     -19.881   5.276  19.208  1.00  0.00     0.035 A 
ENDBRANCH  13  16
ENDBRANCH  12  13
ENDBRANCH  11  12
ENDBRANCH   8  11
BRANCH   7  24
HETATM   24  O1  UNL     1     -22.031   1.823  24.013  1.00  0.00    -0.345 OA
ATOM     25  H1  UNL     1     -21.737   1.007  24.401  1.00  0.00     0.219 HD
ENDBRANCH   7  24
BRANCH   9  26
HETATM   26  O2  UNL     1     -22.496   3.703  19.587  1.00  0.00    -0.345 OA
ATOM     27  H2  UNL     1     -23.278   3.841  19.066  1.00  0.00     0.219 HD
ENDBRANCH   9  26
BRANCH   1  28
HETATM   28  N1  UNL     1     -20.828  -1.394  20.274  1.00  0.00    -0.409 N 
ATOM     29  H1  UNL     1     -20.200  -0.614  20.473  1.00  0.00     0.154 HD
BRANCH  28  30
HETATM   30  C2  UNL     1     -20.361  -2.449  19.484  1.00  0.00     0.069 C 
HETATM   31  C1  UNL     1     -18.933  -2.893  19.654  1.00  0.00     0.031 C 
HETATM   32  C3  UNL     1     -20.505  -2.049  17.999  1.00  0.00     0.031 C 
ENDBRANCH  28  30
ENDBRANCH   1  28
TORSDOF 8
ENDMDL
MODEL 5
REMARK VINA RESULT: -7.623037697      0.906      1.909
REMARK  8 active torsions:
REMARK  status: ('A' for Active; 'I' for Inactive)
REMARK    1  A    between atoms: C2_2  and  N1_4 
REMARK    2  A    between atoms: N1_4  and  C4_6 
REMARK    3  A    between atoms: C10_12  and  O1_13 
REMARK    4  A    between atoms: N2_15  and  C11_16 
REMARK    5  A    between atoms: C11_16  and  C12_17 
REMARK    6  A    between atoms: C12_17  and  C13_18 
REMARK    7  A    between atoms: C13_18  and  C14_21 
REMARK    8  A    between atoms: C20_29  and  O2_30 
ROOT
HETATM    1  C4  UNL     1     -22.422  -0.832  20.077  1.00  0.00     0.026 C 
HETATM    2  C5  UNL     1     -21.802  -1.722  18.983  1.00  0.00     0.038 C 
HETATM    3  C6  UNL     1     -21.529  -1.147  21.305  1.00  0.00     0.035 C 
HETATM    4  C7  UNL     1     -21.979  -0.373  22.497  1.00  0.00     0.046 C 
HETATM    5  C8  UNL     1     -22.206   1.058  22.176  1.00  0.00     0.004 A 
HETATM    6  C9  UNL     1     -22.308   1.526  20.894  1.00  0.00     0.006 A 
HETATM    7  C10 UNL     1     -22.516   2.901  20.945  1.00  0.00     0.151 A 
HETATM    8  N2  UNL     1     -22.544   3.277  22.232  1.00  0.00    -0.307 N 
HETATM    9  C20 UNL     1     -22.356   2.175  22.994  1.00  0.00     0.151 A 
HETATM   10  C21 UNL     1     -22.189   0.581  19.723  1.00  0.00     0.073 C 
ENDROOT
BRANCH   8  11
HETATM   11  C11 UNL     1     -22.739   4.644  22.701  1.00  0.00     0.138 C 
BRANCH  11  12
HETATM   12  C12 UNL     1     -22.611   5.656  21.576  1.00  0.00     0.086 C 
BRANCH  12  13
HETATM   13  C13 UNL     1     -21.599   6.668  22.027  1.00  0.00     0.207 C 
HETATM   14  F1  UNL     1     -21.776   7.895  21.445  1.00  0.00    -0.220 F 
HETATM   15 CL1  UNL     1     -21.908   6.912  23.786  1.00  0.00    -0.077 Cl
BRANCH  13  16
HETATM   16  C14 UNL     1     -20.205   6.267  21.895  1.00  0.00    -0.000 A 
HETATM   17  C15 UNL     1     -19.753   5.877  20.652  1.00  0.00     0.035 A 
HETATM   18  C16 UNL     1     -18.461   5.486  20.427  1.00  0.00     0.036 A 
HETATM   19 CL2  UNL     1     -17.959   5.001  18.804  1.00  0.00    -0.084 Cl
HETATM   20  C17 UNL     1     -17.544   5.463  21.452  1.00  0.00     0.047 A 
HETATM   21  C18 UNL     1     -17.990   5.854  22.708  1.00  0.00     0.036 A 
HETATM   22 CL3  UNL     1     -16.804   5.818  24.000  1.00  0.00    -0.084 Cl
HETATM   23  C19 UNL     1     -19.291   6.250  22.939  1.00  0.00     0.035 A 
ENDBRANCH  13  16
ENDBRANCH  12  13
ENDBRANCH  11  12
ENDBRANCH   8  11
BRANCH   7  24
HETATM   24  O1  UNL     1     -22.664   3.682  19.810  1.00  0.00    -0.345 OA
ATOM     25  H1  UNL     1     -23.320   4.365  19.737  1.00  0.00     0.219 HD
ENDBRANCH   7  24
BRANCH   9  26
HETATM   26  O2  UNL     1     -22.317   2.141  24.376  1.00  0.00    -0.345 OA
ATOM     27  H2  UNL     1     -23.086   2.139  24.934  1.00  0.00     0.219 HD
ENDBRANCH   9  26
BRANCH   1  28
HETATM   28  N1  UNL     1     -23.717  -1.248  20.404  1.00  0.00    -0.409 N 
ATOM     29  H1  UNL     1     -24.490  -0.593  20.283  1.00  0.00     0.154 HD
BRANCH  28  30
HETATM   30  C2  UNL     1     -23.991  -2.531  20.890  1.00  0.00     0.069 C 
HETATM   31  C1  UNL     1     -24.118  -3.658  19.901  1.00  0.00     0.031 C 
HETATM   32  C3  UNL     1     -25.331  -2.488  21.656  1.00  0.00     0.031 C 
ENDBRANCH  28  30
ENDBRANCH   1  28
TORSDOF 8
ENDMDL
