MODEL 1
REMARK VINA RESULT: -8.768341249      0.000      0.000
REMARK  7 active torsions:
REMARK  status: ('A' for Active; 'I' for Inactive)
REMARK    1  A    between atoms: C5_8  and  C6_9 
REMARK    2  A    between atoms: C9_13  and  O1_14 
REMARK    3  A    between atoms: O1_14  and  C10_15 
REMARK    4  A    between atoms: C10_15  and  C11_16 
REMARK    5  A    between atoms: C14_19  and  C15_20 
REMARK    6  A    between atoms: C18_26  and  C19_27 
REMARK    7  A    between atoms: C21_31  and  N4_32 
ROOT
HETATM    1  N1  UNL     1     -16.423   6.552  17.467  1.00  0.00    -0.191 NA
HETATM    2  C1  UNL     1     -17.282   5.805  17.161  1.00  0.00     0.102 C 
HETATM    3  C2  UNL     1     -18.320   4.905  16.759  1.00  0.00     0.072 A 
HETATM    4  C3  UNL     1     -18.498   4.268  15.550  1.00  0.00     0.112 A 
HETATM    5  N2  UNL     1     -19.604   3.534  15.676  1.00  0.00    -0.363 N 
ATOM      6  H2  UNL     1     -19.988   2.948  14.934  1.00  0.00     0.165 HD
HETATM    7  C4  UNL     1     -20.148   3.657  16.882  1.00  0.00     0.053 A 
HETATM    8  C5  UNL     1     -21.264   3.108  17.484  1.00  0.00     0.011 A 
HETATM    9  C9  UNL     1     -21.569   3.427  18.803  1.00  0.00     0.089 A 
HETATM   10  C18 UNL     1     -20.837   4.281  19.541  1.00  0.00     0.012 A 
HETATM   11  C23 UNL     1     -19.686   4.839  18.897  1.00  0.00     0.030 A 
HETATM   12  C24 UNL     1     -19.363   4.521  17.604  1.00  0.00     0.014 A 
ENDROOT
BRANCH   8  13
HETATM   13  C6  UNL     1     -22.112   2.202  16.664  1.00  0.00     0.060 A 
HETATM   14  C7  UNL     1     -22.263   2.540  15.169  1.00  0.00     0.050 A 
HETATM   15  C8  UNL     1     -23.368   2.974  16.083  1.00  0.00     0.179 A 
HETATM   16  F1  UNL     1     -24.539   2.274  16.011  1.00  0.00    -0.249 F 
ENDBRANCH   8  13
BRANCH  10  17
HETATM   17  C19 UNL     1     -21.193   4.805  20.831  1.00  0.00     0.009 A 
HETATM   18  C20 UNL     1     -20.236   4.493  21.853  1.00  0.00     0.120 A 
HETATM   19  N3  UNL     1     -20.391   4.901  23.110  1.00  0.00    -0.201 N 
HETATM   20  C21 UNL     1     -21.460   5.627  23.469  1.00  0.00     0.675 A 
ATOM     21  H3  UNL     1     -19.689   4.659  23.809  1.00  0.00     0.183 HD
HETATM   22  N5  UNL     1     -22.370   5.935  22.547  1.00  0.00    -0.201 N 
HETATM   23  C22 UNL     1     -22.227   5.530  21.275  1.00  0.00     0.120 A 
ATOM     24  H5  UNL     1     -23.187   6.486  22.811  1.00  0.00     0.183 HD
BRANCH  20  25
HETATM   25  N4  UNL     1     -21.597   6.029  24.715  1.00  0.00    -0.234 N 
ATOM     26  H42 UNL     1     -21.269   5.452  25.490  1.00  0.00     0.174 HD
ATOM     27  H41 UNL     1     -22.040   6.925  24.918  1.00  0.00     0.174 HD
ENDBRANCH  20  25
ENDBRANCH  10  17
BRANCH   9  28
HETATM   28  O1  UNL     1     -22.701   2.763  19.361  1.00  0.00    -0.349 OA
BRANCH  28  29
HETATM   29  C10 UNL     1     -22.218   1.712  20.199  1.00  0.00     0.180 C 
BRANCH  29  30
HETATM   30  C11 UNL     1     -22.774   0.353  20.109  1.00  0.00     0.010 C 
HETATM   31  C12 UNL     1     -21.801  -0.391  19.163  1.00  0.00     0.007 C 
HETATM   32  C13 UNL     1     -22.021  -1.813  18.997  1.00  0.00     0.014 C 
HETATM   33  C14 UNL     1     -22.532  -2.589  20.177  1.00  0.00     0.093 C 
HETATM   34  C16 UNL     1     -23.382  -1.776  21.090  1.00  0.00     0.014 C 
HETATM   35  C17 UNL     1     -22.722  -0.405  21.395  1.00  0.00     0.007 C 
BRANCH  33  36
HETATM   36  C15 UNL     1     -23.393  -3.696  19.566  1.00  0.00     0.391 C 
HETATM   37  F2  UNL     1     -23.227  -3.721  18.186  1.00  0.00    -0.171 F 
HETATM   38  F3  UNL     1     -22.971  -4.908  20.064  1.00  0.00    -0.171 F 
HETATM   39  F4  UNL     1     -24.709  -3.514  19.922  1.00  0.00    -0.171 F 
ENDBRANCH  33  36
ENDBRANCH  29  30
ENDBRANCH  28  29
ENDBRANCH   9  28
TORSDOF 7
ENDMDL
MODEL 2
REMARK VINA RESULT: -8.609011029      4.117      8.194
REMARK  7 active torsions:
REMARK  status: ('A' for Active; 'I' for Inactive)
REMARK    1  A    between atoms: C5_8  and  C6_9 
REMARK    2  A    between atoms: C9_13  and  O1_14 
REMARK    3  A    between atoms: O1_14  and  C10_15 
REMARK    4  A    between atoms: C10_15  and  C11_16 
REMARK    5  A    between atoms: C14_19  and  C15_20 
REMARK    6  A    between atoms: C18_26  and  C19_27 
REMARK    7  A    between atoms: C21_31  and  N4_32 
ROOT
HETATM    1  N1  UNL     1     -22.922  -3.056  19.637  1.00  0.00    -0.191 NA
HETATM    2  C1  UNL     1     -22.732  -1.995  20.114  1.00  0.00     0.102 C 
HETATM    3  C2  UNL     1     -22.513  -0.716  20.720  1.00  0.00     0.072 A 
HETATM    4  C3  UNL     1     -22.363  -0.400  22.053  1.00  0.00     0.112 A 
HETATM    5  N2  UNL     1     -22.176   0.919  22.104  1.00  0.00    -0.363 N 
ATOM      6  H2  UNL     1     -22.035   1.443  22.968  1.00  0.00     0.165 HD
HETATM    7  C4  UNL     1     -22.196   1.470  20.896  1.00  0.00     0.053 A 
HETATM    8  C5  UNL     1     -22.046   2.766  20.436  1.00  0.00     0.011 A 
HETATM    9  C9  UNL     1     -22.101   3.030  19.073  1.00  0.00     0.089 A 
HETATM   10  C18 UNL     1     -22.323   2.079  18.148  1.00  0.00     0.012 A 
HETATM   11  C23 UNL     1     -22.477   0.744  18.645  1.00  0.00     0.030 A 
HETATM   12  C24 UNL     1     -22.408   0.466  19.984  1.00  0.00     0.014 A 
ENDROOT
BRANCH   8  13
HETATM   13  C6  UNL     1     -21.850   3.836  21.452  1.00  0.00     0.060 A 
HETATM   14  C7  UNL     1     -22.881   3.921  22.593  1.00  0.00     0.050 A 
HETATM   15  C8  UNL     1     -23.062   4.857  21.437  1.00  0.00     0.179 A 
HETATM   16  F1  UNL     1     -22.759   6.171  21.654  1.00  0.00    -0.249 F 
ENDBRANCH   8  13
BRANCH  10  17
HETATM   17  C19 UNL     1     -22.585   2.299  16.752  1.00  0.00     0.009 A 
HETATM   18  C20 UNL     1     -21.502   1.895  15.902  1.00  0.00     0.120 A 
HETATM   19  N3  UNL     1     -21.566   2.015  14.577  1.00  0.00    -0.201 N 
HETATM   20  C21 UNL     1     -22.656   2.524  13.985  1.00  0.00     0.675 A 
ATOM     21  H3  UNL     1     -20.775   1.717  14.006  1.00  0.00     0.183 HD
HETATM   22  N5  UNL     1     -23.680   2.911  14.744  1.00  0.00    -0.201 N 
HETATM   23  C22 UNL     1     -23.631   2.795  16.080  1.00  0.00     0.120 A 
ATOM     24  H5  UNL     1     -24.514   3.300  14.303  1.00  0.00     0.183 HD
BRANCH  20  25
HETATM   25  N4  UNL     1     -22.706   2.631  12.675  1.00  0.00    -0.234 N 
ATOM     26  H42 UNL     1     -22.611   1.810  12.078  1.00  0.00     0.174 HD
ATOM     27  H41 UNL     1     -22.840   3.545  12.242  1.00  0.00     0.174 HD
ENDBRANCH  20  25
ENDBRANCH  10  17
BRANCH   9  28
HETATM   28  O1  UNL     1     -21.870   4.384  18.689  1.00  0.00    -0.349 OA
BRANCH  28  29
HETATM   29  C10 UNL     1     -20.671   4.416  17.914  1.00  0.00     0.180 C 
BRANCH  29  30
HETATM   30  C11 UNL     1     -19.355   4.555  18.557  1.00  0.00     0.010 C 
HETATM   31  C12 UNL     1     -18.413   4.979  17.405  1.00  0.00     0.007 C 
HETATM   32  C13 UNL     1     -17.057   5.330  17.773  1.00  0.00     0.014 C 
HETATM   33  C14 UNL     1     -16.840   6.003  19.098  1.00  0.00     0.093 C 
HETATM   34  C16 UNL     1     -17.845   5.615  20.126  1.00  0.00     0.014 C 
HETATM   35  C17 UNL     1     -19.284   5.669  19.548  1.00  0.00     0.007 C 
BRANCH  33  36
HETATM   36  C15 UNL     1     -15.462   5.518  19.555  1.00  0.00     0.391 C 
HETATM   37  F2  UNL     1     -14.965   4.582  18.654  1.00  0.00    -0.171 F 
HETATM   38  F3  UNL     1     -14.599   6.590  19.569  1.00  0.00    -0.171 F 
HETATM   39  F4  UNL     1     -15.547   5.009  20.830  1.00  0.00    -0.171 F 
ENDBRANCH  33  36
ENDBRANCH  29  30
ENDBRANCH  28  29
ENDBRANCH   9  28
TORSDOF 7
ENDMDL
MODEL 3
REMARK VINA RESULT: -8.572573310      2.567      5.122
REMARK  7 active torsions:
REMARK  status: ('A' for Active; 'I' for Inactive)
REMARK    1  A    between atoms: C5_8  and  C6_9 
REMARK    2  A    between atoms: C9_13  and  O1_14 
REMARK    3  A    between atoms: O1_14  and  C10_15 
REMARK    4  A    between atoms: C10_15  and  C11_16 
REMARK    5  A    between atoms: C14_19  and  C15_20 
REMARK    6  A    between atoms: C18_26  and  C19_27 
REMARK    7  A    between atoms: C21_31  and  N4_32 
ROOT
HETATM    1  N1  UNL     1     -16.832   6.728  19.063  1.00  0.00    -0.191 NA
HETATM    2  C1  UNL     1     -17.511   6.320  19.935  1.00  0.00     0.102 C 
HETATM    3  C2  UNL     1     -18.313   5.825  21.012  1.00  0.00     0.072 A 
HETATM    4  C3  UNL     1     -18.121   5.957  22.371  1.00  0.00     0.112 A 
HETATM    5  N2  UNL     1     -19.142   5.328  22.954  1.00  0.00    -0.363 N 
ATOM      6  H2  UNL     1     -19.268   5.259  23.964  1.00  0.00     0.165 HD
HETATM    7  C4  UNL     1     -19.975   4.802  22.063  1.00  0.00     0.053 A 
HETATM    8  C5  UNL     1     -21.150   4.081  22.167  1.00  0.00     0.011 A 
HETATM    9  C9  UNL     1     -21.819   3.674  21.019  1.00  0.00     0.089 A 
HETATM   10  C18 UNL     1     -21.366   3.923  19.776  1.00  0.00     0.012 A 
HETATM   11  C23 UNL     1     -20.147   4.670  19.691  1.00  0.00     0.030 A 
HETATM   12  C24 UNL     1     -19.486   5.094  20.814  1.00  0.00     0.014 A 
ENDROOT
BRANCH   8  13
HETATM   13  C6  UNL     1     -21.636   3.753  23.535  1.00  0.00     0.060 A 
HETATM   14  C7  UNL     1     -23.150   3.866  23.790  1.00  0.00     0.050 A 
HETATM   15  C8  UNL     1     -22.296   5.021  24.219  1.00  0.00     0.179 A 
HETATM   16  F1  UNL     1     -22.090   5.171  25.561  1.00  0.00    -0.249 F 
ENDBRANCH   8  13
BRANCH  10  17
HETATM   17  C19 UNL     1     -21.892   3.374  18.557  1.00  0.00     0.009 A 
HETATM   18  C20 UNL     1     -22.627   4.327  17.777  1.00  0.00     0.120 A 
HETATM   19  N3  UNL     1     -23.182   4.004  16.611  1.00  0.00    -0.201 N 
HETATM   20  C21 UNL     1     -23.071   2.761  16.119  1.00  0.00     0.675 A 
ATOM     21  H3  UNL     1     -23.698   4.709  16.085  1.00  0.00     0.183 HD
HETATM   22  N5  UNL     1     -22.396   1.849  16.817  1.00  0.00    -0.201 N 
HETATM   23  C22 UNL     1     -21.831   2.161  17.994  1.00  0.00     0.120 A 
ATOM     24  H5  UNL     1     -22.307   0.901  16.451  1.00  0.00     0.183 HD
BRANCH  20  25
HETATM   25  N4  UNL     1     -23.620   2.457  14.962  1.00  0.00    -0.234 N 
ATOM     26  H42 UNL     1     -24.633   2.414  14.859  1.00  0.00     0.174 HD
ATOM     27  H41 UNL     1     -23.031   2.258  14.153  1.00  0.00     0.174 HD
ENDBRANCH  20  25
ENDBRANCH  10  17
BRANCH   9  28
HETATM   28  O1  UNL     1     -23.055   2.993  21.223  1.00  0.00    -0.349 OA
BRANCH  28  29
HETATM   29  C10 UNL     1     -22.763   1.745  21.855  1.00  0.00     0.180 C 
BRANCH  29  30
HETATM   30  C11 UNL     1     -22.630   0.508  21.069  1.00  0.00     0.010 C 
HETATM   31  C12 UNL     1     -21.670  -0.370  21.905  1.00  0.00     0.007 C 
HETATM   32  C13 UNL     1     -21.461  -1.725  21.440  1.00  0.00     0.014 C 
HETATM   33  C14 UNL     1     -22.616  -2.431  20.786  1.00  0.00     0.093 C 
HETATM   34  C16 UNL     1     -23.547  -1.505  20.083  1.00  0.00     0.014 C 
HETATM   35  C17 UNL     1     -23.894  -0.281  20.971  1.00  0.00     0.007 C 
BRANCH  33  36
HETATM   36  C15 UNL     1     -21.967  -3.351  19.750  1.00  0.00     0.391 C 
HETATM   37  F2  UNL     1     -22.244  -4.679  20.054  1.00  0.00    -0.171 F 
HETATM   38  F3  UNL     1     -22.512  -3.079  18.515  1.00  0.00    -0.171 F 
HETATM   39  F4  UNL     1     -20.614  -3.108  19.692  1.00  0.00    -0.171 F 
ENDBRANCH  33  36
ENDBRANCH  29  30
ENDBRANCH  28  29
ENDBRANCH   9  28
TORSDOF 7
ENDMDL
MODEL 4
REMARK VINA RESULT: -8.485305707      2.257      4.958
REMARK  7 active torsions:
REMARK  status: ('A' for Active; 'I' for Inactive)
REMARK    1  A    between atoms: C5_8  and  C6_9 
REMARK    2  A    between atoms: C9_13  and  O1_14 
REMARK    3  A    between atoms: O1_14  and  C10_15 
REMARK    4  A    between atoms: C10_15  and  C11_16 
REMARK    5  A    between atoms: C14_19  and  C15_20 
REMARK    6  A    between atoms: C18_26  and  C19_27 
REMARK    7  A    between atoms: C21_31  and  N4_32 
ROOT
HETATM    1  N1  UNL     1     -17.222   7.868  19.549  1.00  0.00    -0.191 NA
HETATM    2  C1  UNL     1     -17.856   7.155  20.240  1.00  0.00     0.102 C 
HETATM    3  C2  UNL     1     -18.605   6.291  21.101  1.00  0.00     0.072 A 
HETATM    4  C3  UNL     1     -18.519   6.138  22.468  1.00  0.00     0.112 A 
HETATM    5  N2  UNL     1     -19.428   5.220  22.797  1.00  0.00    -0.363 N 
ATOM      6  H2  UNL     1     -19.596   4.899  23.751  1.00  0.00     0.165 HD
HETATM    7  C4  UNL     1     -20.091   4.774  21.736  1.00  0.00     0.053 A 
HETATM    8  C5  UNL     1     -21.107   3.851  21.565  1.00  0.00     0.011 A 
HETATM    9  C9  UNL     1     -21.617   3.608  20.295  1.00  0.00     0.089 A 
HETATM   10  C18 UNL     1     -21.153   4.214  19.187  1.00  0.00     0.012 A 
HETATM   11  C23 UNL     1     -20.101   5.165  19.387  1.00  0.00     0.030 A 
HETATM   12  C24 UNL     1     -19.599   5.429  20.634  1.00  0.00     0.014 A 
ENDROOT
BRANCH   8  13
HETATM   13  C6  UNL     1     -21.595   3.136  22.774  1.00  0.00     0.060 A 
HETATM   14  C7  UNL     1     -23.118   2.965  22.925  1.00  0.00     0.050 A 
HETATM   15  C8  UNL     1     -22.479   4.092  23.678  1.00  0.00     0.179 A 
HETATM   16  F1  UNL     1     -22.360   3.941  25.030  1.00  0.00    -0.249 F 
ENDBRANCH   8  13
BRANCH  10  17
HETATM   17  C19 UNL     1     -21.492   3.877  17.832  1.00  0.00     0.009 A 
HETATM   18  C20 UNL     1     -20.444   3.180  17.143  1.00  0.00     0.120 A 
HETATM   19  N3  UNL     1     -20.578   2.778  15.881  1.00  0.00    -0.201 N 
HETATM   20  C21 UNL     1     -21.711   3.014  15.202  1.00  0.00     0.675 A 
ATOM     21  H3  UNL     1     -19.811   2.286  15.425  1.00  0.00     0.183 HD
HETATM   22  N5  UNL     1     -22.704   3.660  15.810  1.00  0.00    -0.201 N 
HETATM   23  C22 UNL     1     -22.584   4.070  17.082  1.00  0.00     0.120 A 
ATOM     24  H5  UNL     1     -23.569   3.845  15.301  1.00  0.00     0.183 HD
BRANCH  20  25
HETATM   25  N4  UNL     1     -21.831   2.606  13.957  1.00  0.00    -0.234 N 
ATOM     26  H42 UNL     1     -21.360   1.761  13.635  1.00  0.00     0.174 HD
ATOM     27  H41 UNL     1     -22.398   3.138  13.297  1.00  0.00     0.174 HD
ENDBRANCH  20  25
ENDBRANCH  10  17
BRANCH   9  28
HETATM   28  O1  UNL     1     -22.706   2.690  20.224  1.00  0.00    -0.349 OA
BRANCH  28  29
HETATM   29  C10 UNL     1     -22.216   1.481  19.640  1.00  0.00     0.180 C 
BRANCH  29  30
HETATM   30  C11 UNL     1     -22.932   0.209  19.816  1.00  0.00     0.010 C 
HETATM   31  C12 UNL     1     -21.986  -0.847  19.195  1.00  0.00     0.007 C 
HETATM   32  C13 UNL     1     -22.372  -2.234  19.351  1.00  0.00     0.014 C 
HETATM   33  C14 UNL     1     -23.078  -2.630  20.617  1.00  0.00     0.093 C 
HETATM   34  C16 UNL     1     -23.891  -1.529  21.204  1.00  0.00     0.014 C 
HETATM   35  C17 UNL     1     -23.088  -0.201  21.244  1.00  0.00     0.007 C 
BRANCH  33  36
HETATM   36  C15 UNL     1     -24.019  -3.760  20.195  1.00  0.00     0.391 C 
HETATM   37  F2  UNL     1     -25.169  -3.738  20.976  1.00  0.00    -0.171 F 
HETATM   38  F3  UNL     1     -24.393  -3.558  18.886  1.00  0.00    -0.171 F 
HETATM   39  F4  UNL     1     -23.364  -4.967  20.279  1.00  0.00    -0.171 F 
ENDBRANCH  33  36
ENDBRANCH  29  30
ENDBRANCH  28  29
ENDBRANCH   9  28
TORSDOF 7
ENDMDL
MODEL 5
REMARK VINA RESULT: -8.380748170      4.401      8.303
REMARK  7 active torsions:
REMARK  status: ('A' for Active; 'I' for Inactive)
REMARK    1  A    between atoms: C5_8  and  C6_9 
REMARK    2  A    between atoms: C9_13  and  O1_14 
REMARK    3  A    between atoms: O1_14  and  C10_15 
REMARK    4  A    between atoms: C10_15  and  C11_16 
REMARK    5  A    between atoms: C14_19  and  C15_20 
REMARK    6  A    between atoms: C18_26  and  C19_27 
REMARK    7  A    between atoms: C21_31  and  N4_32 
ROOT
HETATM    1  N1  UNL     1     -22.932  -3.006  19.117  1.00  0.00    -0.191 NA
HETATM    2  C1  UNL     1     -22.775  -1.975  19.665  1.00  0.00     0.102 C 
HETATM    3  C2  UNL     1     -22.598  -0.733  20.356  1.00  0.00     0.072 A 
HETATM    4  C3  UNL     1     -22.593  -0.486  21.712  1.00  0.00     0.112 A 
HETATM    5  N2  UNL     1     -22.385   0.824  21.850  1.00  0.00    -0.363 N 
ATOM      6  H2  UNL     1     -22.330   1.301  22.749  1.00  0.00     0.165 HD
HETATM    7  C4  UNL     1     -22.257   1.433  20.676  1.00  0.00     0.053 A 
HETATM    8  C5  UNL     1     -22.029   2.745  20.303  1.00  0.00     0.011 A 
HETATM    9  C9  UNL     1     -21.925   3.076  18.957  1.00  0.00     0.089 A 
HETATM   10  C18 UNL     1     -22.062   2.176  17.966  1.00  0.00     0.012 A 
HETATM   11  C23 UNL     1     -22.299   0.824  18.374  1.00  0.00     0.030 A 
HETATM   12  C24 UNL     1     -22.386   0.479  19.697  1.00  0.00     0.014 A 
ENDROOT
BRANCH   8  13
HETATM   13  C6  UNL     1     -21.926   3.759  21.387  1.00  0.00     0.060 A 
HETATM   14  C7  UNL     1     -23.061   3.797  22.426  1.00  0.00     0.050 A 
HETATM   15  C8  UNL     1     -23.124   4.793  21.309  1.00  0.00     0.179 A 
HETATM   16  F1  UNL     1     -22.836   6.091  21.622  1.00  0.00    -0.249 F 
ENDBRANCH   8  13
BRANCH  10  17
HETATM   17  C19 UNL     1     -22.160   2.470  16.562  1.00  0.00     0.009 A 
HETATM   18  C20 UNL     1     -23.513   2.615  16.108  1.00  0.00     0.120 A 
HETATM   19  N3  UNL     1     -23.803   2.897  14.839  1.00  0.00    -0.201 N 
HETATM   20  C21 UNL     1     -22.828   3.057  13.932  1.00  0.00     0.675 A 
ATOM     21  H3  UNL     1     -24.777   2.991  14.554  1.00  0.00     0.183 HD
HETATM   22  N5  UNL     1     -21.560   2.929  14.318  1.00  0.00    -0.201 N 
HETATM   23  C22 UNL     1     -21.253   2.646  15.594  1.00  0.00     0.120 A 
ATOM     24  H5  UNL     1     -20.812   3.048  13.635  1.00  0.00     0.183 HD
BRANCH  20  25
HETATM   25  N4  UNL     1     -23.129   3.341  12.683  1.00  0.00    -0.234 N 
ATOM     26  H42 UNL     1     -22.730   2.804  11.914  1.00  0.00     0.174 HD
ATOM     27  H41 UNL     1     -23.767   4.108  12.472  1.00  0.00     0.174 HD
ENDBRANCH  20  25
ENDBRANCH  10  17
BRANCH   9  28
HETATM   28  O1  UNL     1     -21.624   4.439  18.670  1.00  0.00    -0.349 OA
BRANCH  28  29
HETATM   29  C10 UNL     1     -20.202   4.573  18.640  1.00  0.00     0.180 C 
BRANCH  29  30
HETATM   30  C11 UNL     1     -19.456   5.018  19.827  1.00  0.00     0.010 C 
HETATM   31  C12 UNL     1     -17.989   5.099  19.343  1.00  0.00     0.007 C 
HETATM   32  C13 UNL     1     -17.030   5.654  20.276  1.00  0.00     0.014 C 
HETATM   33  C14 UNL     1     -17.494   6.749  21.195  1.00  0.00     0.093 C 
HETATM   34  C16 UNL     1     -18.940   6.654  21.536  1.00  0.00     0.014 C 
HETATM   35  C17 UNL     1     -19.798   6.403  20.268  1.00  0.00     0.007 C 
BRANCH  33  36
HETATM   36  C15 UNL     1     -16.676   6.550  22.473  1.00  0.00     0.391 C 
HETATM   37  F2  UNL     1     -15.838   7.640  22.676  1.00  0.00    -0.171 F 
HETATM   38  F3  UNL     1     -17.540   6.476  23.542  1.00  0.00    -0.171 F 
HETATM   39  F4  UNL     1     -15.975   5.368  22.399  1.00  0.00    -0.171 F 
ENDBRANCH  33  36
ENDBRANCH  29  30
ENDBRANCH  28  29
ENDBRANCH   9  28
TORSDOF 7
ENDMDL
