MODEL 1
REMARK VINA RESULT: -8.322952564      0.000      0.000
REMARK  6 active torsions:
REMARK  status: ('A' for Active; 'I' for Inactive)
REMARK    1  A    between atoms: O1_2  and  C2_3 
REMARK    2  A    between atoms: C3_4  and  C4_5 
REMARK    3  A    between atoms: C11_18  and  C12_19 
REMARK    4  A    between atoms: C12_19  and  N3_21 
REMARK    5  A    between atoms: N3_21  and  C14_22 
REMARK    6  A    between atoms: C18_30  and  C19_31 
ROOT
HETATM    1  C2  UNL     1     -22.138   4.778  19.245  1.00  0.00     0.087 A 
HETATM    2  C3  UNL     1     -22.091   3.557  18.672  1.00  0.00     0.011 A 
HETATM    3  C10 UNL     1     -22.326   2.438  19.456  1.00  0.00     0.031 A 
HETATM    4  C11 UNL     1     -22.614   2.501  20.845  1.00  0.00     0.023 A 
HETATM    5  C20 UNL     1     -22.637   3.748  21.352  1.00  0.00     0.056 A 
HETATM    6 CL1  UNL     1     -22.907   4.043  23.034  1.00  0.00    -0.083 Cl
HETATM    7  C21 UNL     1     -22.404   4.901  20.580  1.00  0.00    -0.005 A 
HETATM    8  C22 UNL     1     -22.463   6.243  21.209  1.00  0.00     0.053 C 
ENDROOT
BRANCH   4   9
HETATM    9  C12 UNL     1     -22.730   1.237  21.541  1.00  0.00     0.095 C 
HETATM   10  C13 UNL     1     -21.476   1.128  22.532  1.00  0.00     0.086 C 
BRANCH   9  11
HETATM   11  N3  UNL     1     -23.128   0.050  21.234  1.00  0.00    -0.391 NA
BRANCH  11  12
HETATM   12  C14 UNL     1     -23.536  -1.062  21.028  1.00  0.00     0.193 A 
HETATM   13  N4  UNL     1     -24.675  -1.622  21.533  1.00  0.00    -0.327 N 
HETATM   14  C15 UNL     1     -25.125  -2.835  21.328  1.00  0.00     0.183 A 
ATOM     15  H4  UNL     1     -25.239  -1.027  22.140  1.00  0.00     0.169 HD
HETATM   16  N5  UNL     1     -24.461  -3.673  20.557  1.00  0.00    -0.355 N 
HETATM   17  C16 UNL     1     -23.319  -3.258  19.990  1.00  0.00     0.022 A 
ATOM     18  H5  UNL     1     -24.810  -4.618  20.395  1.00  0.00     0.166 HD
HETATM   19  C17 UNL     1     -22.652  -4.257  19.109  1.00  0.00     0.069 C 
HETATM   20  C18 UNL     1     -22.831  -1.995  20.193  1.00  0.00     0.086 A 
BRANCH  20  21
HETATM   21  C19 UNL     1     -21.593  -1.605  19.541  1.00  0.00     0.393 C 
HETATM   22  F2  UNL     1     -20.541  -1.311  20.382  1.00  0.00    -0.209 F 
HETATM   23  F3  UNL     1     -21.854  -0.534  18.657  1.00  0.00    -0.209 F 
ENDBRANCH  20  21
ENDBRANCH  11  12
ENDBRANCH   9  11
ENDBRANCH   4   9
BRANCH   2  24
HETATM   24  C4  UNL     1     -21.703   3.273  17.258  1.00  0.00     0.001 A 
HETATM   25  C5  UNL     1     -20.362   2.984  17.005  1.00  0.00     0.102 A 
HETATM   26  N1  UNL     1     -19.952   2.872  15.703  1.00  0.00    -0.349 N 
HETATM   27  C6  UNL     1     -20.818   3.031  14.701  1.00  0.00     0.138 A 
ATOM     28  H1  UNL     1     -18.975   2.666  15.497  1.00  0.00     0.167 HD
HETATM   29  N2  UNL     1     -20.420   2.946  13.449  1.00  0.00    -0.383 N 
HETATM   30  C7  UNL     1     -22.139   3.312  14.902  1.00  0.00     0.166 A 
ATOM     31  H22 UNL     1     -19.434   2.736  13.299  1.00  0.00     0.157 HD
ATOM     32  H21 UNL     1     -21.083   3.067  12.683  1.00  0.00     0.157 HD
HETATM   33  F1  UNL     1     -23.043   3.478  13.918  1.00  0.00    -0.202 F 
HETATM   34  C8  UNL     1     -22.585   3.434  16.223  1.00  0.00    -0.007 A 
HETATM   35  C9  UNL     1     -24.005   3.766  16.479  1.00  0.00     0.052 C 
ENDBRANCH   2  24
BRANCH   1  36
HETATM   36  O1  UNL     1     -21.929   5.911  18.487  1.00  0.00    -0.354 OA
HETATM   37  C1  UNL     1     -20.636   6.454  18.263  1.00  0.00     0.210 C 
ENDBRANCH   1  36
TORSDOF 6
ENDMDL
MODEL 2
REMARK VINA RESULT: -8.093949290      1.115      1.540
REMARK  6 active torsions:
REMARK  status: ('A' for Active; 'I' for Inactive)
REMARK    1  A    between atoms: O1_2  and  C2_3 
REMARK    2  A    between atoms: C3_4  and  C4_5 
REMARK    3  A    between atoms: C11_18  and  C12_19 
REMARK    4  A    between atoms: C12_19  and  N3_21 
REMARK    5  A    between atoms: N3_21  and  C14_22 
REMARK    6  A    between atoms: C18_30  and  C19_31 
ROOT
HETATM    1  C2  UNL     1     -22.142   4.972  19.756  1.00  0.00     0.087 A 
HETATM    2  C3  UNL     1     -22.025   3.806  19.087  1.00  0.00     0.011 A 
HETATM    3  C10 UNL     1     -22.234   2.617  19.769  1.00  0.00     0.031 A 
HETATM    4  C11 UNL     1     -22.565   2.553  21.148  1.00  0.00     0.023 A 
HETATM    5  C20 UNL     1     -22.657   3.751  21.754  1.00  0.00     0.056 A 
HETATM    6 CL1  UNL     1     -22.990   3.895  23.445  1.00  0.00    -0.083 Cl
HETATM    7  C21 UNL     1     -22.453   4.973  21.087  1.00  0.00    -0.005 A 
HETATM    8  C22 UNL     1     -22.589   6.254  21.821  1.00  0.00     0.053 C 
ENDROOT
BRANCH   4   9
HETATM    9  C12 UNL     1     -22.647   1.232  21.735  1.00  0.00     0.095 C 
HETATM   10  C13 UNL     1     -21.325   1.026  22.618  1.00  0.00     0.086 C 
BRANCH   9  11
HETATM   11  N3  UNL     1     -23.080   0.079  21.352  1.00  0.00    -0.391 NA
BRANCH  11  12
HETATM   12  C14 UNL     1     -23.500  -1.014  21.081  1.00  0.00     0.193 A 
HETATM   13  N4  UNL     1     -24.639  -1.595  21.562  1.00  0.00    -0.327 N 
HETATM   14  C15 UNL     1     -25.103  -2.788  21.286  1.00  0.00     0.183 A 
ATOM     15  H4  UNL     1     -25.192  -1.034  22.210  1.00  0.00     0.169 HD
HETATM   16  N5  UNL     1     -24.454  -3.581  20.457  1.00  0.00    -0.355 N 
HETATM   17  C16 UNL     1     -23.313  -3.142  19.905  1.00  0.00     0.022 A 
ATOM     18  H5  UNL     1     -24.812  -4.511  20.239  1.00  0.00     0.166 HD
HETATM   19  C17 UNL     1     -22.664  -4.088  18.956  1.00  0.00     0.069 C 
HETATM   20  C18 UNL     1     -22.812  -1.898  20.182  1.00  0.00     0.086 A 
BRANCH  20  21
HETATM   21  C19 UNL     1     -21.577  -1.478  19.543  1.00  0.00     0.393 C 
HETATM   22  F2  UNL     1     -20.497  -1.308  20.383  1.00  0.00    -0.209 F 
HETATM   23  F3  UNL     1     -21.822  -0.311  18.785  1.00  0.00    -0.209 F 
ENDBRANCH  20  21
ENDBRANCH  11  12
ENDBRANCH   9  11
ENDBRANCH   4   9
BRANCH   2  24
HETATM   24  C4  UNL     1     -21.583   3.655  17.668  1.00  0.00     0.001 A 
HETATM   25  C5  UNL     1     -22.511   3.154  16.756  1.00  0.00     0.102 A 
HETATM   26  N1  UNL     1     -22.088   2.862  15.486  1.00  0.00    -0.349 N 
HETATM   27  C6  UNL     1     -20.816   3.057  15.132  1.00  0.00     0.138 A 
ATOM     28  H1  UNL     1     -22.750   2.491  14.806  1.00  0.00     0.167 HD
HETATM   29  N2  UNL     1     -20.404   2.755  13.919  1.00  0.00    -0.383 N 
HETATM   30  C7  UNL     1     -19.876   3.548  15.991  1.00  0.00     0.166 A 
ATOM     31  H22 UNL     1     -21.107   2.389  13.277  1.00  0.00     0.157 HD
ATOM     32  H21 UNL     1     -19.432   2.905  13.648  1.00  0.00     0.157 HD
HETATM   33  F1  UNL     1     -18.585   3.760  15.669  1.00  0.00    -0.202 F 
HETATM   34  C8  UNL     1     -20.280   3.853  17.295  1.00  0.00    -0.007 A 
HETATM   35  C9  UNL     1     -19.281   4.360  18.262  1.00  0.00     0.052 C 
ENDBRANCH   2  24
BRANCH   1  36
HETATM   36  O1  UNL     1     -21.960   6.172  19.100  1.00  0.00    -0.354 OA
HETATM   37  C1  UNL     1     -20.825   6.997  19.315  1.00  0.00     0.210 C 
ENDBRANCH   1  36
TORSDOF 6
ENDMDL
MODEL 3
REMARK VINA RESULT: -8.025202127      3.333      5.328
REMARK  6 active torsions:
REMARK  status: ('A' for Active; 'I' for Inactive)
REMARK    1  A    between atoms: O1_2  and  C2_3 
REMARK    2  A    between atoms: C3_4  and  C4_5 
REMARK    3  A    between atoms: C11_18  and  C12_19 
REMARK    4  A    between atoms: C12_19  and  N3_21 
REMARK    5  A    between atoms: N3_21  and  C14_22 
REMARK    6  A    between atoms: C18_30  and  C19_31 
ROOT
HETATM    1  C2  UNL     1     -21.396   4.653  20.273  1.00  0.00     0.087 A 
HETATM    2  C3  UNL     1     -21.379   4.372  21.592  1.00  0.00     0.011 A 
HETATM    3  C10 UNL     1     -21.765   3.109  22.016  1.00  0.00     0.031 A 
HETATM    4  C11 UNL     1     -22.187   2.082  21.131  1.00  0.00     0.023 A 
HETATM    5  C20 UNL     1     -22.188   2.433  19.831  1.00  0.00     0.056 A 
HETATM    6 CL1  UNL     1     -22.726   1.350  18.595  1.00  0.00    -0.083 Cl
HETATM    7  C21 UNL     1     -21.800   3.705  19.373  1.00  0.00    -0.005 A 
HETATM    8  C22 UNL     1     -21.813   4.011  17.922  1.00  0.00     0.053 C 
ENDROOT
BRANCH   4   9
HETATM    9  C12 UNL     1     -22.657   0.855  21.739  1.00  0.00     0.095 C 
HETATM   10  C13 UNL     1     -21.967   0.750  23.181  1.00  0.00     0.086 C 
BRANCH   9  11
HETATM   11  N3  UNL     1     -22.938  -0.331  21.320  1.00  0.00    -0.391 NA
BRANCH  11  12
HETATM   12  C14 UNL     1     -23.250  -1.448  21.001  1.00  0.00     0.193 A 
HETATM   13  N4  UNL     1     -24.468  -2.040  21.185  1.00  0.00    -0.327 N 
HETATM   14  C15 UNL     1     -24.819  -3.258  20.856  1.00  0.00     0.183 A 
ATOM     15  H4  UNL     1     -25.185  -1.468  21.631  1.00  0.00     0.169 HD
HETATM   16  N5  UNL     1     -23.957  -4.068  20.275  1.00  0.00    -0.355 N 
HETATM   17  C16 UNL     1     -22.717  -3.620  20.030  1.00  0.00     0.022 A 
ATOM     18  H5  UNL     1     -24.228  -5.017  20.016  1.00  0.00     0.166 HD
HETATM   19  C17 UNL     1     -21.819  -4.588  19.341  1.00  0.00     0.069 C 
HETATM   20  C18 UNL     1     -22.330  -2.351  20.368  1.00  0.00     0.086 A 
BRANCH  20  21
HETATM   21  C19 UNL     1     -20.975  -1.923  20.066  1.00  0.00     0.393 C 
HETATM   22  F2  UNL     1     -20.243  -1.456  21.136  1.00  0.00    -0.209 F 
HETATM   23  F3  UNL     1     -21.012  -0.975  19.020  1.00  0.00    -0.209 F 
ENDBRANCH  20  21
ENDBRANCH  11  12
ENDBRANCH   9  11
ENDBRANCH   4   9
BRANCH   2  24
HETATM   24  C4  UNL     1     -21.071   5.342  22.686  1.00  0.00     0.001 A 
HETATM   25  C5  UNL     1     -22.149   5.956  23.322  1.00  0.00     0.102 A 
HETATM   26  N1  UNL     1     -21.893   6.960  24.218  1.00  0.00    -0.349 N 
HETATM   27  C6  UNL     1     -20.639   7.336  24.478  1.00  0.00     0.138 A 
ATOM     28  H1  UNL     1     -22.668   7.425  24.691  1.00  0.00     0.167 HD
HETATM   29  N2  UNL     1     -20.394   8.316  25.323  1.00  0.00    -0.383 N 
HETATM   30  C7  UNL     1     -19.555   6.761  23.881  1.00  0.00     0.166 A 
ATOM     31  H22 UNL     1     -21.204   8.745  25.769  1.00  0.00     0.157 HD
ATOM     32  H21 UNL     1     -19.435   8.603  25.522  1.00  0.00     0.157 HD
HETATM   33  F1  UNL     1     -18.277   7.112  24.119  1.00  0.00    -0.202 F 
HETATM   34  C8  UNL     1     -19.787   5.734  22.959  1.00  0.00    -0.007 A 
HETATM   35  C9  UNL     1     -18.637   5.106  22.271  1.00  0.00     0.052 C 
ENDBRANCH   2  24
BRANCH   1  36
HETATM   36  O1  UNL     1     -20.999   5.894  19.820  1.00  0.00    -0.354 OA
HETATM   37  C1  UNL     1     -21.888   6.997  19.730  1.00  0.00     0.210 C 
ENDBRANCH   1  36
TORSDOF 6
ENDMDL
MODEL 4
REMARK VINA RESULT: -7.911444100      3.260      5.011
REMARK  6 active torsions:
REMARK  status: ('A' for Active; 'I' for Inactive)
REMARK    1  A    between atoms: O1_2  and  C2_3 
REMARK    2  A    between atoms: C3_4  and  C4_5 
REMARK    3  A    between atoms: C11_18  and  C12_19 
REMARK    4  A    between atoms: C12_19  and  N3_21 
REMARK    5  A    between atoms: N3_21  and  C14_22 
REMARK    6  A    between atoms: C18_30  and  C19_31 
ROOT
HETATM    1  C2  UNL     1     -21.315   4.768  19.314  1.00  0.00     0.087 A 
HETATM    2  C3  UNL     1     -21.474   4.739  20.654  1.00  0.00     0.011 A 
HETATM    3  C10 UNL     1     -21.904   3.565  21.254  1.00  0.00     0.031 A 
HETATM    4  C11 UNL     1     -22.196   2.378  20.532  1.00  0.00     0.023 A 
HETATM    5  C20 UNL     1     -22.024   2.480  19.200  1.00  0.00     0.056 A 
HETATM    6 CL1  UNL     1     -22.382   1.169  18.131  1.00  0.00    -0.083 Cl
HETATM    7  C21 UNL     1     -21.586   3.657  18.565  1.00  0.00    -0.005 A 
HETATM    8  C22 UNL     1     -21.406   3.687  17.094  1.00  0.00     0.053 C 
ENDROOT
BRANCH   4   9
HETATM    9  C12 UNL     1     -22.735   1.271  21.293  1.00  0.00     0.095 C 
HETATM   10  C13 UNL     1     -22.181   1.416  22.791  1.00  0.00     0.086 C 
BRANCH   9  11
HETATM   11  N3  UNL     1     -22.991   0.030  21.059  1.00  0.00    -0.391 NA
BRANCH  11  12
HETATM   12  C14 UNL     1     -23.305  -1.118  20.886  1.00  0.00     0.193 A 
HETATM   13  N4  UNL     1     -24.470  -1.715  21.276  1.00  0.00    -0.327 N 
HETATM   14  C15 UNL     1     -24.821  -2.965  21.107  1.00  0.00     0.183 A 
ATOM     15  H4  UNL     1     -25.145  -1.117  21.754  1.00  0.00     0.169 HD
HETATM   16  N5  UNL     1     -24.012  -3.809  20.498  1.00  0.00    -0.355 N 
HETATM   17  C16 UNL     1     -22.827  -3.361  20.059  1.00  0.00     0.022 A 
ATOM     18  H5  UNL     1     -24.282  -4.784  20.364  1.00  0.00     0.166 HD
HETATM   19  C17 UNL     1     -21.990  -4.372  19.354  1.00  0.00     0.069 C 
HETATM   20  C18 UNL     1     -22.441  -2.058  20.227  1.00  0.00     0.086 A 
BRANCH  20  21
HETATM   21  C19 UNL     1     -21.149  -1.634  19.719  1.00  0.00     0.393 C 
HETATM   22  F2  UNL     1     -20.916  -1.892  18.386  1.00  0.00    -0.209 F 
HETATM   23  F3  UNL     1     -20.130  -2.182  20.530  1.00  0.00    -0.209 F 
ENDBRANCH  20  21
ENDBRANCH  11  12
ENDBRANCH   9  11
ENDBRANCH   4   9
BRANCH   2  24
HETATM   24  C4  UNL     1     -21.323   5.905  21.575  1.00  0.00     0.001 A 
HETATM   25  C5  UNL     1     -22.378   6.816  21.637  1.00  0.00     0.102 A 
HETATM   26  N1  UNL     1     -22.203   7.970  22.352  1.00  0.00    -0.349 N 
HETATM   27  C6  UNL     1     -21.051   8.214  22.980  1.00  0.00     0.138 A 
ATOM     28  H1  UNL     1     -22.961   8.651  22.406  1.00  0.00     0.167 HD
HETATM   29  N2  UNL     1     -20.875   9.333  23.649  1.00  0.00    -0.383 N 
HETATM   30  C7  UNL     1     -19.994   7.350  22.948  1.00  0.00     0.166 A 
ATOM     31  H22 UNL     1     -21.664   9.978  23.673  1.00  0.00     0.157 HD
ATOM     32  H21 UNL     1     -19.994   9.519  24.129  1.00  0.00     0.157 HD
HETATM   33  F1  UNL     1     -18.818   7.560  23.569  1.00  0.00    -0.202 F 
HETATM   34  C8  UNL     1     -20.144   6.163  22.222  1.00  0.00    -0.007 A 
HETATM   35  C9  UNL     1     -19.010   5.216  22.143  1.00  0.00     0.052 C 
ENDBRANCH   2  24
BRANCH   1  36
HETATM   36  O1  UNL     1     -20.869   5.915  18.691  1.00  0.00    -0.354 OA
HETATM   37  C1  UNL     1     -19.491   6.209  18.524  1.00  0.00     0.210 C 
ENDBRANCH   1  36
TORSDOF 6
ENDMDL
MODEL 5
REMARK VINA RESULT: -7.843526834      3.308      4.939
REMARK  6 active torsions:
REMARK  status: ('A' for Active; 'I' for Inactive)
REMARK    1  A    between atoms: O1_2  and  C2_3 
REMARK    2  A    between atoms: C3_4  and  C4_5 
REMARK    3  A    between atoms: C11_18  and  C12_19 
REMARK    4  A    between atoms: C12_19  and  N3_21 
REMARK    5  A    between atoms: N3_21  and  C14_22 
REMARK    6  A    between atoms: C18_30  and  C19_31 
ROOT
HETATM    1  C2  UNL     1     -20.816   4.479  19.504  1.00  0.00     0.087 A 
HETATM    2  C3  UNL     1     -20.856   4.398  20.850  1.00  0.00     0.011 A 
HETATM    3  C10 UNL     1     -21.484   3.312  21.440  1.00  0.00     0.031 A 
HETATM    4  C11 UNL     1     -22.100   2.268  20.700  1.00  0.00     0.023 A 
HETATM    5  C20 UNL     1     -22.031   2.417  19.364  1.00  0.00     0.056 A 
HETATM    6 CL1  UNL     1     -22.770   1.289  18.281  1.00  0.00    -0.083 Cl
HETATM    7  C21 UNL     1     -21.398   3.507  18.739  1.00  0.00    -0.005 A 
HETATM    8  C22 UNL     1     -21.348   3.592  17.259  1.00  0.00     0.053 C 
ENDROOT
BRANCH   4   9
HETATM    9  C12 UNL     1     -22.805   1.260  21.464  1.00  0.00     0.095 C 
HETATM   10  C13 UNL     1     -22.412   1.476  23.003  1.00  0.00     0.086 C 
BRANCH   9  11
HETATM   11  N3  UNL     1     -23.128   0.026  21.283  1.00  0.00    -0.391 NA
BRANCH  11  12
HETATM   12  C14 UNL     1     -23.423  -1.111  21.026  1.00  0.00     0.193 A 
HETATM   13  N4  UNL     1     -24.572  -1.759  21.382  1.00  0.00    -0.327 N 
HETATM   14  C15 UNL     1     -24.902  -2.999  21.122  1.00  0.00     0.183 A 
ATOM     15  H4  UNL     1     -25.251  -1.212  21.912  1.00  0.00     0.169 HD
HETATM   16  N5  UNL     1     -24.085  -3.778  20.441  1.00  0.00    -0.355 N 
HETATM   17  C16 UNL     1     -22.914  -3.275  20.025  1.00  0.00     0.022 A 
ATOM     18  H5  UNL     1     -24.338  -4.745  20.236  1.00  0.00     0.166 HD
HETATM   19  C17 UNL     1     -22.068  -4.214  19.235  1.00  0.00     0.069 C 
HETATM   20  C18 UNL     1     -22.550  -1.982  20.288  1.00  0.00     0.086 A 
BRANCH  20  21
HETATM   21  C19 UNL     1     -21.272  -1.495  19.799  1.00  0.00     0.393 C 
HETATM   22  F2  UNL     1     -21.090  -1.559  18.434  1.00  0.00    -0.209 F 
HETATM   23  F3  UNL     1     -20.231  -2.160  20.484  1.00  0.00    -0.209 F 
ENDBRANCH  20  21
ENDBRANCH  11  12
ENDBRANCH   9  11
ENDBRANCH   4   9
BRANCH   2  24
HETATM   24  C4  UNL     1     -20.363   5.440  21.801  1.00  0.00     0.001 A 
HETATM   25  C5  UNL     1     -19.161   5.189  22.463  1.00  0.00     0.102 A 
HETATM   26  N1  UNL     1     -18.767   6.052  23.451  1.00  0.00    -0.349 N 
HETATM   27  C6  UNL     1     -19.515   7.110  23.767  1.00  0.00     0.138 A 
ATOM     28  H1  UNL     1     -17.894   5.883  23.950  1.00  0.00     0.167 HD
HETATM   29  N2  UNL     1     -19.147   7.928  24.732  1.00  0.00    -0.383 N 
HETATM   30  C7  UNL     1     -20.695   7.396  23.144  1.00  0.00     0.166 A 
ATOM     31  H22 UNL     1     -18.265   7.715  25.197  1.00  0.00     0.157 HD
ATOM     32  H21 UNL     1     -19.719   8.737  24.973  1.00  0.00     0.157 HD
HETATM   33  F1  UNL     1     -21.475   8.454  23.435  1.00  0.00    -0.202 F 
HETATM   34  C8  UNL     1     -21.124   6.529  22.132  1.00  0.00    -0.007 A 
HETATM   35  C9  UNL     1     -22.413   6.792  21.454  1.00  0.00     0.052 C 
ENDBRANCH   2  24
BRANCH   1  36
HETATM   36  O1  UNL     1     -20.181   5.538  18.889  1.00  0.00    -0.354 OA
HETATM   37  C1  UNL     1     -18.780   5.563  18.662  1.00  0.00     0.210 C 
ENDBRANCH   1  36
TORSDOF 6
ENDMDL
