MODEL 1
REMARK VINA RESULT: -10.160465020      0.000      0.000
REMARK  10 active torsions:
REMARK  status: ('A' for Active; 'I' for Inactive)
REMARK    1  A    between atoms: C2_2  and  C3_3 
REMARK    2  A    between atoms: C2_2  and  C27_37 
REMARK    3  A    between atoms: C3_3  and  C4_4 
REMARK    4  A    between atoms: C4_4  and  C5_5 
REMARK    5  A    between atoms: C11_11  and  O1_12 
REMARK    6  A    between atoms: O1_12  and  C12_13 
REMARK    7  A    between atoms: C16_18  and  C17_19 
REMARK    8  A    between atoms: C18_21  and  O4_22 
REMARK    9  A    between atoms: C20_25  and  O5_26 
REMARK   10  A    between atoms: C26_34  and  O7_35 
ROOT
HETATM    1  C5  UNL     1      18.142  -7.932  -2.295  1.00  0.00     0.014 C 
HETATM    2  C6  UNL     1      17.603  -6.604  -2.728  1.00  0.00     0.009 C 
HETATM    3  C7  UNL     1      16.396  -6.951  -3.606  1.00  0.00     0.011 C 
HETATM    4  C8  UNL     1      16.271  -6.062  -4.766  1.00  0.00    -0.029 C 
HETATM    5  C9  UNL     1      15.580  -4.818  -4.322  1.00  0.00     0.016 C 
HETATM    6  C10 UNL     1      15.488  -6.839  -5.843  1.00  0.00     0.056 C 
HETATM    7  C11 UNL     1      15.397  -5.789  -6.883  1.00  0.00     0.139 C 
HETATM    8  C14 UNL     1      16.805  -5.171  -6.790  1.00  0.00     0.042 C 
HETATM    9  C15 UNL     1      17.494  -5.849  -5.635  1.00  0.00     0.041 C 
HETATM   10  C16 UNL     1      17.924  -7.234  -5.998  1.00  0.00     0.149 C 
HETATM   11  O6  UNL     1      18.660  -7.959  -5.104  1.00  0.00    -0.334 OA
HETATM   12  C21 UNL     1      19.679  -8.169  -4.312  1.00  0.00     0.050 C 
HETATM   13  C22 UNL     1      20.985  -8.400  -4.537  1.00  0.00    -0.058 C 
HETATM   14  C23 UNL     1      21.920  -8.607  -3.373  1.00  0.00     0.045 C 
HETATM   15  C24 UNL     1      21.611  -8.507  -5.844  1.00  0.00     0.045 C 
HETATM   16  C25 UNL     1      19.466  -8.184  -2.807  1.00  0.00     0.073 C 
HETATM   17  C26 UNL     1      16.533  -7.858  -6.266  1.00  0.00     0.167 C 
ENDROOT
BRANCH  10  18
HETATM   18  C17 UNL     1      18.608  -7.320  -7.340  1.00  0.00     0.127 A 
HETATM   19  O3  UNL     1      18.365  -8.127  -8.305  1.00  0.00    -0.286 OA
HETATM   20  C18 UNL     1      19.145  -7.922  -9.323  1.00  0.00     0.186 A 
HETATM   21  C19 UNL     1      19.991  -6.885  -9.022  1.00  0.00     0.103 A 
HETATM   22  C20 UNL     1      19.627  -6.496  -7.717  1.00  0.00     0.103 A 
BRANCH  20  23
HETATM   23  O4  UNL     1      19.186  -8.588 -10.541  1.00  0.00    -0.341 OA
ATOM     24  H4  UNL     1      19.941  -8.841 -11.059  1.00  0.00     0.220 HD
ENDBRANCH  20  23
BRANCH  22  25
HETATM   25  O5  UNL     1      20.250  -5.440  -7.019  1.00  0.00    -0.358 OA
ATOM     26  H5  UNL     1      21.132  -5.095  -7.089  1.00  0.00     0.217 HD
ENDBRANCH  22  25
ENDBRANCH  10  18
BRANCH  17  27
HETATM   27  O7  UNL     1      16.330  -8.193  -7.603  1.00  0.00    -0.392 OA
ATOM     28  H7  UNL     1      16.399  -9.135  -7.703  1.00  0.00     0.210 HD
ENDBRANCH  17  27
BRANCH   7  29
HETATM   29  O1  UNL     1      14.386  -4.821  -6.633  1.00  0.00    -0.316 OA
BRANCH  29  30
HETATM   30  C12 UNL     1      13.087  -4.975  -7.070  1.00  0.00     0.255 C 
HETATM   31  C13 UNL     1      12.775  -5.842  -8.219  1.00  0.00     0.126 C 
HETATM   32  O2  UNL     1      12.181  -4.348  -6.447  1.00  0.00    -0.266 OA
ENDBRANCH  29  30
ENDBRANCH   7  29
BRANCH   1  33
HETATM   33  C4  UNL     1      18.180  -7.937  -0.723  1.00  0.00    -0.021 C 
BRANCH  33  34
HETATM   34  C3  UNL     1      18.390  -9.008  -0.188  1.00  0.00     0.007 C 
BRANCH  34  35
HETATM   35  C2  UNL     1      19.356  -9.144   1.281  1.00  0.00    -0.046 C 
HETATM   36  C1  UNL     1      18.318  -8.952   1.924  1.00  0.00     0.023 C 
BRANCH  35  37
HETATM   37  C27 UNL     1      20.543  -9.365   0.545  1.00  0.00     0.012 C 
HETATM   38  C28 UNL     1      21.499  -8.378   0.759  1.00  0.00    -0.087 C 
HETATM   39  C29 UNL     1      22.779  -8.511   0.049  1.00  0.00     0.043 C 
HETATM   40  C30 UNL     1      21.151  -7.273   1.643  1.00  0.00     0.043 C 
ENDBRANCH  35  37
ENDBRANCH  34  35
ENDBRANCH  33  34
ENDBRANCH   1  33
TORSDOF 10
ENDMDL
MODEL 2
REMARK VINA RESULT: -10.027912949      1.057      1.193
REMARK  10 active torsions:
REMARK  status: ('A' for Active; 'I' for Inactive)
REMARK    1  A    between atoms: C2_2  and  C3_3 
REMARK    2  A    between atoms: C2_2  and  C27_37 
REMARK    3  A    between atoms: C3_3  and  C4_4 
REMARK    4  A    between atoms: C4_4  and  C5_5 
REMARK    5  A    between atoms: C11_11  and  O1_12 
REMARK    6  A    between atoms: O1_12  and  C12_13 
REMARK    7  A    between atoms: C16_18  and  C17_19 
REMARK    8  A    between atoms: C18_21  and  O4_22 
REMARK    9  A    between atoms: C20_25  and  O5_26 
REMARK   10  A    between atoms: C26_34  and  O7_35 
ROOT
HETATM    1  C5  UNL     1      17.962  -7.879  -2.904  1.00  0.00     0.014 C 
HETATM    2  C6  UNL     1      17.269  -6.666  -3.441  1.00  0.00     0.009 C 
HETATM    3  C7  UNL     1      16.164  -7.226  -4.343  1.00  0.00     0.011 C 
HETATM    4  C8  UNL     1      15.976  -6.431  -5.562  1.00  0.00    -0.029 C 
HETATM    5  C9  UNL     1      15.101  -5.271  -5.224  1.00  0.00     0.016 C 
HETATM    6  C10 UNL     1      15.359  -7.368  -6.618  1.00  0.00     0.056 C 
HETATM    7  C11 UNL     1      15.177  -6.402  -7.724  1.00  0.00     0.139 C 
HETATM    8  C14 UNL     1      16.481  -5.590  -7.614  1.00  0.00     0.042 C 
HETATM    9  C15 UNL     1      17.200  -6.099  -6.391  1.00  0.00     0.041 C 
HETATM   10  C16 UNL     1      17.831  -7.429  -6.649  1.00  0.00     0.149 C 
HETATM   11  O6  UNL     1      18.614  -7.993  -5.682  1.00  0.00    -0.334 OA
HETATM   12  C21 UNL     1      19.613  -8.014  -4.838  1.00  0.00     0.050 C 
HETATM   13  C22 UNL     1      20.948  -8.074  -4.995  1.00  0.00    -0.058 C 
HETATM   14  C23 UNL     1      21.844  -8.082  -3.784  1.00  0.00     0.045 C 
HETATM   15  C24 UNL     1      21.646  -8.167  -6.266  1.00  0.00     0.045 C 
HETATM   16  C25 UNL     1      19.331  -7.973  -3.345  1.00  0.00     0.073 C 
HETATM   17  C26 UNL     1      16.553  -8.254  -6.933  1.00  0.00     0.167 C 
ENDROOT
BRANCH  10  18
HETATM   18  C17 UNL     1      18.585  -7.495  -7.954  1.00  0.00     0.127 A 
HETATM   19  O3  UNL     1      18.494  -8.376  -8.881  1.00  0.00    -0.286 OA
HETATM   20  C18 UNL     1      19.290  -8.125  -9.875  1.00  0.00     0.186 A 
HETATM   21  C19 UNL     1      19.981  -6.972  -9.600  1.00  0.00     0.103 A 
HETATM   22  C20 UNL     1      19.508  -6.567  -8.336  1.00  0.00     0.103 A 
BRANCH  20  23
HETATM   23  O4  UNL     1      19.475  -8.842 -11.050  1.00  0.00    -0.341 OA
ATOM     24  H4  UNL     1      19.591  -8.519 -11.936  1.00  0.00     0.220 HD
ENDBRANCH  20  23
BRANCH  22  25
HETATM   25  O5  UNL     1      19.957  -5.404  -7.675  1.00  0.00    -0.358 OA
ATOM     26  H5  UNL     1      20.669  -5.286  -7.058  1.00  0.00     0.217 HD
ENDBRANCH  22  25
ENDBRANCH  10  18
BRANCH  17  27
HETATM   27  O7  UNL     1      16.463  -8.690  -8.254  1.00  0.00    -0.392 OA
ATOM     28  H7  UNL     1      17.292  -8.538  -8.691  1.00  0.00     0.210 HD
ENDBRANCH  17  27
BRANCH   7  29
HETATM   29  O1  UNL     1      14.032  -5.571  -7.577  1.00  0.00    -0.316 OA
BRANCH  29  30
HETATM   30  C12 UNL     1      12.781  -5.945  -8.021  1.00  0.00     0.255 C 
HETATM   31  C13 UNL     1      12.066  -5.141  -9.028  1.00  0.00     0.126 C 
HETATM   32  O2  UNL     1      12.279  -7.000  -7.535  1.00  0.00    -0.266 OA
ENDBRANCH  29  30
ENDBRANCH   7  29
BRANCH   1  33
HETATM   33  C4  UNL     1      17.923  -7.790  -1.335  1.00  0.00    -0.021 C 
BRANCH  33  34
HETATM   34  C3  UNL     1      18.444  -6.814  -0.832  1.00  0.00     0.007 C 
BRANCH  34  35
HETATM   35  C2  UNL     1      19.317  -6.904   0.697  1.00  0.00    -0.046 C 
HETATM   36  C1  UNL     1      18.234  -6.742   1.270  1.00  0.00     0.023 C 
BRANCH  35  37
HETATM   37  C27 UNL     1      20.556  -7.090   0.041  1.00  0.00     0.012 C 
HETATM   38  C28 UNL     1      21.253  -8.196   0.514  1.00  0.00    -0.087 C 
HETATM   39  C29 UNL     1      22.554  -8.491  -0.103  1.00  0.00     0.043 C 
HETATM   40  C30 UNL     1      20.660  -8.960   1.605  1.00  0.00     0.043 C 
ENDBRANCH  35  37
ENDBRANCH  34  35
ENDBRANCH  33  34
ENDBRANCH   1  33
TORSDOF 10
ENDMDL
MODEL 3
REMARK VINA RESULT: -10.024008695      2.150      7.791
REMARK  10 active torsions:
REMARK  status: ('A' for Active; 'I' for Inactive)
REMARK    1  A    between atoms: C2_2  and  C3_3 
REMARK    2  A    between atoms: C2_2  and  C27_37 
REMARK    3  A    between atoms: C3_3  and  C4_4 
REMARK    4  A    between atoms: C4_4  and  C5_5 
REMARK    5  A    between atoms: C11_11  and  O1_12 
REMARK    6  A    between atoms: O1_12  and  C12_13 
REMARK    7  A    between atoms: C16_18  and  C17_19 
REMARK    8  A    between atoms: C18_21  and  O4_22 
REMARK    9  A    between atoms: C20_25  and  O5_26 
REMARK   10  A    between atoms: C26_34  and  O7_35 
ROOT
HETATM    1  C5  UNL     1      15.722  -5.849  -6.487  1.00  0.00     0.014 C 
HETATM    2  C6  UNL     1      15.724  -7.031  -5.569  1.00  0.00     0.009 C 
HETATM    3  C7  UNL     1      16.452  -6.537  -4.315  1.00  0.00     0.011 C 
HETATM    4  C8  UNL     1      17.324  -7.563  -3.731  1.00  0.00    -0.029 C 
HETATM    5  C9  UNL     1      16.483  -8.455  -2.882  1.00  0.00     0.016 C 
HETATM    6  C10 UNL     1      18.417  -6.822  -2.936  1.00  0.00     0.056 C 
HETATM    7  C11 UNL     1      19.139  -7.986  -2.373  1.00  0.00     0.139 C 
HETATM    8  C14 UNL     1      19.127  -8.942  -3.580  1.00  0.00     0.042 C 
HETATM    9  C15 UNL     1      18.300  -8.273  -4.648  1.00  0.00     0.041 C 
HETATM   10  C16 UNL     1      19.056  -7.161  -5.301  1.00  0.00     0.149 C 
HETATM   11  O6  UNL     1      18.497  -6.512  -6.365  1.00  0.00    -0.334 OA
HETATM   12  C21 UNL     1      17.956  -6.445  -7.554  1.00  0.00     0.050 C 
HETATM   13  C22 UNL     1      18.439  -6.636  -8.795  1.00  0.00    -0.058 C 
HETATM   14  C23 UNL     1      17.528  -6.478  -9.985  1.00  0.00     0.045 C 
HETATM   15  C24 UNL     1      19.816  -6.963  -9.125  1.00  0.00     0.045 C 
HETATM   16  C25 UNL     1      16.487  -6.080  -7.687  1.00  0.00     0.073 C 
HETATM   17  C26 UNL     1      19.240  -6.238  -4.072  1.00  0.00     0.167 C 
ENDROOT
BRANCH  10  18
HETATM   18  C17 UNL     1      20.470  -7.531  -5.673  1.00  0.00     0.127 A 
HETATM   19  O3  UNL     1      21.048  -8.669  -5.563  1.00  0.00    -0.286 OA
HETATM   20  C18 UNL     1      22.276  -8.637  -5.983  1.00  0.00     0.186 A 
HETATM   21  C19 UNL     1      22.556  -7.365  -6.417  1.00  0.00     0.103 A 
HETATM   22  C20 UNL     1      21.361  -6.649  -6.209  1.00  0.00     0.103 A 
BRANCH  20  23
HETATM   23  O4  UNL     1      23.214  -9.661  -6.023  1.00  0.00    -0.341 OA
ATOM     24  H4  UNL     1      23.536 -10.148  -6.773  1.00  0.00     0.220 HD
ENDBRANCH  20  23
BRANCH  22  25
HETATM   25  O5  UNL     1      21.208  -5.283  -6.534  1.00  0.00    -0.358 OA
ATOM     26  H5  UNL     1      21.777  -4.702  -7.024  1.00  0.00     0.217 HD
ENDBRANCH  22  25
ENDBRANCH  10  18
BRANCH  17  27
HETATM   27  O7  UNL     1      20.568  -6.124  -3.664  1.00  0.00    -0.392 OA
ATOM     28  H7  UNL     1      21.088  -5.790  -4.385  1.00  0.00     0.210 HD
ENDBRANCH  17  27
BRANCH   7  29
HETATM   29  O1  UNL     1      18.500  -8.566  -1.243  1.00  0.00    -0.316 OA
BRANCH  29  30
HETATM   30  C12 UNL     1      19.150  -8.761  -0.042  1.00  0.00     0.255 C 
HETATM   31  C13 UNL     1      20.321  -9.651   0.046  1.00  0.00     0.126 C 
HETATM   32  O2  UNL     1      18.704  -8.149   0.971  1.00  0.00    -0.266 OA
ENDBRANCH  29  30
ENDBRANCH   7  29
BRANCH   1  33
HETATM   33  C4  UNL     1      14.227  -5.550  -6.871  1.00  0.00    -0.021 C 
BRANCH  33  34
HETATM   34  C3  UNL     1      13.701  -6.318  -7.652  1.00  0.00     0.007 C 
BRANCH  34  35
HETATM   35  C2  UNL     1      11.974  -6.259  -8.002  1.00  0.00    -0.046 C 
HETATM   36  C1  UNL     1      11.832  -7.203  -7.217  1.00  0.00     0.023 C 
BRANCH  35  37
HETATM   37  C27 UNL     1      12.138  -5.179  -8.900  1.00  0.00     0.012 C 
HETATM   38  C28 UNL     1      11.242  -5.224  -9.963  1.00  0.00    -0.087 C 
HETATM   39  C29 UNL     1      11.316  -4.143 -10.956  1.00  0.00     0.043 C 
HETATM   40  C30 UNL     1      10.321  -6.352 -10.030  1.00  0.00     0.043 C 
ENDBRANCH  35  37
ENDBRANCH  34  35
ENDBRANCH  33  34
ENDBRANCH   1  33
TORSDOF 10
ENDMDL
MODEL 4
REMARK VINA RESULT: -9.764101843      1.363      2.274
REMARK  10 active torsions:
REMARK  status: ('A' for Active; 'I' for Inactive)
REMARK    1  A    between atoms: C2_2  and  C3_3 
REMARK    2  A    between atoms: C2_2  and  C27_37 
REMARK    3  A    between atoms: C3_3  and  C4_4 
REMARK    4  A    between atoms: C4_4  and  C5_5 
REMARK    5  A    between atoms: C11_11  and  O1_12 
REMARK    6  A    between atoms: O1_12  and  C12_13 
REMARK    7  A    between atoms: C16_18  and  C17_19 
REMARK    8  A    between atoms: C18_21  and  O4_22 
REMARK    9  A    between atoms: C20_25  and  O5_26 
REMARK   10  A    between atoms: C26_34  and  O7_35 
ROOT
HETATM    1  C5  UNL     1      19.617  -7.852  -3.892  1.00  0.00     0.014 C 
HETATM    2  C6  UNL     1      18.640  -6.721  -3.981  1.00  0.00     0.009 C 
HETATM    3  C7  UNL     1      17.336  -7.380  -4.441  1.00  0.00     0.011 C 
HETATM    4  C8  UNL     1      16.592  -6.549  -5.396  1.00  0.00    -0.029 C 
HETATM    5  C9  UNL     1      15.804  -5.549  -4.620  1.00  0.00     0.016 C 
HETATM    6  C10 UNL     1      15.712  -7.502  -6.228  1.00  0.00     0.056 C 
HETATM    7  C11 UNL     1      15.000  -6.508  -7.063  1.00  0.00     0.139 C 
HETATM    8  C14 UNL     1      16.144  -5.525  -7.377  1.00  0.00     0.042 C 
HETATM    9  C15 UNL     1      17.341  -5.997  -6.592  1.00  0.00     0.041 C 
HETATM   10  C16 UNL     1      17.958  -7.206  -7.221  1.00  0.00     0.149 C 
HETATM   11  O6  UNL     1      19.117  -7.707  -6.701  1.00  0.00    -0.334 OA
HETATM   12  C21 UNL     1      20.365  -7.635  -6.317  1.00  0.00     0.050 C 
HETATM   13  C22 UNL     1      21.525  -7.493  -6.984  1.00  0.00    -0.058 C 
HETATM   14  C23 UNL     1      22.825  -7.444  -6.223  1.00  0.00     0.045 C 
HETATM   15  C24 UNL     1      21.664  -7.410  -8.428  1.00  0.00     0.045 C 
HETATM   16  C25 UNL     1      20.698  -7.723  -4.836  1.00  0.00     0.073 C 
HETATM   17  C26 UNL     1      16.770  -8.187  -7.077  1.00  0.00     0.167 C 
ENDROOT
BRANCH  10  18
HETATM   18  C17 UNL     1      18.131  -7.086  -8.714  1.00  0.00     0.127 A 
HETATM   19  O3  UNL     1      17.789  -7.922  -9.623  1.00  0.00    -0.286 OA
HETATM   20  C18 UNL     1      18.086  -7.498 -10.814  1.00  0.00     0.186 A 
HETATM   21  C19 UNL     1      18.681  -6.267 -10.703  1.00  0.00     0.103 A 
HETATM   22  C20 UNL     1      18.703  -6.006  -9.319  1.00  0.00     0.103 A 
BRANCH  20  23
HETATM   23  O4  UNL     1      17.876  -8.117 -12.040  1.00  0.00    -0.341 OA
ATOM     24  H4  UNL     1      17.792  -7.725 -12.901  1.00  0.00     0.220 HD
ENDBRANCH  20  23
BRANCH  22  25
HETATM   25  O5  UNL     1      19.230  -4.822  -8.760  1.00  0.00    -0.358 OA
ATOM     26  H5  UNL     1      18.800  -4.130  -8.273  1.00  0.00     0.217 HD
ENDBRANCH  22  25
ENDBRANCH  10  18
BRANCH  17  27
HETATM   27  O7  UNL     1      16.208  -8.553  -8.299  1.00  0.00    -0.392 OA
ATOM     28  H7  UNL     1      16.845  -9.051  -8.798  1.00  0.00     0.210 HD
ENDBRANCH  17  27
BRANCH   7  29
HETATM   29  O1  UNL     1      13.926  -5.860  -6.393  1.00  0.00    -0.316 OA
BRANCH  29  30
HETATM   30  C12 UNL     1      12.942  -5.167  -7.066  1.00  0.00     0.255 C 
HETATM   31  C13 UNL     1      12.519  -5.578  -8.416  1.00  0.00     0.126 C 
HETATM   32  O2  UNL     1      12.419  -4.175  -6.480  1.00  0.00    -0.266 OA
ENDBRANCH  29  30
ENDBRANCH   7  29
BRANCH   1  33
HETATM   33  C4  UNL     1      20.197  -7.862  -2.431  1.00  0.00    -0.021 C 
BRANCH  33  34
HETATM   34  C3  UNL     1      19.963  -8.847  -1.760  1.00  0.00     0.007 C 
BRANCH  34  35
HETATM   35  C2  UNL     1      19.122  -8.746  -0.213  1.00  0.00    -0.046 C 
HETATM   36  C1  UNL     1      20.187  -9.052   0.332  1.00  0.00     0.023 C 
BRANCH  35  37
HETATM   37  C27 UNL     1      17.903  -8.394  -0.839  1.00  0.00     0.012 C 
HETATM   38  C28 UNL     1      17.382  -7.196  -0.363  1.00  0.00    -0.087 C 
HETATM   39  C29 UNL     1      16.118  -6.727  -0.949  1.00  0.00     0.043 C 
HETATM   40  C30 UNL     1      18.108  -6.512   0.700  1.00  0.00     0.043 C 
ENDBRANCH  35  37
ENDBRANCH  34  35
ENDBRANCH  33  34
ENDBRANCH   1  33
TORSDOF 10
ENDMDL
MODEL 5
REMARK VINA RESULT: -9.674615405      1.844      2.889
REMARK  10 active torsions:
REMARK  status: ('A' for Active; 'I' for Inactive)
REMARK    1  A    between atoms: C2_2  and  C3_3 
REMARK    2  A    between atoms: C2_2  and  C27_37 
REMARK    3  A    between atoms: C3_3  and  C4_4 
REMARK    4  A    between atoms: C4_4  and  C5_5 
REMARK    5  A    between atoms: C11_11  and  O1_12 
REMARK    6  A    between atoms: O1_12  and  C12_13 
REMARK    7  A    between atoms: C16_18  and  C17_19 
REMARK    8  A    between atoms: C18_21  and  O4_22 
REMARK    9  A    between atoms: C20_25  and  O5_26 
REMARK   10  A    between atoms: C26_34  and  O7_35 
ROOT
HETATM    1  C5  UNL     1      17.932  -7.737  -2.929  1.00  0.00     0.014 C 
HETATM    2  C6  UNL     1      17.235  -6.539  -3.493  1.00  0.00     0.009 C 
HETATM    3  C7  UNL     1      16.129  -7.123  -4.378  1.00  0.00     0.011 C 
HETATM    4  C8  UNL     1      15.935  -6.357  -5.615  1.00  0.00    -0.029 C 
HETATM    5  C9  UNL     1      15.059  -5.191  -5.303  1.00  0.00     0.016 C 
HETATM    6  C10 UNL     1      15.318  -7.321  -6.646  1.00  0.00     0.056 C 
HETATM    7  C11 UNL     1      15.130  -6.381  -7.775  1.00  0.00     0.139 C 
HETATM    8  C14 UNL     1      16.433  -5.564  -7.688  1.00  0.00     0.042 C 
HETATM    9  C15 UNL     1      17.156  -6.042  -6.456  1.00  0.00     0.041 C 
HETATM   10  C16 UNL     1      17.790  -7.377  -6.684  1.00  0.00     0.149 C 
HETATM   11  O6  UNL     1      18.577  -7.916  -5.705  1.00  0.00    -0.334 OA
HETATM   12  C21 UNL     1      19.579  -7.915  -4.864  1.00  0.00     0.050 C 
HETATM   13  C22 UNL     1      20.913  -7.975  -5.024  1.00  0.00    -0.058 C 
HETATM   14  C23 UNL     1      21.813  -7.952  -3.814  1.00  0.00     0.045 C 
HETATM   15  C24 UNL     1      21.607  -8.097  -6.294  1.00  0.00     0.045 C 
HETATM   16  C25 UNL     1      19.300  -7.839  -3.371  1.00  0.00     0.073 C 
HETATM   17  C26 UNL     1      16.513  -8.211  -6.944  1.00  0.00     0.167 C 
ENDROOT
BRANCH  10  18
HETATM   18  C17 UNL     1      18.541  -7.473  -7.989  1.00  0.00     0.127 A 
HETATM   19  O3  UNL     1      18.452  -8.378  -8.892  1.00  0.00    -0.286 OA
HETATM   20  C18 UNL     1      19.244  -8.148  -9.894  1.00  0.00     0.186 A 
HETATM   21  C19 UNL     1      19.929  -6.984  -9.651  1.00  0.00     0.103 A 
HETATM   22  C20 UNL     1      19.457  -6.549  -8.397  1.00  0.00     0.103 A 
BRANCH  20  23
HETATM   23  O4  UNL     1      19.429  -8.894 -11.051  1.00  0.00    -0.341 OA
ATOM     24  H4  UNL     1      19.017  -9.711 -11.309  1.00  0.00     0.220 HD
ENDBRANCH  20  23
BRANCH  22  25
HETATM   25  O5  UNL     1      19.901  -5.366  -7.768  1.00  0.00    -0.358 OA
ATOM     26  H5  UNL     1      20.704  -5.188  -7.294  1.00  0.00     0.217 HD
ENDBRANCH  22  25
ENDBRANCH  10  18
BRANCH  17  27
HETATM   27  O7  UNL     1      16.420  -8.679  -8.254  1.00  0.00    -0.392 OA
ATOM     28  H7  UNL     1      17.286  -8.919  -8.562  1.00  0.00     0.210 HD
ENDBRANCH  17  27
BRANCH   7  29
HETATM   29  O1  UNL     1      13.984  -5.550  -7.644  1.00  0.00    -0.316 OA
BRANCH  29  30
HETATM   30  C12 UNL     1      12.733  -5.937  -8.077  1.00  0.00     0.255 C 
HETATM   31  C13 UNL     1      11.995  -5.134  -9.068  1.00  0.00     0.126 C 
HETATM   32  O2  UNL     1      12.251  -7.003  -7.594  1.00  0.00    -0.266 OA
ENDBRANCH  29  30
ENDBRANCH   7  29
BRANCH   1  33
HETATM   33  C4  UNL     1      17.898  -7.611  -1.362  1.00  0.00    -0.021 C 
BRANCH  33  34
HETATM   34  C3  UNL     1      16.838  -7.285  -0.865  1.00  0.00     0.007 C 
BRANCH  34  35
HETATM   35  C2  UNL     1      16.718  -5.970   0.303  1.00  0.00    -0.046 C 
HETATM   36  C1  UNL     1      17.719  -6.436   0.858  1.00  0.00     0.023 C 
BRANCH  35  37
HETATM   37  C27 UNL     1      15.573  -5.437  -0.334  1.00  0.00     0.012 C 
HETATM   38  C28 UNL     1      14.806  -4.648   0.516  1.00  0.00    -0.087 C 
HETATM   39  C29 UNL     1      13.593  -4.034  -0.043  1.00  0.00     0.043 C 
HETATM   40  C30 UNL     1      15.241  -4.515   1.901  1.00  0.00     0.043 C 
ENDBRANCH  35  37
ENDBRANCH  34  35
ENDBRANCH  33  34
ENDBRANCH   1  33
TORSDOF 10
ENDMDL
