MODEL 1
REMARK VINA RESULT: -9.851820862      0.000      0.000
REMARK  6 active torsions:
REMARK  status: ('A' for Active; 'I' for Inactive)
REMARK    1  A    between atoms: C2_2  and  N1_3 
REMARK    2  A    between atoms: N1_3  and  C3_5 
REMARK    3  A    between atoms: C3_5  and  C4_9 
REMARK    4  A    between atoms: C4_9  and  C5_10 
REMARK    5  A    between atoms: C24_30  and  C25_31 
REMARK    6  A    between atoms: C27_34  and  O2_35 
ROOT
HETATM    1  C5  UNL     1      19.228   4.002  -4.399  1.00  0.00     0.131 C 
HETATM    2  C6  UNL     1      19.600   3.901  -2.987  1.00  0.00     0.059 C 
HETATM    3  N3  UNL     1      19.894   3.822  -1.878  1.00  0.00    -0.197 NA
ENDROOT
BRANCH   1   4
HETATM    4  C4  UNL     1      18.966   5.465  -4.716  1.00  0.00     0.089 C 
BRANCH   4   5
HETATM    5  C3  UNL     1      17.667   5.654  -5.395  1.00  0.00     0.073 C 
HETATM    6  N2  UNL     1      17.609   6.456  -6.391  1.00  0.00    -0.389 N 
ATOM      7  H22 UNL     1      16.712   6.587  -6.860  1.00  0.00     0.157 HD
ATOM      8  H21 UNL     1      18.415   6.975  -6.741  1.00  0.00     0.157 HD
BRANCH   5   9
HETATM    9  N1  UNL     1      16.549   4.935  -4.911  1.00  0.00    -0.354 N 
ATOM     10  H1  UNL     1      16.441   3.952  -5.163  1.00  0.00     0.163 HD
BRANCH   9  11
HETATM   11  C2  UNL     1      15.535   5.571  -4.051  1.00  0.00     0.097 C 
HETATM   12  C1  UNL     1      14.304   5.677  -4.973  1.00  0.00     0.062 C 
HETATM   13  C7  UNL     1      15.957   6.936  -3.697  1.00  0.00     0.054 C 
HETATM   14  C8  UNL     1      15.818   7.380  -2.291  1.00  0.00     0.016 C 
HETATM   15  C9  UNL     1      15.620   6.306  -1.268  1.00  0.00    -0.020 C 
HETATM   16  C10 UNL     1      16.995   5.752  -0.863  1.00  0.00     0.018 C 
HETATM   17  C11 UNL     1      15.046   6.945  -0.037  1.00  0.00     0.045 C 
HETATM   18  C30 UNL     1      14.761   5.196  -1.771  1.00  0.00     0.091 C 
HETATM   19  C12 UNL     1      13.859   6.269   0.526  1.00  0.00    -0.076 C 
HETATM   20  C13 UNL     1      12.979   5.579  -0.185  1.00  0.00    -0.075 C 
HETATM   21  C19 UNL     1      13.947   6.571   1.982  1.00  0.00     0.039 C 
HETATM   22  C14 UNL     1      11.734   4.804  -0.003  1.00  0.00     0.038 C 
HETATM   23  C29 UNL     1      13.285   5.520  -1.667  1.00  0.00     0.060 C 
HETATM   24  C15 UNL     1      11.873   3.682   0.978  1.00  0.00     0.039 C 
HETATM   25  C16 UNL     1      11.924   4.128   2.389  1.00  0.00    -0.074 C 
HETATM   26  C17 UNL     1      12.198   5.260   3.027  1.00  0.00    -0.040 C 
HETATM   27  C22 UNL     1      11.585   3.048   3.378  1.00  0.00     0.038 C 
HETATM   28  C18 UNL     1      12.585   6.619   2.612  1.00  0.00     0.042 C 
HETATM   29  C20 UNL     1      12.069   5.050   4.502  1.00  0.00     0.118 A 
HETATM   30  C21 UNL     1      12.292   3.569   4.622  1.00  0.00     0.050 C 
HETATM   31  C23 UNL     1      10.720   5.464   5.018  1.00  0.00     0.105 A 
HETATM   32  O3  UNL     1      12.985   5.811   5.240  1.00  0.00    -0.264 OA
HETATM   33  C24 UNL     1      11.050   6.592   5.926  1.00  0.00     0.047 A 
HETATM   34  N4  UNL     1      12.331   6.728   6.003  1.00  0.00    -0.269 N 
ATOM     35  H4  UNL     1      12.797   7.438   6.569  1.00  0.00     0.194 HD
HETATM   36  N5  UNL     1      15.175   4.681  -3.023  1.00  0.00    -0.392 N 
ATOM     37  H5  UNL     1      15.213   3.674  -3.178  1.00  0.00     0.156 HD
BRANCH  33  38
HETATM   38  C25 UNL     1      10.048   7.400   6.610  1.00  0.00     0.015 A 
HETATM   39  C26 UNL     1      10.091   8.747   6.894  1.00  0.00     0.158 A 
HETATM   40  O1  UNL     1       8.989   9.097   7.525  1.00  0.00    -0.299 OA
HETATM   41  C27 UNL     1       8.210   8.045   7.676  1.00  0.00     0.183 A 
HETATM   42  C28 UNL     1       8.839   6.961   7.115  1.00  0.00     0.079 A 
BRANCH  41  43
HETATM   43  O2  UNL     1       6.979   8.007   8.283  1.00  0.00    -0.341 OA
ATOM     44  H2  UNL     1       6.465   7.235   8.488  1.00  0.00     0.220 HD
ENDBRANCH  41  43
ENDBRANCH  33  38
ENDBRANCH   9  11
ENDBRANCH   5   9
ENDBRANCH   4   5
ENDBRANCH   1   4
TORSDOF 6
ENDMDL
MODEL 2
REMARK VINA RESULT: -9.716954872      1.111      1.481
REMARK  6 active torsions:
REMARK  status: ('A' for Active; 'I' for Inactive)
REMARK    1  A    between atoms: C2_2  and  N1_3 
REMARK    2  A    between atoms: N1_3  and  C3_5 
REMARK    3  A    between atoms: C3_5  and  C4_9 
REMARK    4  A    between atoms: C4_9  and  C5_10 
REMARK    5  A    between atoms: C24_30  and  C25_31 
REMARK    6  A    between atoms: C27_34  and  O2_35 
ROOT
HETATM    1  C5  UNL     1      20.328   6.383  -3.390  1.00  0.00     0.131 C 
HETATM    2  C6  UNL     1      20.977   7.574  -3.940  1.00  0.00     0.059 C 
HETATM    3  N3  UNL     1      21.489   8.509  -4.371  1.00  0.00    -0.197 NA
ENDROOT
BRANCH   1   4
HETATM    4  C4  UNL     1      19.611   5.670  -4.524  1.00  0.00     0.089 C 
BRANCH   4   5
HETATM    5  C3  UNL     1      18.558   4.763  -4.021  1.00  0.00     0.073 C 
HETATM    6  N2  UNL     1      18.878   3.877  -3.153  1.00  0.00    -0.389 N 
ATOM      7  H22 UNL     1      18.151   3.251  -2.806  1.00  0.00     0.157 HD
ATOM      8  H21 UNL     1      19.825   3.766  -2.790  1.00  0.00     0.157 HD
BRANCH   5   9
HETATM    9  N1  UNL     1      17.245   4.918  -4.525  1.00  0.00    -0.354 N 
ATOM     10  H1  UNL     1      17.023   4.564  -5.456  1.00  0.00     0.163 HD
BRANCH   9  11
HETATM   11  C2  UNL     1      16.188   5.578  -3.737  1.00  0.00     0.097 C 
HETATM   12  C1  UNL     1      15.037   5.737  -4.750  1.00  0.00     0.062 C 
HETATM   13  C7  UNL     1      16.626   6.924  -3.333  1.00  0.00     0.054 C 
HETATM   14  C8  UNL     1      16.393   7.356  -1.936  1.00  0.00     0.016 C 
HETATM   15  C9  UNL     1      16.080   6.279  -0.946  1.00  0.00    -0.020 C 
HETATM   16  C10 UNL     1      17.400   5.674  -0.444  1.00  0.00     0.018 C 
HETATM   17  C11 UNL     1      15.433   6.923   0.246  1.00  0.00     0.045 C 
HETATM   18  C30 UNL     1      15.226   5.204  -1.530  1.00  0.00     0.091 C 
HETATM   19  C12 UNL     1      14.183   6.281   0.705  1.00  0.00    -0.076 C 
HETATM   20  C13 UNL     1      13.340   5.630  -0.082  1.00  0.00    -0.075 C 
HETATM   21  C19 UNL     1      14.167   6.563   2.167  1.00  0.00     0.039 C 
HETATM   22  C14 UNL     1      12.060   4.895  -0.008  1.00  0.00     0.038 C 
HETATM   23  C29 UNL     1      13.759   5.576  -1.536  1.00  0.00     0.060 C 
HETATM   24  C15 UNL     1      12.084   3.757   0.965  1.00  0.00     0.039 C 
HETATM   25  C16 UNL     1      12.040   4.186   2.382  1.00  0.00    -0.074 C 
HETATM   26  C17 UNL     1      12.300   5.300   3.055  1.00  0.00    -0.040 C 
HETATM   27  C22 UNL     1      11.589   3.107   3.326  1.00  0.00     0.038 C 
HETATM   28  C18 UNL     1      12.763   6.651   2.690  1.00  0.00     0.042 C 
HETATM   29  C20 UNL     1      12.050   5.079   4.513  1.00  0.00     0.118 A 
HETATM   30  C21 UNL     1      12.214   3.589   4.629  1.00  0.00     0.050 C 
HETATM   31  C23 UNL     1      10.679   5.533   4.928  1.00  0.00     0.105 A 
HETATM   32  O3  UNL     1      12.930   5.799   5.330  1.00  0.00    -0.264 OA
HETATM   33  C24 UNL     1      10.974   6.638   5.874  1.00  0.00     0.047 A 
HETATM   34  N4  UNL     1      12.248   6.730   6.053  1.00  0.00    -0.269 N 
ATOM     35  H4  UNL     1      12.692   7.418   6.662  1.00  0.00     0.194 HD
HETATM   36  N5  UNL     1      15.720   4.690  -2.752  1.00  0.00    -0.392 N 
ATOM     37  H5  UNL     1      15.737   3.683  -2.918  1.00  0.00     0.156 HD
BRANCH  33  38
HETATM   38  C25 UNL     1       9.948   7.472   6.489  1.00  0.00     0.015 A 
HETATM   39  C26 UNL     1       9.851   8.846   6.479  1.00  0.00     0.158 A 
HETATM   40  O1  UNL     1       8.778   9.213   7.151  1.00  0.00    -0.299 OA
HETATM   41  C27 UNL     1       8.154   8.148   7.609  1.00  0.00     0.183 A 
HETATM   42  C28 UNL     1       8.857   7.035   7.216  1.00  0.00     0.079 A 
BRANCH  41  43
HETATM   43  O2  UNL     1       7.001   8.120   8.354  1.00  0.00    -0.341 OA
ATOM     44  H2  UNL     1       6.798   7.535   9.075  1.00  0.00     0.220 HD
ENDBRANCH  41  43
ENDBRANCH  33  38
ENDBRANCH   9  11
ENDBRANCH   5   9
ENDBRANCH   4   5
ENDBRANCH   1   4
TORSDOF 6
ENDMDL
MODEL 3
REMARK VINA RESULT: -9.642264226      1.102      1.677
REMARK  6 active torsions:
REMARK  status: ('A' for Active; 'I' for Inactive)
REMARK    1  A    between atoms: C2_2  and  N1_3 
REMARK    2  A    between atoms: N1_3  and  C3_5 
REMARK    3  A    between atoms: C3_5  and  C4_9 
REMARK    4  A    between atoms: C4_9  and  C5_10 
REMARK    5  A    between atoms: C24_30  and  C25_31 
REMARK    6  A    between atoms: C27_34  and  O2_35 
ROOT
HETATM    1  C5  UNL     1      19.617   6.298  -5.505  1.00  0.00     0.131 C 
HETATM    2  C6  UNL     1      20.329   5.398  -6.414  1.00  0.00     0.059 C 
HETATM    3  N3  UNL     1      20.888   4.693  -7.129  1.00  0.00    -0.197 NA
ENDROOT
BRANCH   1   4
HETATM    4  C4  UNL     1      20.064   5.986  -4.086  1.00  0.00     0.089 C 
BRANCH   4   5
HETATM    5  C3  UNL     1      19.156   5.026  -3.425  1.00  0.00     0.073 C 
HETATM    6  N2  UNL     1      19.612   4.317  -2.461  1.00  0.00    -0.389 N 
ATOM      7  H22 UNL     1      18.985   3.654  -2.005  1.00  0.00     0.157 HD
ATOM      8  H21 UNL     1      20.573   4.381  -2.125  1.00  0.00     0.157 HD
BRANCH   5   9
HETATM    9  N1  UNL     1      17.823   4.938  -3.891  1.00  0.00    -0.354 N 
ATOM     10  H1  UNL     1      17.624   4.396  -4.733  1.00  0.00     0.163 HD
BRANCH   9  11
HETATM   11  C2  UNL     1      16.713   5.608  -3.189  1.00  0.00     0.097 C 
HETATM   12  C1  UNL     1      15.643   5.764  -4.288  1.00  0.00     0.062 C 
HETATM   13  C7  UNL     1      17.125   6.954  -2.762  1.00  0.00     0.054 C 
HETATM   14  C8  UNL     1      16.790   7.398  -1.390  1.00  0.00     0.016 C 
HETATM   15  C9  UNL     1      16.399   6.329  -0.420  1.00  0.00    -0.020 C 
HETATM   16  C10 UNL     1      17.674   5.722   0.185  1.00  0.00     0.018 C 
HETATM   17  C11 UNL     1      15.667   6.984   0.716  1.00  0.00     0.045 C 
HETATM   18  C30 UNL     1      15.586   5.253  -1.059  1.00  0.00     0.091 C 
HETATM   19  C12 UNL     1      14.383   6.351   1.084  1.00  0.00    -0.076 C 
HETATM   20  C13 UNL     1      13.598   5.697   0.240  1.00  0.00    -0.075 C 
HETATM   21  C19 UNL     1      14.258   6.644   2.539  1.00  0.00     0.039 C 
HETATM   22  C14 UNL     1      12.312   4.968   0.223  1.00  0.00     0.038 C 
HETATM   23  C29 UNL     1      14.125   5.632  -1.178  1.00  0.00     0.060 C 
HETATM   24  C15 UNL     1      12.258   3.838   1.202  1.00  0.00     0.039 C 
HETATM   25  C16 UNL     1      12.109   4.277   2.609  1.00  0.00    -0.074 C 
HETATM   26  C17 UNL     1      12.324   5.395   3.292  1.00  0.00    -0.040 C 
HETATM   27  C22 UNL     1      11.583   3.207   3.524  1.00  0.00     0.038 C 
HETATM   28  C18 UNL     1      12.819   6.740   2.954  1.00  0.00     0.042 C 
HETATM   29  C20 UNL     1      11.963   5.185   4.728  1.00  0.00     0.118 A 
HETATM   30  C21 UNL     1      12.111   3.696   4.867  1.00  0.00     0.050 C 
HETATM   31  C23 UNL     1      10.567   5.647   5.036  1.00  0.00     0.105 A 
HETATM   32  O3  UNL     1      12.782   5.907   5.604  1.00  0.00    -0.264 OA
HETATM   33  C24 UNL     1      10.795   6.758   5.994  1.00  0.00     0.047 A 
HETATM   34  N4  UNL     1      12.053   6.846   6.268  1.00  0.00    -0.269 N 
ATOM     35  H4  UNL     1      12.452   7.536   6.904  1.00  0.00     0.194 HD
HETATM   36  N5  UNL     1      16.168   4.729  -2.237  1.00  0.00    -0.392 N 
ATOM     37  H5  UNL     1      16.192   3.721  -2.394  1.00  0.00     0.156 HD
BRANCH  33  38
HETATM   38  C25 UNL     1       9.730   7.601   6.525  1.00  0.00     0.015 A 
HETATM   39  C26 UNL     1       9.523   8.945   6.311  1.00  0.00     0.158 A 
HETATM   40  O1  UNL     1       8.450   9.334   6.970  1.00  0.00    -0.299 OA
HETATM   41  C27 UNL     1       7.930   8.310   7.615  1.00  0.00     0.183 A 
HETATM   42  C28 UNL     1       8.705   7.204   7.362  1.00  0.00     0.079 A 
BRANCH  41  43
HETATM   43  O2  UNL     1       6.811   8.315   8.411  1.00  0.00    -0.341 OA
ATOM     44  H2  UNL     1       6.724   7.940   9.280  1.00  0.00     0.220 HD
ENDBRANCH  41  43
ENDBRANCH  33  38
ENDBRANCH   9  11
ENDBRANCH   5   9
ENDBRANCH   4   5
ENDBRANCH   1   4
TORSDOF 6
ENDMDL
MODEL 4
REMARK VINA RESULT: -9.005426194      0.768      1.602
REMARK  6 active torsions:
REMARK  status: ('A' for Active; 'I' for Inactive)
REMARK    1  A    between atoms: C2_2  and  N1_3 
REMARK    2  A    between atoms: N1_3  and  C3_5 
REMARK    3  A    between atoms: C3_5  and  C4_9 
REMARK    4  A    between atoms: C4_9  and  C5_10 
REMARK    5  A    between atoms: C24_30  and  C25_31 
REMARK    6  A    between atoms: C27_34  and  O2_35 
ROOT
HETATM    1  C5  UNL     1      18.212   6.421  -6.528  1.00  0.00     0.131 C 
HETATM    2  C6  UNL     1      18.444   7.820  -6.166  1.00  0.00     0.059 C 
HETATM    3  N3  UNL     1      18.624   8.919  -5.881  1.00  0.00    -0.197 NA
ENDROOT
BRANCH   1   4
HETATM    4  C4  UNL     1      18.954   5.546  -5.530  1.00  0.00     0.089 C 
BRANCH   4   5
HETATM    5  C3  UNL     1      18.034   4.943  -4.542  1.00  0.00     0.073 C 
HETATM    6  N2  UNL     1      18.521   4.509  -3.440  1.00  0.00    -0.389 N 
ATOM      7  H22 UNL     1      17.886   4.092  -2.758  1.00  0.00     0.157 HD
ATOM      8  H21 UNL     1      19.513   4.558  -3.208  1.00  0.00     0.157 HD
BRANCH   5   9
HETATM    9  N1  UNL     1      16.658   4.875  -4.864  1.00  0.00    -0.354 N 
ATOM     10  H1  UNL     1      16.368   4.375  -5.705  1.00  0.00     0.163 HD
BRANCH   9  11
HETATM   11  C2  UNL     1      15.634   5.507  -4.015  1.00  0.00     0.097 C 
HETATM   12  C1  UNL     1      14.414   5.615  -4.951  1.00  0.00     0.062 C 
HETATM   13  C7  UNL     1      16.049   6.872  -3.653  1.00  0.00     0.054 C 
HETATM   14  C8  UNL     1      15.894   7.313  -2.247  1.00  0.00     0.016 C 
HETATM   15  C9  UNL     1      15.686   6.236  -1.230  1.00  0.00    -0.020 C 
HETATM   16  C10 UNL     1      17.056   5.683  -0.810  1.00  0.00     0.018 C 
HETATM   17  C11 UNL     1      15.097   6.872  -0.003  1.00  0.00     0.045 C 
HETATM   18  C30 UNL     1      14.833   5.126  -1.745  1.00  0.00     0.091 C 
HETATM   19  C12 UNL     1      13.903   6.193   0.544  1.00  0.00    -0.076 C 
HETATM   20  C13 UNL     1      13.033   5.504  -0.179  1.00  0.00    -0.075 C 
HETATM   21  C19 UNL     1      13.974   6.491   2.002  1.00  0.00     0.039 C 
HETATM   22  C14 UNL     1      11.787   4.726  -0.013  1.00  0.00     0.038 C 
HETATM   23  C29 UNL     1      13.357   5.448  -1.657  1.00  0.00     0.060 C 
HETATM   24  C15 UNL     1      11.916   3.602   0.967  1.00  0.00     0.039 C 
HETATM   25  C16 UNL     1      11.950   4.046   2.380  1.00  0.00    -0.074 C 
HETATM   26  C17 UNL     1      12.215   5.176   3.023  1.00  0.00    -0.040 C 
HETATM   27  C22 UNL     1      11.601   2.963   3.362  1.00  0.00     0.038 C 
HETATM   28  C18 UNL     1      12.605   6.536   2.616  1.00  0.00     0.042 C 
HETATM   29  C20 UNL     1      12.070   4.962   4.496  1.00  0.00     0.118 A 
HETATM   30  C21 UNL     1      12.293   3.481   4.615  1.00  0.00     0.050 C 
HETATM   31  C23 UNL     1      10.714   5.374   4.997  1.00  0.00     0.105 A 
HETATM   32  O3  UNL     1      12.976   5.722   5.246  1.00  0.00    -0.264 OA
HETATM   33  C24 UNL     1      11.032   6.499   5.911  1.00  0.00     0.047 A 
HETATM   34  N4  UNL     1      12.312   6.638   6.004  1.00  0.00    -0.269 N 
ATOM     35  H4  UNL     1      12.770   7.347   6.577  1.00  0.00     0.194 HD
HETATM   36  N5  UNL     1      15.263   4.615  -2.993  1.00  0.00    -0.392 N 
ATOM     37  H5  UNL     1      15.304   3.608  -3.150  1.00  0.00     0.156 HD
BRANCH  33  38
HETATM   38  C25 UNL     1      10.021   7.305   6.586  1.00  0.00     0.015 A 
HETATM   39  C26 UNL     1      10.069   8.647   6.893  1.00  0.00     0.158 A 
HETATM   40  O1  UNL     1       8.955   8.996   7.505  1.00  0.00    -0.299 OA
HETATM   41  C27 UNL     1       8.164   7.948   7.620  1.00  0.00     0.183 A 
HETATM   42  C28 UNL     1       8.798   6.867   7.056  1.00  0.00     0.079 A 
BRANCH  41  43
HETATM   43  O2  UNL     1       6.919   7.910   8.199  1.00  0.00    -0.341 OA
ATOM     44  H2  UNL     1       6.720   7.834   9.124  1.00  0.00     0.220 HD
ENDBRANCH  41  43
ENDBRANCH  33  38
ENDBRANCH   9  11
ENDBRANCH   5   9
ENDBRANCH   4   5
ENDBRANCH   1   4
TORSDOF 6
ENDMDL
MODEL 5
REMARK VINA RESULT: -8.788852874      5.593      8.378
REMARK  6 active torsions:
REMARK  status: ('A' for Active; 'I' for Inactive)
REMARK    1  A    between atoms: C2_2  and  N1_3 
REMARK    2  A    between atoms: N1_3  and  C3_5 
REMARK    3  A    between atoms: C3_5  and  C4_9 
REMARK    4  A    between atoms: C4_9  and  C5_10 
REMARK    5  A    between atoms: C24_30  and  C25_31 
REMARK    6  A    between atoms: C27_34  and  O2_35 
ROOT
HETATM    1  C5  UNL     1      15.022  -5.011   1.569  1.00  0.00     0.131 C 
HETATM    2  C6  UNL     1      15.502  -5.161   0.194  1.00  0.00     0.059 C 
HETATM    3  N3  UNL     1      15.879  -5.280  -0.886  1.00  0.00    -0.197 NA
ENDROOT
BRANCH   1   4
HETATM    4  C4  UNL     1      14.196  -3.737   1.645  1.00  0.00     0.089 C 
BRANCH   4   5
HETATM    5  C3  UNL     1      12.781  -4.020   1.962  1.00  0.00     0.073 C 
HETATM    6  N2  UNL     1      12.236  -5.060   1.451  1.00  0.00    -0.389 N 
ATOM      7  H22 UNL     1      11.259  -5.255   1.669  1.00  0.00     0.157 HD
ATOM      8  H21 UNL     1      12.730  -5.704   0.833  1.00  0.00     0.157 HD
BRANCH   5   9
HETATM    9  N1  UNL     1      12.096  -3.127   2.820  1.00  0.00    -0.354 N 
ATOM     10  H1  UNL     1      11.983  -3.370   3.804  1.00  0.00     0.163 HD
BRANCH   9  11
HETATM   11  C2  UNL     1      11.543  -1.853   2.326  1.00  0.00     0.097 C 
HETATM   12  C1  UNL     1      10.130  -1.818   2.940  1.00  0.00     0.062 C 
HETATM   13  C7  UNL     1      11.400  -1.898   0.862  1.00  0.00     0.054 C 
HETATM   14  C8  UNL     1      11.848  -0.731   0.068  1.00  0.00     0.016 C 
HETATM   15  C9  UNL     1      12.749   0.242   0.761  1.00  0.00    -0.020 C 
HETATM   16  C10 UNL     1      14.195  -0.268   0.658  1.00  0.00     0.018 C 
HETATM   17  C11 UNL     1      12.704   1.534  -0.003  1.00  0.00     0.045 C 
HETATM   18  C30 UNL     1      12.384   0.430   2.195  1.00  0.00     0.091 C 
HETATM   19  C12 UNL     1      12.475   2.741   0.819  1.00  0.00    -0.076 C 
HETATM   20  C13 UNL     1      11.791   2.759   1.953  1.00  0.00    -0.075 C 
HETATM   21  C19 UNL     1      13.175   3.814   0.059  1.00  0.00     0.039 C 
HETATM   22  C14 UNL     1      11.365   3.708   3.003  1.00  0.00     0.038 C 
HETATM   23  C29 UNL     1      11.245   1.411   2.374  1.00  0.00     0.060 C 
HETATM   24  C15 UNL     1      12.505   4.441   3.639  1.00  0.00     0.039 C 
HETATM   25  C16 UNL     1      13.088   5.495   2.777  1.00  0.00    -0.074 C 
HETATM   26  C17 UNL     1      13.100   5.775   1.479  1.00  0.00    -0.040 C 
HETATM   27  C22 UNL     1      13.874   6.529   3.534  1.00  0.00     0.038 C 
HETATM   28  C18 UNL     1      12.525   5.149   0.276  1.00  0.00     0.042 C 
HETATM   29  C20 UNL     1      13.893   7.020   1.240  1.00  0.00     0.118 A 
HETATM   30  C21 UNL     1      14.799   7.042   2.438  1.00  0.00     0.050 C 
HETATM   31  C23 UNL     1      13.021   8.241   1.165  1.00  0.00     0.105 A 
HETATM   32  O3  UNL     1      14.584   6.997   0.022  1.00  0.00    -0.264 OA
HETATM   33  C24 UNL     1      13.218   8.698  -0.234  1.00  0.00     0.047 A 
HETATM   34  N4  UNL     1      14.104   7.960  -0.813  1.00  0.00    -0.269 N 
ATOM     35  H4  UNL     1      14.408   8.082  -1.779  1.00  0.00     0.194 HD
HETATM   36  N5  UNL     1      12.248  -0.785   2.908  1.00  0.00    -0.392 N 
ATOM     37  H5  UNL     1      12.657  -0.884   3.837  1.00  0.00     0.156 HD
BRANCH  33  38
HETATM   38  C25 UNL     1      12.500   9.819  -0.828  1.00  0.00     0.015 A 
HETATM   39  C26 UNL     1      11.957  10.914  -0.194  1.00  0.00     0.158 A 
HETATM   40  O1  UNL     1      11.389  11.701  -1.086  1.00  0.00    -0.299 OA
HETATM   41  C27 UNL     1      11.528  11.181  -2.289  1.00  0.00     0.183 A 
HETATM   42  C28 UNL     1      12.219  10.000  -2.169  1.00  0.00     0.079 A 
BRANCH  41  43
HETATM   43  O2  UNL     1      11.072  11.704  -3.474  1.00  0.00    -0.341 OA
ATOM     44  H2  UNL     1      10.337  11.396  -3.991  1.00  0.00     0.220 HD
ENDBRANCH  41  43
ENDBRANCH  33  38
ENDBRANCH   9  11
ENDBRANCH   5   9
ENDBRANCH   4   5
ENDBRANCH   1   4
TORSDOF 6
ENDMDL
