MODEL 1
REMARK VINA RESULT: -10.592502120      0.000      0.000
REMARK  8 active torsions:
REMARK  status: ('A' for Active; 'I' for Inactive)
REMARK    1  A    between atoms: C5_5  and  O1_6 
REMARK    2  A    between atoms: C11_13  and  O2_14 
REMARK    3  A    between atoms: O2_14  and  O3_15 
REMARK    4  A    between atoms: C12_18  and  O5_19 
REMARK    5  A    between atoms: O5_19  and  C13_20 
REMARK    6  A    between atoms: C16_23  and  N1_24 
REMARK    7  A    between atoms: N1_24  and  C17_26 
REMARK    8  A    between atoms: C23_32  and  O6_33 
ROOT
HETATM    1  C1  UNL     1      19.980 -10.240  -0.231  1.00  0.00     0.016 C 
HETATM    2  C2  UNL     1      19.490  -8.879   0.228  1.00  0.00    -0.033 C 
HETATM    3  C3  UNL     1      19.708  -8.808   1.717  1.00  0.00     0.012 C 
HETATM    4  C4  UNL     1      19.564  -7.445   2.304  1.00  0.00     0.032 C 
HETATM    5  C5  UNL     1      20.338  -6.376   1.562  1.00  0.00     0.119 C 
HETATM    6  C6  UNL     1      20.104  -6.464   0.067  1.00  0.00     0.046 C 
HETATM    7  C7  UNL     1      20.312  -7.835  -0.467  1.00  0.00    -0.011 C 
HETATM    8  C8  UNL     1      21.786  -8.173  -0.403  1.00  0.00     0.021 C 
HETATM    9  C9  UNL     1      19.943  -7.871  -1.914  1.00  0.00    -0.064 C 
HETATM   10  C10 UNL     1      20.571  -8.065  -3.059  1.00  0.00     0.048 C 
HETATM   11  C11 UNL     1      19.655  -7.988  -4.225  1.00  0.00     0.226 C 
HETATM   12  O4  UNL     1      20.068  -7.119  -5.188  1.00  0.00    -0.318 OA
HETATM   13  C12 UNL     1      19.303  -5.966  -5.167  1.00  0.00     0.271 C 
HETATM   14  C25 UNL     1      18.299  -6.075  -4.076  1.00  0.00     0.077 C 
HETATM   15  C26 UNL     1      18.368  -7.522  -3.651  1.00  0.00     0.031 C 
HETATM   16  C27 UNL     1      17.175  -8.281  -4.210  1.00  0.00     0.022 C 
HETATM   17  C28 UNL     1      18.480  -7.623  -2.179  1.00  0.00     0.029 C 
HETATM   18  C29 UNL     1      17.662  -8.681  -1.508  1.00  0.00     0.011 C 
HETATM   19  C30 UNL     1      18.032  -8.742  -0.036  1.00  0.00     0.011 C 
ENDROOT
BRANCH  13  20
HETATM   20  O5  UNL     1      18.624  -5.750  -6.366  1.00  0.00    -0.320 OA
BRANCH  20  21
HETATM   21  C13 UNL     1      17.333  -6.130  -6.639  1.00  0.00     0.074 A 
HETATM   22  C14 UNL     1      16.302  -5.181  -6.499  1.00  0.00     0.039 A 
HETATM   23  C15 UNL     1      15.022  -5.566  -6.773  1.00  0.00     0.035 A 
HETATM   24  C16 UNL     1      14.677  -6.833  -7.180  1.00  0.00     0.062 A 
HETATM   25  C23 UNL     1      15.684  -7.757  -7.316  1.00  0.00     0.094 A 
HETATM   26  C24 UNL     1      16.986  -7.396  -7.047  1.00  0.00     0.075 A 
BRANCH  24  27
HETATM   27  N1  UNL     1      13.359  -7.199  -7.482  1.00  0.00    -0.383 N 
ATOM     28  H1  UNL     1      13.186  -8.064  -7.995  1.00  0.00     0.160 HD
BRANCH  27  29
HETATM   29  C17 UNL     1      12.244  -6.380  -7.085  1.00  0.00     0.081 C 
HETATM   30  C18 UNL     1      10.966  -7.075  -7.410  1.00  0.00     0.025 C 
HETATM   31  C19 UNL     1      10.876  -7.189  -8.941  1.00  0.00     0.002 C 
HETATM   32  C20 UNL     1      10.826  -5.785  -9.481  1.00  0.00     0.000 C 
HETATM   33  C21 UNL     1      12.094  -5.019  -9.144  1.00  0.00     0.002 C 
HETATM   34  C22 UNL     1      12.361  -4.994  -7.677  1.00  0.00     0.025 C 
ENDBRANCH  27  29
ENDBRANCH  24  27
BRANCH  25  35
HETATM   35  O6  UNL     1      15.372  -9.036  -7.723  1.00  0.00    -0.358 OA
ATOM     36  H6  UNL     1      15.986  -9.740  -7.550  1.00  0.00     0.217 HD
ENDBRANCH  25  35
ENDBRANCH  20  21
ENDBRANCH  13  20
BRANCH  11  37
HETATM   37  O2  UNL     1      19.421  -9.279  -4.750  1.00  0.00    -0.198 OA
BRANCH  37  38
HETATM   38  O3  UNL     1      20.116  -9.389  -5.856  1.00  0.00    -0.247 OA
ATOM     39  H3  UNL     1      19.778 -10.138  -6.334  1.00  0.00     0.253 HD
ENDBRANCH  37  38
ENDBRANCH  11  37
BRANCH   5  40
HETATM   40  O1  UNL     1      21.671  -6.422   1.899  1.00  0.00    -0.396 OA
ATOM     41  H1  UNL     1      22.214  -6.290   1.131  1.00  0.00     0.210 HD
ENDBRANCH   5  40
TORSDOF 8
ENDMDL
MODEL 2
REMARK VINA RESULT: -10.561779225      0.974      1.279
REMARK  8 active torsions:
REMARK  status: ('A' for Active; 'I' for Inactive)
REMARK    1  A    between atoms: C5_5  and  O1_6 
REMARK    2  A    between atoms: C11_13  and  O2_14 
REMARK    3  A    between atoms: O2_14  and  O3_15 
REMARK    4  A    between atoms: C12_18  and  O5_19 
REMARK    5  A    between atoms: O5_19  and  C13_20 
REMARK    6  A    between atoms: C16_23  and  N1_24 
REMARK    7  A    between atoms: N1_24  and  C17_26 
REMARK    8  A    between atoms: C23_32  and  O6_33 
ROOT
HETATM    1  C1  UNL     1      19.967 -10.205  -0.371  1.00  0.00     0.016 C 
HETATM    2  C2  UNL     1      19.392  -8.882   0.097  1.00  0.00    -0.033 C 
HETATM    3  C3  UNL     1      19.598  -8.811   1.588  1.00  0.00     0.012 C 
HETATM    4  C4  UNL     1      19.367  -7.465   2.187  1.00  0.00     0.032 C 
HETATM    5  C5  UNL     1      20.076  -6.343   1.458  1.00  0.00     0.119 C 
HETATM    6  C6  UNL     1      19.853  -6.431  -0.040  1.00  0.00     0.046 C 
HETATM    7  C7  UNL     1      20.149  -7.782  -0.584  1.00  0.00    -0.011 C 
HETATM    8  C8  UNL     1      21.641  -8.028  -0.517  1.00  0.00     0.021 C 
HETATM    9  C9  UNL     1      19.789  -7.828  -2.034  1.00  0.00    -0.064 C 
HETATM   10  C10 UNL     1      20.432  -7.971  -3.178  1.00  0.00     0.048 C 
HETATM   11  C11 UNL     1      19.518  -7.942  -4.346  1.00  0.00     0.226 C 
HETATM   12  O4  UNL     1      19.879  -7.040  -5.300  1.00  0.00    -0.318 OA
HETATM   13  C12 UNL     1      19.043  -5.938  -5.273  1.00  0.00     0.271 C 
HETATM   14  C25 UNL     1      18.044  -6.119  -4.187  1.00  0.00     0.077 C 
HETATM   15  C26 UNL     1      18.202  -7.563  -3.774  1.00  0.00     0.031 C 
HETATM   16  C27 UNL     1      17.061  -8.389  -4.346  1.00  0.00     0.022 C 
HETATM   17  C28 UNL     1      18.314  -7.669  -2.303  1.00  0.00     0.029 C 
HETATM   18  C29 UNL     1      17.562  -8.783  -1.645  1.00  0.00     0.011 C 
HETATM   19  C30 UNL     1      17.929  -8.833  -0.172  1.00  0.00     0.011 C 
ENDROOT
BRANCH  13  20
HETATM   20  O5  UNL     1      18.357  -5.753  -6.472  1.00  0.00    -0.320 OA
BRANCH  20  21
HETATM   21  C13 UNL     1      17.008  -5.924  -6.662  1.00  0.00     0.074 A 
HETATM   22  C14 UNL     1      16.567  -6.959  -7.509  1.00  0.00     0.039 A 
HETATM   23  C15 UNL     1      15.225  -7.123  -7.692  1.00  0.00     0.035 A 
HETATM   24  C16 UNL     1      14.271  -6.332  -7.095  1.00  0.00     0.062 A 
HETATM   25  C23 UNL     1      14.704  -5.323  -6.269  1.00  0.00     0.094 A 
HETATM   26  C24 UNL     1      16.052  -5.135  -6.065  1.00  0.00     0.075 A 
BRANCH  24  27
HETATM   27  N1  UNL     1      12.897  -6.535  -7.275  1.00  0.00    -0.383 N 
ATOM     28  H1  UNL     1      12.517  -7.478  -7.194  1.00  0.00     0.160 HD
BRANCH  27  29
HETATM   29  C17 UNL     1      12.011  -5.440  -7.573  1.00  0.00     0.081 C 
HETATM   30  C18 UNL     1      10.603  -5.842  -7.294  1.00  0.00     0.025 C 
HETATM   31  C19 UNL     1      10.233  -6.959  -8.284  1.00  0.00     0.002 C 
HETATM   32  C20 UNL     1      10.313  -6.363  -9.664  1.00  0.00     0.000 C 
HETATM   33  C21 UNL     1      11.725  -5.904  -9.986  1.00  0.00     0.002 C 
HETATM   34  C22 UNL     1      12.242  -4.932  -8.978  1.00  0.00     0.025 C 
ENDBRANCH  27  29
ENDBRANCH  24  27
BRANCH  25  35
HETATM   35  O6  UNL     1      13.773  -4.513  -5.654  1.00  0.00    -0.358 OA
ATOM     36  H6  UNL     1      13.752  -3.587  -5.868  1.00  0.00     0.217 HD
ENDBRANCH  25  35
ENDBRANCH  20  21
ENDBRANCH  13  20
BRANCH  11  37
HETATM   37  O2  UNL     1      19.367  -9.240  -4.884  1.00  0.00    -0.198 OA
BRANCH  37  38
HETATM   38  O3  UNL     1      20.553  -9.652  -5.265  1.00  0.00    -0.247 OA
ATOM     39  H3  UNL     1      20.509 -10.595  -5.369  1.00  0.00     0.253 HD
ENDBRANCH  37  38
ENDBRANCH  11  37
BRANCH   5  40
HETATM   40  O1  UNL     1      21.407  -6.309   1.800  1.00  0.00    -0.396 OA
ATOM     41  H1  UNL     1      21.939  -6.688   1.111  1.00  0.00     0.210 HD
ENDBRANCH   5  40
TORSDOF 8
ENDMDL
MODEL 3
REMARK VINA RESULT: -9.910918591      1.498      2.208
REMARK  8 active torsions:
REMARK  status: ('A' for Active; 'I' for Inactive)
REMARK    1  A    between atoms: C5_5  and  O1_6 
REMARK    2  A    between atoms: C11_13  and  O2_14 
REMARK    3  A    between atoms: O2_14  and  O3_15 
REMARK    4  A    between atoms: C12_18  and  O5_19 
REMARK    5  A    between atoms: O5_19  and  C13_20 
REMARK    6  A    between atoms: C16_23  and  N1_24 
REMARK    7  A    between atoms: N1_24  and  C17_26 
REMARK    8  A    between atoms: C23_32  and  O6_33 
ROOT
HETATM    1  C1  UNL     1      22.542  -8.357  -0.162  1.00  0.00     0.016 C 
HETATM    2  C2  UNL     1      21.119  -8.746   0.196  1.00  0.00    -0.033 C 
HETATM    3  C3  UNL     1      21.115  -9.117   1.656  1.00  0.00     0.012 C 
HETATM    4  C4  UNL     1      19.760  -9.243   2.265  1.00  0.00     0.032 C 
HETATM    5  C5  UNL     1      18.848  -8.070   1.971  1.00  0.00     0.119 C 
HETATM    6  C6  UNL     1      18.865  -7.715   0.497  1.00  0.00     0.046 C 
HETATM    7  C7  UNL     1      20.242  -7.553  -0.038  1.00  0.00    -0.011 C 
HETATM    8  C8  UNL     1      20.858  -6.302   0.550  1.00  0.00     0.021 C 
HETATM    9  C9  UNL     1      20.183  -7.330  -1.514  1.00  0.00    -0.064 C 
HETATM   10  C10 UNL     1      20.476  -6.349  -2.348  1.00  0.00     0.048 C 
HETATM   11  C11 UNL     1      20.206  -6.710  -3.762  1.00  0.00     0.226 C 
HETATM   12  O4  UNL     1      19.417  -5.813  -4.415  1.00  0.00    -0.318 OA
HETATM   13  C12 UNL     1      18.140  -6.316  -4.583  1.00  0.00     0.271 C 
HETATM   14  C25 UNL     1      18.070  -7.668  -3.968  1.00  0.00     0.077 C 
HETATM   15  C26 UNL     1      19.510  -8.019  -3.680  1.00  0.00     0.031 C 
HETATM   16  C27 UNL     1      20.016  -9.011  -4.716  1.00  0.00     0.022 C 
HETATM   17  C28 UNL     1      19.654  -8.508  -2.291  1.00  0.00     0.029 C 
HETATM   18  C29 UNL     1      20.546  -9.691  -2.078  1.00  0.00     0.011 C 
HETATM   19  C30 UNL     1      20.700  -9.940  -0.588  1.00  0.00     0.011 C 
ENDROOT
BRANCH  13  20
HETATM   20  O5  UNL     1      17.778  -6.427  -5.925  1.00  0.00    -0.320 OA
BRANCH  20  21
HETATM   21  C13 UNL     1      16.494  -6.440  -6.413  1.00  0.00     0.074 A 
HETATM   22  C14 UNL     1      16.154  -7.387  -7.400  1.00  0.00     0.039 A 
HETATM   23  C15 UNL     1      14.877  -7.395  -7.880  1.00  0.00     0.035 A 
HETATM   24  C16 UNL     1      13.897  -6.528  -7.456  1.00  0.00     0.062 A 
HETATM   25  C23 UNL     1      14.231  -5.606  -6.494  1.00  0.00     0.094 A 
HETATM   26  C24 UNL     1      15.512  -5.576  -5.990  1.00  0.00     0.075 A 
BRANCH  24  27
HETATM   27  N1  UNL     1      12.585  -6.572  -7.943  1.00  0.00    -0.383 N 
ATOM     28  H1  UNL     1      12.144  -7.477  -8.111  1.00  0.00     0.160 HD
BRANCH  27  29
HETATM   29  C17 UNL     1      11.844  -5.367  -8.212  1.00  0.00     0.081 C 
HETATM   30  C18 UNL     1      10.430  -5.535  -7.772  1.00  0.00     0.025 C 
HETATM   31  C19 UNL     1       9.794  -6.621  -8.655  1.00  0.00     0.002 C 
HETATM   32  C20 UNL     1       9.814  -6.101 -10.068  1.00  0.00     0.000 C 
HETATM   33  C21 UNL     1      11.236  -5.878 -10.554  1.00  0.00     0.002 C 
HETATM   34  C22 UNL     1      11.997  -4.958  -9.659  1.00  0.00     0.025 C 
ENDBRANCH  27  29
ENDBRANCH  24  27
BRANCH  25  35
HETATM   35  O6  UNL     1      13.271  -4.725  -6.046  1.00  0.00    -0.358 OA
ATOM     36  H6  UNL     1      13.541  -3.954  -5.560  1.00  0.00     0.217 HD
ENDBRANCH  25  35
ENDBRANCH  20  21
ENDBRANCH  13  20
BRANCH  11  37
HETATM   37  O2  UNL     1      21.419  -6.938  -4.449  1.00  0.00    -0.198 OA
BRANCH  37  38
HETATM   38  O3  UNL     1      21.817  -5.791  -4.944  1.00  0.00    -0.247 OA
ATOM     39  H3  UNL     1      22.733  -5.681  -4.715  1.00  0.00     0.253 HD
ENDBRANCH  37  38
ENDBRANCH  11  37
BRANCH   5  40
HETATM   40  O1  UNL     1      19.155  -7.004   2.782  1.00  0.00    -0.396 OA
ATOM     41  H1  UNL     1      20.094  -6.941   2.911  1.00  0.00     0.210 HD
ENDBRANCH   5  40
TORSDOF 8
ENDMDL
MODEL 4
REMARK VINA RESULT: -9.676278698      5.849      8.040
REMARK  8 active torsions:
REMARK  status: ('A' for Active; 'I' for Inactive)
REMARK    1  A    between atoms: C5_5  and  O1_6 
REMARK    2  A    between atoms: C11_13  and  O2_14 
REMARK    3  A    between atoms: O2_14  and  O3_15 
REMARK    4  A    between atoms: C12_18  and  O5_19 
REMARK    5  A    between atoms: O5_19  and  C13_20 
REMARK    6  A    between atoms: C16_23  and  N1_24 
REMARK    7  A    between atoms: N1_24  and  C17_26 
REMARK    8  A    between atoms: C23_32  and  O6_33 
ROOT
HETATM    1  C1  UNL     1      21.378  -9.140  -3.719  1.00  0.00     0.016 C 
HETATM    2  C2  UNL     1      21.078  -7.724  -4.177  1.00  0.00    -0.033 C 
HETATM    3  C3  UNL     1      21.873  -7.487  -5.434  1.00  0.00     0.012 C 
HETATM    4  C4  UNL     1      21.487  -6.264  -6.195  1.00  0.00     0.032 C 
HETATM    5  C5  UNL     1      19.996  -6.136  -6.428  1.00  0.00     0.119 C 
HETATM    6  C6  UNL     1      19.216  -6.376  -5.151  1.00  0.00     0.046 C 
HETATM    7  C7  UNL     1      19.609  -7.635  -4.467  1.00  0.00    -0.011 C 
HETATM    8  C8  UNL     1      19.147  -8.814  -5.294  1.00  0.00     0.021 C 
HETATM    9  C9  UNL     1      18.892  -7.740  -3.160  1.00  0.00    -0.064 C 
HETATM   10  C10 UNL     1      17.984  -8.535  -2.626  1.00  0.00     0.048 C 
HETATM   11  C11 UNL     1      17.640  -8.146  -1.236  1.00  0.00     0.226 C 
HETATM   12  O4  UNL     1      16.304  -7.981  -1.029  1.00  0.00    -0.318 OA
HETATM   13  C12 UNL     1      15.986  -6.638  -0.934  1.00  0.00     0.271 C 
HETATM   14  C25 UNL     1      17.225  -5.836  -1.111  1.00  0.00     0.077 C 
HETATM   15  C26 UNL     1      18.339  -6.853  -1.033  1.00  0.00     0.031 C 
HETATM   16  C27 UNL     1      19.019  -6.767   0.325  1.00  0.00     0.022 C 
HETATM   17  C28 UNL     1      19.278  -6.677  -2.163  1.00  0.00     0.029 C 
HETATM   18  C29 UNL     1      20.738  -6.785  -1.854  1.00  0.00     0.011 C 
HETATM   19  C30 UNL     1      21.529  -6.745  -3.150  1.00  0.00     0.011 C 
ENDROOT
BRANCH  13  20
HETATM   20  O5  UNL     1      15.422  -6.305   0.297  1.00  0.00    -0.320 OA
BRANCH  20  21
HETATM   21  C13 UNL     1      14.829  -5.108   0.613  1.00  0.00     0.074 A 
HETATM   22  C14 UNL     1      14.669  -4.767   1.970  1.00  0.00     0.039 A 
HETATM   23  C15 UNL     1      14.079  -3.575   2.276  1.00  0.00     0.035 A 
HETATM   24  C16 UNL     1      13.628  -2.682   1.332  1.00  0.00     0.062 A 
HETATM   25  C23 UNL     1      13.785  -3.017   0.009  1.00  0.00     0.094 A 
HETATM   26  C24 UNL     1      14.378  -4.213  -0.329  1.00  0.00     0.075 A 
BRANCH  24  27
HETATM   27  N1  UNL     1      13.050  -1.452   1.668  1.00  0.00    -0.383 N 
ATOM     28  H1  UNL     1      13.432  -0.594   1.269  1.00  0.00     0.160 HD
BRANCH  27  29
HETATM   29  C17 UNL     1      11.926  -1.372   2.566  1.00  0.00     0.081 C 
HETATM   30  C18 UNL     1      10.981  -0.319   2.097  1.00  0.00     0.025 C 
HETATM   31  C19 UNL     1      11.700   1.035   2.208  1.00  0.00     0.002 C 
HETATM   32  C20 UNL     1      11.999   1.253   3.667  1.00  0.00     0.000 C 
HETATM   33  C21 UNL     1      12.934   0.183   4.205  1.00  0.00     0.002 C 
HETATM   34  C22 UNL     1      12.395  -1.192   3.992  1.00  0.00     0.025 C 
ENDBRANCH  27  29
ENDBRANCH  24  27
BRANCH  25  35
HETATM   35  O6  UNL     1      13.344  -2.144  -0.962  1.00  0.00    -0.358 OA
ATOM     36  H6  UNL     1      12.410  -2.015  -1.079  1.00  0.00     0.217 HD
ENDBRANCH  25  35
ENDBRANCH  20  21
ENDBRANCH  13  20
BRANCH  11  37
HETATM   37  O2  UNL     1      18.203  -9.060  -0.318  1.00  0.00    -0.198 OA
BRANCH  37  38
HETATM   38  O3  UNL     1      17.215  -9.659   0.303  1.00  0.00    -0.247 OA
ATOM     39  H3  UNL     1      17.167  -9.300   1.181  1.00  0.00     0.253 HD
ENDBRANCH  37  38
ENDBRANCH  11  37
BRANCH   5  40
HETATM   40  O1  UNL     1      19.597  -6.951  -7.462  1.00  0.00    -0.396 OA
ATOM     41  H1  UNL     1      18.673  -7.159  -7.385  1.00  0.00     0.210 HD
ENDBRANCH   5  40
TORSDOF 8
ENDMDL
MODEL 5
REMARK VINA RESULT: -9.593570124      3.067      4.852
REMARK  8 active torsions:
REMARK  status: ('A' for Active; 'I' for Inactive)
REMARK    1  A    between atoms: C5_5  and  O1_6 
REMARK    2  A    between atoms: C11_13  and  O2_14 
REMARK    3  A    between atoms: O2_14  and  O3_15 
REMARK    4  A    between atoms: C12_18  and  O5_19 
REMARK    5  A    between atoms: O5_19  and  C13_20 
REMARK    6  A    between atoms: C16_23  and  N1_24 
REMARK    7  A    between atoms: N1_24  and  C17_26 
REMARK    8  A    between atoms: C23_32  and  O6_33 
ROOT
HETATM    1  C1  UNL     1      21.440  -6.975  -1.358  1.00  0.00     0.016 C 
HETATM    2  C2  UNL     1      20.636  -8.222  -1.039  1.00  0.00    -0.033 C 
HETATM    3  C3  UNL     1      21.076  -8.698   0.321  1.00  0.00     0.012 C 
HETATM    4  C4  UNL     1      20.197  -9.734   0.934  1.00  0.00     0.032 C 
HETATM    5  C5  UNL     1      18.725  -9.383   0.901  1.00  0.00     0.119 C 
HETATM    6  C6  UNL     1      18.302  -8.909  -0.476  1.00  0.00     0.046 C 
HETATM    7  C7  UNL     1      19.186  -7.841  -1.010  1.00  0.00    -0.011 C 
HETATM    8  C8  UNL     1      18.973  -6.574  -0.210  1.00  0.00     0.021 C 
HETATM    9  C9  UNL     1      18.786  -7.515  -2.413  1.00  0.00    -0.064 C 
HETATM   10  C10 UNL     1      18.283  -6.473  -3.049  1.00  0.00     0.048 C 
HETATM   11  C11 UNL     1      18.092  -6.735  -4.497  1.00  0.00     0.226 C 
HETATM   12  O4  UNL     1      16.832  -6.467  -4.940  1.00  0.00    -0.318 OA
HETATM   13  C12 UNL     1      16.133  -7.640  -5.163  1.00  0.00     0.271 C 
HETATM   14  C25 UNL     1      17.007  -8.794  -4.821  1.00  0.00     0.077 C 
HETATM   15  C26 UNL     1      18.377  -8.183  -4.650  1.00  0.00     0.031 C 
HETATM   16  C27 UNL     1      19.230  -8.481  -5.873  1.00  0.00     0.022 C 
HETATM   17  C28 UNL     1      18.994  -8.646  -3.387  1.00  0.00     0.029 C 
HETATM   18  C29 UNL     1      20.445  -9.007  -3.434  1.00  0.00     0.011 C 
HETATM   19  C30 UNL     1      20.936  -9.294  -2.026  1.00  0.00     0.011 C 
ENDROOT
BRANCH  13  20
HETATM   20  O5  UNL     1      15.726  -7.779  -6.490  1.00  0.00    -0.320 OA
BRANCH  20  21
HETATM   21  C13 UNL     1      16.387  -7.291  -7.589  1.00  0.00     0.074 A 
HETATM   22  C14 UNL     1      16.141  -5.965  -7.997  1.00  0.00     0.039 A 
HETATM   23  C15 UNL     1      16.803  -5.487  -9.090  1.00  0.00     0.035 A 
HETATM   24  C16 UNL     1      17.700  -6.228  -9.823  1.00  0.00     0.062 A 
HETATM   25  C23 UNL     1      17.939  -7.521  -9.424  1.00  0.00     0.094 A 
HETATM   26  C24 UNL     1      17.286  -8.029  -8.323  1.00  0.00     0.075 A 
BRANCH  24  27
HETATM   27  N1  UNL     1      18.389  -5.708 -10.926  1.00  0.00    -0.383 N 
ATOM     28  H1  UNL     1      18.335  -6.194 -11.822  1.00  0.00     0.160 HD
BRANCH  27  29
HETATM   29  C17 UNL     1      19.171  -4.504 -10.822  1.00  0.00     0.081 C 
HETATM   30  C18 UNL     1      19.629  -4.081 -12.176  1.00  0.00     0.025 C 
HETATM   31  C19 UNL     1      20.591  -5.160 -12.699  1.00  0.00     0.002 C 
HETATM   32  C20 UNL     1      21.771  -5.183 -11.763  1.00  0.00     0.000 C 
HETATM   33  C21 UNL     1      21.351  -5.574 -10.356  1.00  0.00     0.002 C 
HETATM   34  C22 UNL     1      20.288  -4.677  -9.818  1.00  0.00     0.025 C 
ENDBRANCH  27  29
ENDBRANCH  24  27
BRANCH  25  35
HETATM   35  O6  UNL     1      18.833  -8.290 -10.137  1.00  0.00    -0.358 OA
ATOM     36  H6  UNL     1      19.609  -7.878 -10.501  1.00  0.00     0.217 HD
ENDBRANCH  25  35
ENDBRANCH  20  21
ENDBRANCH  13  20
BRANCH  11  37
HETATM   37  O2  UNL     1      19.069  -6.047  -5.252  1.00  0.00    -0.198 OA
BRANCH  37  38
HETATM   38  O3  UNL     1      18.531  -4.927  -5.671  1.00  0.00    -0.247 OA
ATOM     39  H3  UNL     1      18.449  -4.983  -6.616  1.00  0.00     0.253 HD
ENDBRANCH  37  38
ENDBRANCH  11  37
BRANCH   5  40
HETATM   40  O1  UNL     1      18.420  -8.482   1.895  1.00  0.00    -0.396 OA
ATOM     41  H1  UNL     1      17.517  -8.196   1.820  1.00  0.00     0.210 HD
ENDBRANCH   5  40
TORSDOF 8
ENDMDL
