MODEL 1
REMARK VINA RESULT: -9.699644018      0.000      0.000
REMARK  7 active torsions:
REMARK  status: ('A' for Active; 'I' for Inactive)
REMARK    1  A    between atoms: C11_11  and  C12_12 
REMARK    2  A    between atoms: C12_12  and  O1_14 
REMARK    3  A    between atoms: C12_12  and  C14_16 
REMARK    4  A    between atoms: C14_16  and  C15_17 
REMARK    5  A    between atoms: C16_18  and  C17_19 
REMARK    6  A    between atoms: C19_24  and  O3_25 
REMARK    7  A    between atoms: C28_35  and  O4_36 
ROOT
HETATM    1  C1  UNL     1      13.319  -5.115  -6.748  1.00  0.00     0.012 C 
HETATM    2  C2  UNL     1      14.811  -5.455  -6.575  1.00  0.00     0.010 C 
HETATM    3  C3  UNL     1      15.268  -4.843  -5.310  1.00  0.00     0.007 C 
HETATM    4  C4  UNL     1      16.330  -5.541  -4.549  1.00  0.00     0.006 C 
HETATM    5  C5  UNL     1      17.491  -6.053  -5.332  1.00  0.00    -0.006 C 
HETATM    6  C6  UNL     1      17.905  -5.071  -6.339  1.00  0.00     0.005 C 
HETATM    7  C7  UNL     1      19.406  -4.802  -6.250  1.00  0.00     0.001 C 
HETATM    8  C8  UNL     1      20.044  -5.507  -7.412  1.00  0.00     0.005 C 
HETATM    9  C9  UNL     1      20.441  -6.904  -7.176  1.00  0.00    -0.002 C 
HETATM   10  C10 UNL     1      21.244  -6.974  -5.908  1.00  0.00     0.042 C 
HETATM   11  C11 UNL     1      20.544  -7.723  -4.822  1.00  0.00    -0.049 C 
HETATM   12  C20 UNL     1      19.353  -8.263  -4.935  1.00  0.00    -0.015 C 
HETATM   13  C21 UNL     1      18.506  -8.204  -6.193  1.00  0.00     0.025 C 
HETATM   14  C22 UNL     1      19.410  -7.984  -7.305  1.00  0.00    -0.036 C 
HETATM   15  C23 UNL     1      18.810  -7.896  -8.682  1.00  0.00     0.016 C 
HETATM   16  C24 UNL     1      20.273  -9.276  -7.387  1.00  0.00     0.016 C 
HETATM   17  C25 UNL     1      17.284  -7.472  -5.859  1.00  0.00    -0.030 C 
HETATM   18  C26 UNL     1      16.804  -8.219  -4.587  1.00  0.00     0.016 C 
HETATM   19  C27 UNL     1      16.157  -7.564  -6.817  1.00  0.00     0.042 C 
HETATM   20  C28 UNL     1      14.865  -6.978  -6.465  1.00  0.00     0.122 C 
ENDROOT
BRANCH  11  21
HETATM   21  C12 UNL     1      21.283  -7.857  -3.510  1.00  0.00     0.080 C 
HETATM   22  C13 UNL     1      21.372  -6.531  -2.832  1.00  0.00     0.051 C 
BRANCH  21  23
HETATM   23  O1  UNL     1      22.577  -8.329  -3.707  1.00  0.00    -0.385 OA
ATOM     24  H1  UNL     1      23.042  -8.410  -2.883  1.00  0.00     0.211 HD
ENDBRANCH  21  23
BRANCH  21  25
HETATM   25  C14 UNL     1      20.572  -8.895  -2.640  1.00  0.00     0.069 C 
BRANCH  25  26
HETATM   26  C15 UNL     1      20.973  -8.830  -1.249  1.00  0.00    -0.022 C 
HETATM   27  C16 UNL     1      20.578  -8.334  -0.163  1.00  0.00     0.020 C 
BRANCH  27  28
HETATM   28  C17 UNL     1      19.442  -7.541   0.218  1.00  0.00     0.066 A 
HETATM   29  S1  UNL     1      18.053  -7.231  -0.831  1.00  0.00    -0.048 SA
HETATM   30  C18 UNL     1      17.184  -6.216   0.218  1.00  0.00     0.187 A 
HETATM   31  S2  UNL     1      15.719  -5.476  -0.027  1.00  0.00    -0.044 SA
HETATM   32  O2  UNL     1      17.947  -6.174   1.233  1.00  0.00    -0.268 OA
HETATM   33  C19 UNL     1      19.048  -6.796   1.283  1.00  0.00     0.202 A 
BRANCH  33  34
HETATM   34  O3  UNL     1      19.834  -6.677   2.467  1.00  0.00    -0.340 OA
ATOM     35  H3  UNL     1      19.728  -7.258   3.211  1.00  0.00     0.220 HD
ENDBRANCH  33  34
ENDBRANCH  27  28
ENDBRANCH  25  26
ENDBRANCH  21  25
ENDBRANCH  11  21
BRANCH  20  36
HETATM   36  O4  UNL     1      13.951  -7.412  -7.468  1.00  0.00    -0.395 OA
ATOM     37  H4  UNL     1      14.174  -8.327  -7.586  1.00  0.00     0.210 HD
ENDBRANCH  20  36
TORSDOF 7
ENDMDL
MODEL 2
REMARK VINA RESULT: -9.369843311      2.869      6.884
REMARK  7 active torsions:
REMARK  status: ('A' for Active; 'I' for Inactive)
REMARK    1  A    between atoms: C11_11  and  C12_12 
REMARK    2  A    between atoms: C12_12  and  O1_14 
REMARK    3  A    between atoms: C12_12  and  C14_16 
REMARK    4  A    between atoms: C14_16  and  C15_17 
REMARK    5  A    between atoms: C16_18  and  C17_19 
REMARK    6  A    between atoms: C19_24  and  O3_25 
REMARK    7  A    between atoms: C28_35  and  O4_36 
ROOT
HETATM    1  C1  UNL     1      18.925  -9.309   1.127  1.00  0.00     0.012 C 
HETATM    2  C2  UNL     1      18.731  -8.914  -0.349  1.00  0.00     0.010 C 
HETATM    3  C3  UNL     1      17.865  -7.717  -0.384  1.00  0.00     0.007 C 
HETATM    4  C4  UNL     1      18.083  -6.738  -1.474  1.00  0.00     0.006 C 
HETATM    5  C5  UNL     1      18.268  -7.292  -2.846  1.00  0.00    -0.006 C 
HETATM    6  C6  UNL     1      17.323  -8.386  -3.090  1.00  0.00     0.005 C 
HETATM    7  C7  UNL     1      16.566  -8.168  -4.398  1.00  0.00     0.001 C 
HETATM    8  C8  UNL     1      17.146  -9.123  -5.402  1.00  0.00     0.005 C 
HETATM    9  C9  UNL     1      18.298  -8.625  -6.170  1.00  0.00    -0.002 C 
HETATM   10  C10 UNL     1      17.956  -7.277  -6.741  1.00  0.00     0.042 C 
HETATM   11  C11 UNL     1      18.768  -6.175  -6.144  1.00  0.00    -0.049 C 
HETATM   12  C20 UNL     1      19.680  -6.338  -5.215  1.00  0.00    -0.015 C 
HETATM   13  C21 UNL     1      20.044  -7.679  -4.604  1.00  0.00     0.025 C 
HETATM   14  C22 UNL     1      19.664  -8.700  -5.560  1.00  0.00    -0.036 C 
HETATM   15  C23 UNL     1      19.934 -10.134  -5.192  1.00  0.00     0.016 C 
HETATM   16  C24 UNL     1      20.600  -8.477  -6.784  1.00  0.00     0.016 C 
HETATM   17  C25 UNL     1      19.725  -7.608  -3.178  1.00  0.00    -0.030 C 
HETATM   18  C26 UNL     1      20.441  -6.298  -2.757  1.00  0.00     0.016 C 
HETATM   19  C27 UNL     1      20.290  -8.664  -2.305  1.00  0.00     0.042 C 
HETATM   20  C28 UNL     1      20.128  -8.560  -0.856  1.00  0.00     0.122 C 
ENDROOT
BRANCH  11  21
HETATM   21  C12 UNL     1      18.502  -4.782  -6.667  1.00  0.00     0.080 C 
HETATM   22  C13 UNL     1      19.526  -4.412  -7.688  1.00  0.00     0.051 C 
BRANCH  21  23
HETATM   23  O1  UNL     1      18.553  -3.842  -5.643  1.00  0.00    -0.385 OA
ATOM     24  H1  UNL     1      19.204  -3.173  -5.824  1.00  0.00     0.211 HD
ENDBRANCH  21  23
BRANCH  21  25
HETATM   25  C14 UNL     1      17.083  -4.724  -7.237  1.00  0.00     0.069 C 
BRANCH  25  26
HETATM   26  C15 UNL     1      16.076  -4.531  -6.213  1.00  0.00    -0.022 C 
HETATM   27  C16 UNL     1      14.864  -4.792  -6.004  1.00  0.00     0.020 C 
BRANCH  27  28
HETATM   28  C17 UNL     1      13.843  -5.469  -6.758  1.00  0.00     0.066 A 
HETATM   29  S1  UNL     1      12.254  -4.781  -7.114  1.00  0.00    -0.048 SA
HETATM   30  C18 UNL     1      11.599  -6.112  -7.942  1.00  0.00     0.187 A 
HETATM   31  S2  UNL     1      10.095  -6.276  -8.624  1.00  0.00    -0.044 SA
HETATM   32  O2  UNL     1      12.558  -6.944  -7.902  1.00  0.00    -0.268 OA
HETATM   33  C19 UNL     1      13.663  -6.681  -7.341  1.00  0.00     0.202 A 
BRANCH  33  34
HETATM   34  O3  UNL     1      14.674  -7.687  -7.345  1.00  0.00    -0.340 OA
ATOM     35  H3  UNL     1      14.668  -8.414  -7.957  1.00  0.00     0.220 HD
ENDBRANCH  33  34
ENDBRANCH  27  28
ENDBRANCH  25  26
ENDBRANCH  21  25
ENDBRANCH  11  21
BRANCH  20  36
HETATM   36  O4  UNL     1      20.949  -9.581  -0.295  1.00  0.00    -0.395 OA
ATOM     37  H4  UNL     1      21.636  -9.092   0.144  1.00  0.00     0.210 HD
ENDBRANCH  20  36
TORSDOF 7
ENDMDL
MODEL 3
REMARK VINA RESULT: -9.262451130      1.928      5.282
REMARK  7 active torsions:
REMARK  status: ('A' for Active; 'I' for Inactive)
REMARK    1  A    between atoms: C11_11  and  C12_12 
REMARK    2  A    between atoms: C12_12  and  O1_14 
REMARK    3  A    between atoms: C12_12  and  C14_16 
REMARK    4  A    between atoms: C14_16  and  C15_17 
REMARK    5  A    between atoms: C16_18  and  C17_19 
REMARK    6  A    between atoms: C19_24  and  O3_25 
REMARK    7  A    between atoms: C28_35  and  O4_36 
ROOT
HETATM    1  C1  UNL     1      22.424 -10.492  -5.238  1.00  0.00     0.012 C 
HETATM    2  C2  UNL     1      21.154  -9.674  -5.536  1.00  0.00     0.010 C 
HETATM    3  C3  UNL     1      20.553  -9.289  -4.242  1.00  0.00     0.007 C 
HETATM    4  C4  UNL     1      19.830  -7.997  -4.173  1.00  0.00     0.006 C 
HETATM    5  C5  UNL     1      18.899  -7.689  -5.296  1.00  0.00    -0.006 C 
HETATM    6  C6  UNL     1      18.132  -8.882  -5.669  1.00  0.00     0.005 C 
HETATM    7  C7  UNL     1      16.637  -8.574  -5.710  1.00  0.00     0.001 C 
HETATM    8  C8  UNL     1      16.249  -8.494  -7.159  1.00  0.00     0.005 C 
HETATM    9  C9  UNL     1      16.377  -7.168  -7.784  1.00  0.00    -0.002 C 
HETATM   10  C10 UNL     1      15.693  -6.151  -6.914  1.00  0.00     0.042 C 
HETATM   11  C11 UNL     1      16.648  -5.181  -6.301  1.00  0.00    -0.049 C 
HETATM   12  C20 UNL     1      17.948  -5.198  -6.479  1.00  0.00    -0.015 C 
HETATM   13  C21 UNL     1      18.677  -6.215  -7.338  1.00  0.00     0.025 C 
HETATM   14  C22 UNL     1      17.717  -6.732  -8.293  1.00  0.00    -0.036 C 
HETATM   15  C23 UNL     1      18.201  -7.761  -9.278  1.00  0.00     0.016 C 
HETATM   16  C24 UNL     1      17.361  -5.522  -9.205  1.00  0.00     0.016 C 
HETATM   17  C25 UNL     1      19.574  -6.963  -6.458  1.00  0.00    -0.030 C 
HETATM   18  C26 UNL     1      20.328  -5.821  -5.728  1.00  0.00     0.016 C 
HETATM   19  C27 UNL     1      20.628  -7.781  -7.103  1.00  0.00     0.042 C 
HETATM   20  C28 UNL     1      21.642  -8.429  -6.274  1.00  0.00     0.122 C 
ENDROOT
BRANCH  11  21
HETATM   21  C12 UNL     1      16.047  -4.110  -5.418  1.00  0.00     0.080 C 
HETATM   22  C13 UNL     1      14.578  -4.012  -5.655  1.00  0.00     0.051 C 
BRANCH  21  23
HETATM   23  O1  UNL     1      16.611  -2.866  -5.682  1.00  0.00    -0.385 OA
ATOM     24  H1  UNL     1      17.357  -2.700  -5.117  1.00  0.00     0.211 HD
ENDBRANCH  21  23
BRANCH  21  25
HETATM   25  C14 UNL     1      16.369  -4.429  -3.957  1.00  0.00     0.069 C 
BRANCH  25  26
HETATM   26  C15 UNL     1      16.217  -5.836  -3.643  1.00  0.00    -0.022 C 
HETATM   27  C16 UNL     1      16.449  -6.635  -2.701  1.00  0.00     0.020 C 
BRANCH  27  28
HETATM   28  C17 UNL     1      17.017  -6.493  -1.388  1.00  0.00     0.066 A 
HETATM   29  S1  UNL     1      18.364  -7.465  -0.780  1.00  0.00    -0.048 SA
HETATM   30  C18 UNL     1      18.439  -6.814   0.787  1.00  0.00     0.187 A 
HETATM   31  S2  UNL     1      19.471  -7.202   2.027  1.00  0.00    -0.044 SA
HETATM   32  O2  UNL     1      17.501  -5.957   0.760  1.00  0.00    -0.268 OA
HETATM   33  C19 UNL     1      16.785  -5.765  -0.267  1.00  0.00     0.202 A 
BRANCH  33  34
HETATM   34  O3  UNL     1      15.753  -4.783  -0.191  1.00  0.00    -0.340 OA
ATOM     35  H3  UNL     1      14.852  -5.005   0.011  1.00  0.00     0.220 HD
ENDBRANCH  33  34
ENDBRANCH  27  28
ENDBRANCH  25  26
ENDBRANCH  21  25
ENDBRANCH  11  21
BRANCH  20  36
HETATM   36  O4  UNL     1      22.617  -8.945  -7.177  1.00  0.00    -0.395 OA
ATOM     37  H4  UNL     1      22.286  -9.811  -7.384  1.00  0.00     0.210 HD
ENDBRANCH  20  36
TORSDOF 7
ENDMDL
MODEL 4
REMARK VINA RESULT: -9.262151188      3.453      5.115
REMARK  7 active torsions:
REMARK  status: ('A' for Active; 'I' for Inactive)
REMARK    1  A    between atoms: C11_11  and  C12_12 
REMARK    2  A    between atoms: C12_12  and  O1_14 
REMARK    3  A    between atoms: C12_12  and  C14_16 
REMARK    4  A    between atoms: C14_16  and  C15_17 
REMARK    5  A    between atoms: C16_18  and  C17_19 
REMARK    6  A    between atoms: C19_24  and  O3_25 
REMARK    7  A    between atoms: C28_35  and  O4_36 
ROOT
HETATM    1  C1  UNL     1      12.335  -4.852  -6.947  1.00  0.00     0.012 C 
HETATM    2  C2  UNL     1      13.858  -5.080  -6.937  1.00  0.00     0.010 C 
HETATM    3  C3  UNL     1      14.389  -4.514  -5.679  1.00  0.00     0.007 C 
HETATM    4  C4  UNL     1      15.569  -5.169  -5.070  1.00  0.00     0.006 C 
HETATM    5  C5  UNL     1      16.683  -5.535  -5.990  1.00  0.00    -0.006 C 
HETATM    6  C6  UNL     1      16.923  -4.461  -6.959  1.00  0.00     0.005 C 
HETATM    7  C7  UNL     1      18.401  -4.077  -6.989  1.00  0.00     0.001 C 
HETATM    8  C8  UNL     1      18.975  -4.653  -8.252  1.00  0.00     0.005 C 
HETATM    9  C9  UNL     1      19.496  -6.025  -8.152  1.00  0.00    -0.002 C 
HETATM   10  C10 UNL     1      20.421  -6.109  -6.971  1.00  0.00     0.042 C 
HETATM   11  C11 UNL     1      19.888  -6.980  -5.882  1.00  0.00    -0.049 C 
HETATM   12  C20 UNL     1      18.736  -7.607  -5.922  1.00  0.00    -0.015 C 
HETATM   13  C21 UNL     1      17.769  -7.537  -7.090  1.00  0.00     0.025 C 
HETATM   14  C22 UNL     1      18.541  -7.175  -8.262  1.00  0.00    -0.036 C 
HETATM   15  C23 UNL     1      17.806  -7.049  -9.568  1.00  0.00     0.016 C 
HETATM   16  C24 UNL     1      19.487  -8.385  -8.514  1.00  0.00     0.016 C 
HETATM   17  C25 UNL     1      16.533  -6.930  -6.595  1.00  0.00    -0.030 C 
HETATM   18  C26 UNL     1      16.237  -7.793  -5.340  1.00  0.00     0.016 C 
HETATM   19  C27 UNL     1      15.329  -7.052  -7.450  1.00  0.00     0.042 C 
HETATM   20  C28 UNL     1      14.037  -6.597  -6.940  1.00  0.00     0.122 C 
ENDROOT
BRANCH  11  21
HETATM   21  C12 UNL     1      20.759  -7.136  -4.656  1.00  0.00     0.080 C 
HETATM   22  C13 UNL     1      19.915  -7.417  -3.458  1.00  0.00     0.051 C 
BRANCH  21  23
HETATM   23  O1  UNL     1      21.489  -5.978  -4.407  1.00  0.00    -0.385 OA
ATOM     24  H1  UNL     1      22.236  -5.911  -4.991  1.00  0.00     0.211 HD
ENDBRANCH  21  23
BRANCH  21  25
HETATM   25  C14 UNL     1      21.781  -8.246  -4.906  1.00  0.00     0.069 C 
BRANCH  25  26
HETATM   26  C15 UNL     1      21.417  -9.497  -4.272  1.00  0.00    -0.022 C 
HETATM   27  C16 UNL     1      21.478 -10.734  -4.493  1.00  0.00     0.020 C 
BRANCH  27  28
HETATM   28  C17 UNL     1      21.990 -11.532  -5.573  1.00  0.00     0.066 A 
HETATM   29  S1  UNL     1      21.579 -11.278  -7.274  1.00  0.00    -0.048 SA
HETATM   30  C18 UNL     1      22.462 -12.574  -7.928  1.00  0.00     0.187 A 
HETATM   31  S2  UNL     1      22.605 -13.040  -9.514  1.00  0.00    -0.044 SA
HETATM   32  O2  UNL     1      22.981 -13.089  -6.888  1.00  0.00    -0.268 OA
HETATM   33  C19 UNL     1      22.783 -12.623  -5.728  1.00  0.00     0.202 A 
BRANCH  33  34
HETATM   34  O3  UNL     1      23.407 -13.279  -4.625  1.00  0.00    -0.340 OA
ATOM     35  H3  UNL     1      24.246 -13.717  -4.701  1.00  0.00     0.220 HD
ENDBRANCH  33  34
ENDBRANCH  27  28
ENDBRANCH  25  26
ENDBRANCH  21  25
ENDBRANCH  11  21
BRANCH  20  36
HETATM   36  O4  UNL     1      13.065  -7.040  -7.883  1.00  0.00    -0.395 OA
ATOM     37  H4  UNL     1      12.354  -7.349  -7.335  1.00  0.00     0.210 HD
ENDBRANCH  20  36
TORSDOF 7
ENDMDL
MODEL 5
REMARK VINA RESULT: -9.216749110      2.669      6.306
REMARK  7 active torsions:
REMARK  status: ('A' for Active; 'I' for Inactive)
REMARK    1  A    between atoms: C11_11  and  C12_12 
REMARK    2  A    between atoms: C12_12  and  O1_14 
REMARK    3  A    between atoms: C12_12  and  C14_16 
REMARK    4  A    between atoms: C14_16  and  C15_17 
REMARK    5  A    between atoms: C16_18  and  C17_19 
REMARK    6  A    between atoms: C19_24  and  O3_25 
REMARK    7  A    between atoms: C28_35  and  O4_36 
ROOT
HETATM    1  C1  UNL     1      18.628  -9.159   1.113  1.00  0.00     0.012 C 
HETATM    2  C2  UNL     1      18.856  -8.863  -0.382  1.00  0.00     0.010 C 
HETATM    3  C3  UNL     1      18.006  -7.710  -0.746  1.00  0.00     0.007 C 
HETATM    4  C4  UNL     1      18.503  -6.790  -1.795  1.00  0.00     0.006 C 
HETATM    5  C5  UNL     1      19.087  -7.416  -3.016  1.00  0.00    -0.006 C 
HETATM    6  C6  UNL     1      18.280  -8.564  -3.440  1.00  0.00     0.005 C 
HETATM    7  C7  UNL     1      17.924  -8.459  -4.922  1.00  0.00     0.001 C 
HETATM    8  C8  UNL     1      18.791  -9.446  -5.649  1.00  0.00     0.005 C 
HETATM    9  C9  UNL     1      20.102  -8.945  -6.091  1.00  0.00    -0.002 C 
HETATM   10  C10 UNL     1      19.905  -7.651  -6.829  1.00  0.00     0.042 C 
HETATM   11  C11 UNL     1      20.483  -6.480  -6.105  1.00  0.00    -0.049 C 
HETATM   12  C20 UNL     1      21.094  -6.546  -4.946  1.00  0.00    -0.015 C 
HETATM   13  C21 UNL     1      21.302  -7.830  -4.164  1.00  0.00     0.025 C 
HETATM   14  C22 UNL     1      21.238  -8.923  -5.114  1.00  0.00    -0.036 C 
HETATM   15  C23 UNL     1      21.427 -10.318  -4.584  1.00  0.00     0.016 C 
HETATM   16  C24 UNL     1      22.479  -8.733  -6.034  1.00  0.00     0.016 C 
HETATM   17  C25 UNL     1      20.586  -7.687  -2.896  1.00  0.00    -0.030 C 
HETATM   18  C26 UNL     1      21.118  -6.324  -2.382  1.00  0.00     0.016 C 
HETATM   19  C27 UNL     1      20.903  -8.662  -1.826  1.00  0.00     0.042 C 
HETATM   20  C28 UNL     1      20.330  -8.479  -0.494  1.00  0.00     0.122 C 
ENDROOT
BRANCH  11  21
HETATM   21  C12 UNL     1      20.344  -5.134  -6.779  1.00  0.00     0.080 C 
HETATM   22  C13 UNL     1      20.992  -5.162  -8.123  1.00  0.00     0.051 C 
BRANCH  21  23
HETATM   23  O1  UNL     1      20.949  -4.131  -6.029  1.00  0.00    -0.385 OA
ATOM     24  H1  UNL     1      20.647  -3.271  -6.299  1.00  0.00     0.211 HD
ENDBRANCH  21  23
BRANCH  21  25
HETATM   25  C14 UNL     1      18.861  -4.771  -6.869  1.00  0.00     0.069 C 
BRANCH  25  26
HETATM   26  C15 UNL     1      18.181  -4.870  -5.594  1.00  0.00    -0.022 C 
HETATM   27  C16 UNL     1      17.012  -4.965  -5.138  1.00  0.00     0.020 C 
BRANCH  27  28
HETATM   28  C17 UNL     1      15.708  -5.029  -5.740  1.00  0.00     0.066 A 
HETATM   29  S1  UNL     1      15.052  -6.467  -6.532  1.00  0.00    -0.048 SA
HETATM   30  C18 UNL     1      13.570  -5.806  -7.035  1.00  0.00     0.187 A 
HETATM   31  S2  UNL     1      12.336  -6.535  -7.872  1.00  0.00    -0.044 SA
HETATM   32  O2  UNL     1      13.654  -4.615  -6.602  1.00  0.00    -0.268 OA
HETATM   33  C19 UNL     1      14.667  -4.190  -5.972  1.00  0.00     0.202 A 
BRANCH  33  34
HETATM   34  O3  UNL     1      14.665  -2.832  -5.535  1.00  0.00    -0.340 OA
ATOM     35  H3  UNL     1      13.912  -2.432  -5.115  1.00  0.00     0.220 HD
ENDBRANCH  33  34
ENDBRANCH  27  28
ENDBRANCH  25  26
ENDBRANCH  21  25
ENDBRANCH  11  21
BRANCH  20  36
HETATM   36  O4  UNL     1      20.981  -9.426   0.348  1.00  0.00    -0.395 OA
ATOM     37  H4  UNL     1      21.745  -8.955   0.657  1.00  0.00     0.210 HD
ENDBRANCH  20  36
TORSDOF 7
ENDMDL
