MODEL 1
REMARK VINA RESULT: -7.164157839      0.000      0.000
REMARK  8 active torsions:
REMARK  status: ('A' for Active; 'I' for Inactive)
REMARK    1  A    between atoms: C3_7  and  N3_8 
REMARK    2  A    between atoms: N3_8  and  N4_10 
REMARK    3  A    between atoms: C4_13  and  N5_14 
REMARK    4  A    between atoms: N5_14  and  N6_16 
REMARK    5  A    between atoms: N6_16  and  S1_18 
REMARK    6  A    between atoms: S1_18  and  N7_19 
REMARK    7  A    between atoms: S1_18  and  O3_23 
REMARK    8  A    between atoms: O3_23  and  N8_24 
ROOT
HETATM    1  C1  UNL     1      61.439  53.509  22.545  1.00  0.00     0.164 C 
HETATM    2  N1  UNL     1      60.005  53.593  22.718  1.00  0.00    -0.269 N 
HETATM    3  C2  UNL     1      59.402  54.704  22.267  1.00  0.00     0.330 C 
HETATM    4  O1  UNL     1      60.191  55.639  21.974  1.00  0.00    -0.246 OA
HETATM    5  N2  UNL     1      58.108  54.967  22.082  1.00  0.00    -0.291 N 
ATOM      6  H2  UNL     1      57.886  55.892  21.713  1.00  0.00     0.172 HD
HETATM    7  C3  UNL     1      57.052  54.151  22.325  1.00  0.00     0.153 C 
HETATM    8  C4  UNL     1      56.990  52.964  23.060  1.00  0.00     0.120 C 
HETATM    9  C5  UNL     1      58.088  52.185  23.309  1.00  0.00     0.144 C 
HETATM   10  C6  UNL     1      57.810  50.812  23.592  1.00  0.00     0.107 C 
HETATM   11  N9  UNL     1      57.611  49.690  23.817  1.00  0.00    -0.191 NA
HETATM   12  C7  UNL     1      59.451  52.550  23.310  1.00  0.00     0.274 C 
HETATM   13  O4  UNL     1      60.208  51.792  23.946  1.00  0.00    -0.266 OA
ENDROOT
BRANCH   8  14
HETATM   14  N5  UNL     1      55.779  52.539  23.584  1.00  0.00    -0.286 N 
ATOM     15  H5  UNL     1      55.119  52.216  22.877  1.00  0.00     0.188 HD
BRANCH  14  16
HETATM   16  N6  UNL     1      55.296  52.466  24.854  1.00  0.00    -0.220 N 
ATOM     17  H6  UNL     1      55.771  52.975  25.600  1.00  0.00     0.200 HD
BRANCH  16  18
HETATM   18  S1  UNL     1      54.040  51.626  25.189  1.00  0.00     0.268 S 
HETATM   19  O2  UNL     1      53.736  50.851  23.948  1.00  0.00    -0.195 OA
BRANCH  18  20
HETATM   20  N7  UNL     1      52.659  52.559  25.593  1.00  0.00    -0.321 N 
ATOM     21  H72 UNL     1      52.596  53.554  25.378  1.00  0.00     0.169 HD
ATOM     22  H71 UNL     1      51.921  52.032  26.059  1.00  0.00     0.169 HD
ENDBRANCH  18  20
BRANCH  18  23
HETATM   23  O3  UNL     1      54.474  50.591  26.460  1.00  0.00    -0.157 OA
BRANCH  23  24
HETATM   24  N8  UNL     1      55.826  50.575  26.490  1.00  0.00    -0.294 N 
ATOM     25  H82 UNL     1      56.448  50.920  25.758  1.00  0.00     0.185 HD
ATOM     26  H81 UNL     1      56.087  50.152  27.382  1.00  0.00     0.185 HD
ENDBRANCH  23  24
ENDBRANCH  18  23
ENDBRANCH  16  18
ENDBRANCH  14  16
ENDBRANCH   8  14
BRANCH   7  27
HETATM   27  N3  UNL     1      55.964  54.521  21.806  1.00  0.00    -0.290 N 
ATOM     28  H3  UNL     1      55.103  54.085  22.137  1.00  0.00     0.188 HD
BRANCH  27  29
HETATM   29  N4  UNL     1      55.863  55.486  20.811  1.00  0.00    -0.344 N 
ATOM     30  H42 UNL     1      56.362  56.362  20.965  1.00  0.00     0.176 HD
ATOM     31  H41 UNL     1      55.328  55.368  19.951  1.00  0.00     0.176 HD
ENDBRANCH  27  29
ENDBRANCH   7  27
TORSDOF 8
ENDMDL
MODEL 2
REMARK VINA RESULT: -7.060369429      1.601      3.485
REMARK  8 active torsions:
REMARK  status: ('A' for Active; 'I' for Inactive)
REMARK    1  A    between atoms: C3_7  and  N3_8 
REMARK    2  A    between atoms: N3_8  and  N4_10 
REMARK    3  A    between atoms: C4_13  and  N5_14 
REMARK    4  A    between atoms: N5_14  and  N6_16 
REMARK    5  A    between atoms: N6_16  and  S1_18 
REMARK    6  A    between atoms: S1_18  and  N7_19 
REMARK    7  A    between atoms: S1_18  and  O3_23 
REMARK    8  A    between atoms: O3_23  and  N8_24 
ROOT
HETATM    1  C1  UNL     1      60.136  53.842  21.672  1.00  0.00     0.164 C 
HETATM    2  N1  UNL     1      58.972  53.220  22.266  1.00  0.00    -0.269 N 
HETATM    3  C2  UNL     1      59.114  51.962  22.709  1.00  0.00     0.330 C 
HETATM    4  O1  UNL     1      60.170  51.395  22.330  1.00  0.00    -0.246 OA
HETATM    5  N2  UNL     1      58.316  51.226  23.484  1.00  0.00    -0.291 N 
ATOM      6  H2  UNL     1      58.644  50.284  23.700  1.00  0.00     0.172 HD
HETATM    7  C3  UNL     1      57.121  51.581  24.019  1.00  0.00     0.153 C 
HETATM    8  C4  UNL     1      56.287  52.658  23.708  1.00  0.00     0.120 C 
HETATM    9  C5  UNL     1      56.740  53.798  23.098  1.00  0.00     0.144 C 
HETATM   10  C6  UNL     1      55.942  54.963  23.313  1.00  0.00     0.107 C 
HETATM   11  N9  UNL     1      55.315  55.927  23.480  1.00  0.00    -0.191 NA
HETATM   12  C7  UNL     1      57.890  53.978  22.300  1.00  0.00     0.274 C 
HETATM   13  O4  UNL     1      57.869  54.969  21.546  1.00  0.00    -0.266 OA
ENDROOT
BRANCH   8  14
HETATM   14  N5  UNL     1      54.936  52.594  24.008  1.00  0.00    -0.286 N 
ATOM     15  H5  UNL     1      54.373  52.167  23.273  1.00  0.00     0.188 HD
BRANCH  14  16
HETATM   16  N6  UNL     1      54.210  52.989  25.090  1.00  0.00    -0.220 N 
ATOM     17  H6  UNL     1      54.315  53.940  25.444  1.00  0.00     0.200 HD
BRANCH  16  18
HETATM   18  S1  UNL     1      53.227  52.023  25.793  1.00  0.00     0.268 S 
HETATM   19  O2  UNL     1      53.753  50.651  25.523  1.00  0.00    -0.195 OA
BRANCH  18  20
HETATM   20  N7  UNL     1      51.618  52.107  25.204  1.00  0.00    -0.321 N 
ATOM     21  H72 UNL     1      51.321  51.605  24.367  1.00  0.00     0.169 HD
ATOM     22  H71 UNL     1      50.999  52.696  25.761  1.00  0.00     0.169 HD
ENDBRANCH  18  20
BRANCH  18  23
HETATM   23  O3  UNL     1      53.292  52.383  27.449  1.00  0.00    -0.157 OA
BRANCH  23  24
HETATM   24  N8  UNL     1      54.494  52.968  27.661  1.00  0.00    -0.294 N 
ATOM     25  H82 UNL     1      54.650  53.935  27.948  1.00  0.00     0.185 HD
ATOM     26  H81 UNL     1      55.196  52.252  27.475  1.00  0.00     0.185 HD
ENDBRANCH  23  24
ENDBRANCH  18  23
ENDBRANCH  16  18
ENDBRANCH  14  16
ENDBRANCH   8  14
BRANCH   7  27
HETATM   27  N3  UNL     1      56.703  50.823  24.936  1.00  0.00    -0.290 N 
ATOM     28  H3  UNL     1      55.701  50.642  24.988  1.00  0.00     0.188 HD
BRANCH  27  29
HETATM   29  N4  UNL     1      57.523  50.218  25.882  1.00  0.00    -0.344 N 
ATOM     30  H42 UNL     1      57.420  50.529  26.848  1.00  0.00     0.176 HD
ATOM     31  H41 UNL     1      58.208  49.495  25.666  1.00  0.00     0.176 HD
ENDBRANCH  27  29
ENDBRANCH   7  27
TORSDOF 8
ENDMDL
MODEL 3
REMARK VINA RESULT: -7.004936535      7.792     10.081
REMARK  8 active torsions:
REMARK  status: ('A' for Active; 'I' for Inactive)
REMARK    1  A    between atoms: C3_7  and  N3_8 
REMARK    2  A    between atoms: N3_8  and  N4_10 
REMARK    3  A    between atoms: C4_13  and  N5_14 
REMARK    4  A    between atoms: N5_14  and  N6_16 
REMARK    5  A    between atoms: N6_16  and  S1_18 
REMARK    6  A    between atoms: S1_18  and  N7_19 
REMARK    7  A    between atoms: S1_18  and  O3_23 
REMARK    8  A    between atoms: O3_23  and  N8_24 
ROOT
HETATM    1  C1  UNL     1      55.718  65.917  22.994  1.00  0.00     0.164 C 
HETATM    2  N1  UNL     1      56.356  64.676  22.610  1.00  0.00    -0.269 N 
HETATM    3  C2  UNL     1      57.405  64.764  21.779  1.00  0.00     0.330 C 
HETATM    4  O1  UNL     1      57.547  65.893  21.241  1.00  0.00    -0.246 OA
HETATM    5  N2  UNL     1      58.313  63.850  21.437  1.00  0.00    -0.291 N 
ATOM      6  H2  UNL     1      59.035  64.156  20.785  1.00  0.00     0.172 HD
HETATM    7  C3  UNL     1      58.390  62.561  21.853  1.00  0.00     0.153 C 
HETATM    8  C4  UNL     1      57.438  61.774  22.507  1.00  0.00     0.120 C 
HETATM    9  C5  UNL     1      56.404  62.306  23.232  1.00  0.00     0.144 C 
HETATM   10  C6  UNL     1      55.854  61.446  24.230  1.00  0.00     0.107 C 
HETATM   11  N9  UNL     1      55.393  60.769  25.055  1.00  0.00    -0.191 NA
HETATM   12  C7  UNL     1      55.821  63.587  23.133  1.00  0.00     0.274 C 
HETATM   13  O4  UNL     1      54.669  63.689  23.596  1.00  0.00    -0.266 OA
ENDROOT
BRANCH   8  14
HETATM   14  N5  UNL     1      57.511  60.393  22.427  1.00  0.00    -0.286 N 
ATOM     15  H5  UNL     1      56.856  59.987  21.758  1.00  0.00     0.188 HD
BRANCH  14  16
HETATM   16  N6  UNL     1      58.281  59.469  23.064  1.00  0.00    -0.220 N 
ATOM     17  H6  UNL     1      58.476  59.580  24.060  1.00  0.00     0.200 HD
BRANCH  16  18
HETATM   18  S1  UNL     1      58.869  58.254  22.308  1.00  0.00     0.268 S 
HETATM   19  O2  UNL     1      57.701  57.378  21.991  1.00  0.00    -0.195 OA
BRANCH  18  20
HETATM   20  N7  UNL     1      59.997  57.338  23.219  1.00  0.00    -0.321 N 
ATOM     21  H72 UNL     1      60.206  57.552  24.194  1.00  0.00     0.169 HD
ATOM     22  H71 UNL     1      60.430  56.574  22.701  1.00  0.00     0.169 HD
ENDBRANCH  18  20
BRANCH  18  23
HETATM   23  O3  UNL     1      59.575  58.860  20.890  1.00  0.00    -0.157 OA
BRANCH  23  24
HETATM   24  N8  UNL     1      59.937  57.782  20.158  1.00  0.00    -0.294 N 
ATOM     25  H82 UNL     1      60.226  57.789  19.179  1.00  0.00     0.185 HD
ATOM     26  H81 UNL     1      59.862  56.977  20.780  1.00  0.00     0.185 HD
ENDBRANCH  23  24
ENDBRANCH  18  23
ENDBRANCH  16  18
ENDBRANCH  14  16
ENDBRANCH   8  14
BRANCH   7  27
HETATM   27  N3  UNL     1      59.489  61.989  21.614  1.00  0.00    -0.290 N 
ATOM     28  H3  UNL     1      60.108  61.796  22.400  1.00  0.00     0.188 HD
BRANCH  27  29
HETATM   29  N4  UNL     1      59.908  61.608  20.345  1.00  0.00    -0.344 N 
ATOM     30  H42 UNL     1      60.118  62.356  19.684  1.00  0.00     0.176 HD
ATOM     31  H41 UNL     1      60.016  60.639  20.046  1.00  0.00     0.176 HD
ENDBRANCH  27  29
ENDBRANCH   7  27
TORSDOF 8
ENDMDL
MODEL 4
REMARK VINA RESULT: -6.712031403      1.560      3.449
REMARK  8 active torsions:
REMARK  status: ('A' for Active; 'I' for Inactive)
REMARK    1  A    between atoms: C3_7  and  N3_8 
REMARK    2  A    between atoms: N3_8  and  N4_10 
REMARK    3  A    between atoms: C4_13  and  N5_14 
REMARK    4  A    between atoms: N5_14  and  N6_16 
REMARK    5  A    between atoms: N6_16  and  S1_18 
REMARK    6  A    between atoms: S1_18  and  N7_19 
REMARK    7  A    between atoms: S1_18  and  O3_23 
REMARK    8  A    between atoms: O3_23  and  N8_24 
ROOT
HETATM    1  C1  UNL     1      60.903  52.818  22.335  1.00  0.00     0.164 C 
HETATM    2  N1  UNL     1      59.633  52.696  23.019  1.00  0.00    -0.269 N 
HETATM    3  C2  UNL     1      59.656  52.177  24.255  1.00  0.00     0.330 C 
HETATM    4  O1  UNL     1      60.745  51.632  24.569  1.00  0.00    -0.246 OA
HETATM    5  N2  UNL     1      58.711  52.149  25.196  1.00  0.00    -0.291 N 
ATOM      6  H2  UNL     1      58.966  51.701  26.076  1.00  0.00     0.172 HD
HETATM    7  C3  UNL     1      57.451  52.648  25.121  1.00  0.00     0.153 C 
HETATM    8  C4  UNL     1      56.719  53.064  24.007  1.00  0.00     0.120 C 
HETATM    9  C5  UNL     1      57.308  53.447  22.830  1.00  0.00     0.144 C 
HETATM   10  C6  UNL     1      56.520  54.309  22.007  1.00  0.00     0.107 C 
HETATM   11  N9  UNL     1      55.903  55.016  21.322  1.00  0.00    -0.191 NA
HETATM   12  C7  UNL     1      58.586  53.118  22.332  1.00  0.00     0.274 C 
HETATM   13  O4  UNL     1      58.730  53.244  21.101  1.00  0.00    -0.266 OA
ENDROOT
BRANCH   8  14
HETATM   14  N5  UNL     1      55.335  53.090  24.059  1.00  0.00    -0.286 N 
ATOM     15  H5  UNL     1      54.941  54.030  24.018  1.00  0.00     0.188 HD
BRANCH  14  16
HETATM   16  N6  UNL     1      54.395  52.110  24.156  1.00  0.00    -0.220 N 
ATOM     17  H6  UNL     1      54.262  51.465  23.376  1.00  0.00     0.200 HD
BRANCH  16  18
HETATM   18  S1  UNL     1      53.524  51.954  25.425  1.00  0.00     0.268 S 
HETATM   19  O2  UNL     1      53.908  50.636  26.015  1.00  0.00    -0.195 OA
BRANCH  18  20
HETATM   20  N7  UNL     1      51.836  51.936  25.121  1.00  0.00    -0.321 N 
ATOM     21  H72 UNL     1      51.240  52.736  25.331  1.00  0.00     0.169 HD
ATOM     22  H71 UNL     1      51.494  51.064  24.717  1.00  0.00     0.169 HD
ENDBRANCH  18  20
BRANCH  18  23
HETATM   23  O3  UNL     1      53.946  53.229  26.462  1.00  0.00    -0.157 OA
BRANCH  23  24
HETATM   24  N8  UNL     1      52.901  54.088  26.448  1.00  0.00    -0.294 N 
ATOM     25  H82 UNL     1      51.925  53.851  26.627  1.00  0.00     0.185 HD
ATOM     26  H81 UNL     1      53.290  55.005  26.226  1.00  0.00     0.185 HD
ENDBRANCH  23  24
ENDBRANCH  18  23
ENDBRANCH  16  18
ENDBRANCH  14  16
ENDBRANCH   8  14
BRANCH   7  27
HETATM   27  N3  UNL     1      56.854  52.750  26.228  1.00  0.00    -0.290 N 
ATOM     28  H3  UNL     1      56.489  53.665  26.491  1.00  0.00     0.188 HD
BRANCH  27  29
HETATM   29  N4  UNL     1      56.662  51.694  27.111  1.00  0.00    -0.344 N 
ATOM     30  H42 UNL     1      57.500  51.249  27.487  1.00  0.00     0.176 HD
ATOM     31  H41 UNL     1      55.747  51.348  27.398  1.00  0.00     0.176 HD
ENDBRANCH  27  29
ENDBRANCH   7  27
TORSDOF 8
ENDMDL
MODEL 5
REMARK VINA RESULT: -6.610273068      4.178      6.321
REMARK  8 active torsions:
REMARK  status: ('A' for Active; 'I' for Inactive)
REMARK    1  A    between atoms: C3_7  and  N3_8 
REMARK    2  A    between atoms: N3_8  and  N4_10 
REMARK    3  A    between atoms: C4_13  and  N5_14 
REMARK    4  A    between atoms: N5_14  and  N6_16 
REMARK    5  A    between atoms: N6_16  and  S1_18 
REMARK    6  A    between atoms: S1_18  and  N7_19 
REMARK    7  A    between atoms: S1_18  and  O3_23 
REMARK    8  A    between atoms: O3_23  and  N8_24 
ROOT
HETATM    1  C1  UNL     1      55.603  59.367  24.743  1.00  0.00     0.164 C 
HETATM    2  N1  UNL     1      56.157  58.299  23.938  1.00  0.00    -0.269 N 
HETATM    3  C2  UNL     1      55.429  57.178  23.830  1.00  0.00     0.330 C 
HETATM    4  O1  UNL     1      54.472  57.102  24.642  1.00  0.00    -0.246 OA
HETATM    5  N2  UNL     1      55.560  56.142  23.001  1.00  0.00    -0.291 N 
ATOM      6  H2  UNL     1      54.870  55.397  23.100  1.00  0.00     0.172 HD
HETATM    7  C3  UNL     1      56.503  55.960  22.043  1.00  0.00     0.153 C 
HETATM    8  C4  UNL     1      57.710  56.633  21.837  1.00  0.00     0.120 C 
HETATM    9  C5  UNL     1      57.952  57.893  22.319  1.00  0.00     0.144 C 
HETATM   10  C6  UNL     1      58.958  58.629  21.622  1.00  0.00     0.107 C 
HETATM   11  N9  UNL     1      59.767  59.253  21.068  1.00  0.00    -0.191 NA
HETATM   12  C7  UNL     1      57.334  58.561  23.398  1.00  0.00     0.274 C 
HETATM   13  O4  UNL     1      57.985  59.504  23.886  1.00  0.00    -0.266 OA
ENDROOT
BRANCH   8  14
HETATM   14  N5  UNL     1      58.731  56.020  21.128  1.00  0.00    -0.286 N 
ATOM     15  H5  UNL     1      58.673  56.164  20.120  1.00  0.00     0.188 HD
BRANCH  14  16
HETATM   16  N6  UNL     1      59.795  55.262  21.509  1.00  0.00    -0.220 N 
ATOM     17  H6  UNL     1      60.704  55.707  21.645  1.00  0.00     0.200 HD
BRANCH  16  18
HETATM   18  S1  UNL     1      59.655  53.739  21.741  1.00  0.00     0.268 S 
HETATM   19  O2  UNL     1      58.854  53.231  20.586  1.00  0.00    -0.195 OA
BRANCH  18  20
HETATM   20  N7  UNL     1      58.837  53.321  23.189  1.00  0.00    -0.321 N 
ATOM     21  H72 UNL     1      57.827  53.423  23.289  1.00  0.00     0.169 HD
ATOM     22  H71 UNL     1      59.446  52.968  23.927  1.00  0.00     0.169 HD
ENDBRANCH  18  20
BRANCH  18  23
HETATM   23  O3  UNL     1      61.225  53.098  21.718  1.00  0.00    -0.157 OA
BRANCH  23  24
HETATM   24  N8  UNL     1      61.344  52.349  22.838  1.00  0.00    -0.294 N 
ATOM     25  H82 UNL     1      60.982  51.404  22.971  1.00  0.00     0.185 HD
ATOM     26  H81 UNL     1      61.863  52.917  23.508  1.00  0.00     0.185 HD
ENDBRANCH  23  24
ENDBRANCH  18  23
ENDBRANCH  16  18
ENDBRANCH  14  16
ENDBRANCH   8  14
BRANCH   7  27
HETATM   27  N3  UNL     1      56.247  55.046  21.212  1.00  0.00    -0.290 N 
ATOM     28  H3  UNL     1      56.924  54.290  21.109  1.00  0.00     0.188 HD
BRANCH  27  29
HETATM   29  N4  UNL     1      55.101  55.004  20.427  1.00  0.00    -0.344 N 
ATOM     30  H42 UNL     1      54.947  55.789  19.793  1.00  0.00     0.176 HD
ATOM     31  H41 UNL     1      54.419  54.247  20.450  1.00  0.00     0.176 HD
ENDBRANCH  27  29
ENDBRANCH   7  27
TORSDOF 8
ENDMDL
