MODEL 1
REMARK VINA RESULT: -7.231730096      0.000      0.000
REMARK  9 active torsions:
REMARK  status: ('A' for Active; 'I' for Inactive)
REMARK    1  A    between atoms: C5_11  and  C6_12 
REMARK       I    between atoms: C6_12  and  N5_14 
REMARK    2  A    between atoms: N5_14  and  C7_16 
REMARK    3  A    between atoms: C7_16  and  C8_17 
REMARK    4  A    between atoms: C7_16  and  C9_20 
REMARK    5  A    between atoms: C8_17  and  O2_18 
REMARK    6  A    between atoms: C9_20  and  O3_21 
REMARK    7  A    between atoms: C9_20  and  O4_23 
REMARK    8  A    between atoms: C11_28  and  N7_29 
REMARK    9  A    between atoms: N7_29  and  N8_31 
ROOT
HETATM    1  C1  UNL     1      58.293  60.683  22.513  1.00  0.00     0.158 C 
HETATM    2  N1  UNL     1      58.529  59.295  22.123  1.00  0.00    -0.331 N 
HETATM    3  C2  UNL     1      59.522  59.077  21.208  1.00  0.00     0.185 A 
HETATM    4  N2  UNL     1      59.832  57.853  20.774  1.00  0.00    -0.336 N 
ATOM      5  H2  UNL     1      60.579  57.731  20.091  1.00  0.00     0.168 HD
HETATM    6  C3  UNL     1      59.165  56.783  21.231  1.00  0.00     0.138 A 
HETATM    7  N3  UNL     1      59.474  55.526  20.794  1.00  0.00    -0.327 N 
ATOM      8  H3  UNL     1      60.217  55.375  20.112  1.00  0.00     0.168 HD
HETATM    9  C4  UNL     1      58.767  54.487  21.291  1.00  0.00     0.150 A 
HETATM   10  N4  UNL     1      59.017  53.146  20.895  1.00  0.00    -0.080 NA
HETATM   11  C5  UNL     1      57.763  54.691  22.213  1.00  0.00     0.143 A 
HETATM   12  N6  UNL     1      57.476  55.948  22.631  1.00  0.00    -0.343 N 
ATOM     13  H6  UNL     1      56.733  56.103  23.312  1.00  0.00     0.166 HD
HETATM   14  C10 UNL     1      58.173  56.993  22.144  1.00  0.00     0.123 A 
HETATM   15  C11 UNL     1      57.825  58.278  22.619  1.00  0.00     0.153 A 
ENDROOT
BRANCH  11  16
HETATM   16  C6  UNL     1      57.018  53.549  22.731  1.00  0.00     0.272 C 
HETATM   17  O1  UNL     1      55.820  53.367  22.378  1.00  0.00    -0.266 OA
HETATM   18  N5  UNL     1      57.619  52.635  23.630  1.00  0.00    -0.344 N 
ATOM     19  H5  UNL     1      58.588  52.792  23.908  1.00  0.00     0.163 HD
BRANCH  18  20
HETATM   20  C7  UNL     1      56.932  51.502  24.164  1.00  0.00     0.163 C 
BRANCH  20  21
HETATM   21  C8  UNL     1      56.096  51.877  25.395  1.00  0.00     0.194 C 
BRANCH  21  22
HETATM   22  O2  UNL     1      55.071  50.984  25.615  1.00  0.00    -0.399 OA
ATOM     23  H2  UNL     1      54.239  51.309  25.289  1.00  0.00     0.209 HD
ENDBRANCH  21  22
ENDBRANCH  20  21
BRANCH  20  24
HETATM   24  C9  UNL     1      57.879  50.388  24.596  1.00  0.00     0.278 C 
BRANCH  24  25
HETATM   25  O3  UNL     1      57.718  50.103  25.938  1.00  0.00    -0.369 OA
ATOM     26  H3  UNL     1      57.739  49.165  26.087  1.00  0.00     0.212 HD
ENDBRANCH  24  25
BRANCH  24  27
HETATM   27  O4  UNL     1      57.759  49.267  23.801  1.00  0.00    -0.369 OA
ATOM     28  H4  UNL     1      58.595  48.838  23.660  1.00  0.00     0.212 HD
ENDBRANCH  24  27
ENDBRANCH  20  24
ENDBRANCH  18  20
ENDBRANCH  11  16
BRANCH  15  29
HETATM   29  N7  UNL     1      56.887  58.363  23.467  1.00  0.00    -0.290 N 
ATOM     30  H7  UNL     1      55.940  58.295  23.094  1.00  0.00     0.188 HD
BRANCH  29  31
HETATM   31  N8  UNL     1      56.987  58.531  24.801  1.00  0.00    -0.344 N 
ATOM     32  H82 UNL     1      57.913  58.804  25.130  1.00  0.00     0.176 HD
ATOM     33  H81 UNL     1      56.257  58.419  25.504  1.00  0.00     0.176 HD
ENDBRANCH  29  31
ENDBRANCH  15  29
TORSDOF 9
ENDMDL
MODEL 2
REMARK VINA RESULT: -7.149125259      4.169      6.528
REMARK  9 active torsions:
REMARK  status: ('A' for Active; 'I' for Inactive)
REMARK    1  A    between atoms: C5_11  and  C6_12 
REMARK       I    between atoms: C6_12  and  N5_14 
REMARK    2  A    between atoms: N5_14  and  C7_16 
REMARK    3  A    between atoms: C7_16  and  C8_17 
REMARK    4  A    between atoms: C7_16  and  C9_20 
REMARK    5  A    between atoms: C8_17  and  O2_18 
REMARK    6  A    between atoms: C9_20  and  O3_21 
REMARK    7  A    between atoms: C9_20  and  O4_23 
REMARK    8  A    between atoms: C11_28  and  N7_29 
REMARK    9  A    between atoms: N7_29  and  N8_31 
ROOT
HETATM    1  C1  UNL     1      55.492  66.336  22.943  1.00  0.00     0.158 C 
HETATM    2  N1  UNL     1      56.342  65.204  22.579  1.00  0.00    -0.331 N 
HETATM    3  C2  UNL     1      57.390  65.471  21.742  1.00  0.00     0.185 A 
HETATM    4  N2  UNL     1      58.237  64.521  21.339  1.00  0.00    -0.336 N 
ATOM      5  H2  UNL     1      59.007  64.758  20.714  1.00  0.00     0.168 HD
HETATM    6  C3  UNL     1      58.080  63.253  21.752  1.00  0.00     0.138 A 
HETATM    7  N3  UNL     1      58.941  62.273  21.346  1.00  0.00    -0.327 N 
ATOM      8  H3  UNL     1      59.720  62.484  20.721  1.00  0.00     0.168 HD
HETATM    9  C4  UNL     1      58.733  61.017  21.795  1.00  0.00     0.150 A 
HETATM   10  N4  UNL     1      59.575  59.934  21.426  1.00  0.00    -0.080 NA
HETATM   11  C5  UNL     1      57.680  60.732  22.639  1.00  0.00     0.143 A 
HETATM   12  N6  UNL     1      56.840  61.722  23.027  1.00  0.00    -0.343 N 
ATOM     13  H6  UNL     1      56.060  61.516  23.651  1.00  0.00     0.166 HD
HETATM   14  C10 UNL     1      57.037  62.981  22.587  1.00  0.00     0.123 A 
HETATM   15  C11 UNL     1      56.126  63.968  23.028  1.00  0.00     0.153 A 
ENDROOT
BRANCH  11  16
HETATM   16  C6  UNL     1      57.481  59.365  23.107  1.00  0.00     0.272 C 
HETATM   17  O1  UNL     1      57.689  59.078  24.318  1.00  0.00    -0.266 OA
HETATM   18  N5  UNL     1      57.056  58.347  22.219  1.00  0.00    -0.344 N 
ATOM     19  H5  UNL     1      56.891  58.590  21.242  1.00  0.00     0.163 HD
BRANCH  18  20
HETATM   20  C7  UNL     1      56.848  56.994  22.628  1.00  0.00     0.163 C 
BRANCH  20  21
HETATM   21  C8  UNL     1      58.086  56.126  22.365  1.00  0.00     0.194 C 
BRANCH  21  22
HETATM   22  O2  UNL     1      58.899  56.668  21.395  1.00  0.00    -0.399 OA
ATOM     23  H2  UNL     1      59.815  56.653  21.648  1.00  0.00     0.209 HD
ENDBRANCH  21  22
ENDBRANCH  20  21
BRANCH  20  24
HETATM   24  C9  UNL     1      55.682  56.331  21.902  1.00  0.00     0.278 C 
BRANCH  24  25
HETATM   25  O3  UNL     1      54.618  57.203  21.790  1.00  0.00    -0.369 OA
ATOM     26  H3  UNL     1      54.013  57.090  22.513  1.00  0.00     0.212 HD
ENDBRANCH  24  25
BRANCH  24  27
HETATM   27  O4  UNL     1      56.061  55.801  20.687  1.00  0.00    -0.369 OA
ATOM     28  H4  UNL     1      55.706  54.931  20.550  1.00  0.00     0.212 HD
ENDBRANCH  24  27
ENDBRANCH  20  24
ENDBRANCH  18  20
ENDBRANCH  11  16
BRANCH  15  29
HETATM   29  N7  UNL     1      55.191  63.608  23.803  1.00  0.00    -0.290 N 
ATOM     30  H7  UNL     1      55.476  63.276  24.724  1.00  0.00     0.188 HD
BRANCH  29  31
HETATM   31  N8  UNL     1      53.865  63.610  23.560  1.00  0.00    -0.344 N 
ATOM     32  H82 UNL     1      53.587  64.094  22.706  1.00  0.00     0.176 HD
ATOM     33  H81 UNL     1      53.123  63.192  24.123  1.00  0.00     0.176 HD
ENDBRANCH  29  31
ENDBRANCH  15  29
TORSDOF 9
ENDMDL
MODEL 3
REMARK VINA RESULT: -7.072889494      1.016      1.428
REMARK  9 active torsions:
REMARK  status: ('A' for Active; 'I' for Inactive)
REMARK    1  A    between atoms: C5_11  and  C6_12 
REMARK       I    between atoms: C6_12  and  N5_14 
REMARK    2  A    between atoms: N5_14  and  C7_16 
REMARK    3  A    between atoms: C7_16  and  C8_17 
REMARK    4  A    between atoms: C7_16  and  C9_20 
REMARK    5  A    between atoms: C8_17  and  O2_18 
REMARK    6  A    between atoms: C9_20  and  O3_21 
REMARK    7  A    between atoms: C9_20  and  O4_23 
REMARK    8  A    between atoms: C11_28  and  N7_29 
REMARK    9  A    between atoms: N7_29  and  N8_31 
ROOT
HETATM    1  C1  UNL     1      58.535  60.886  22.362  1.00  0.00     0.158 C 
HETATM    2  N1  UNL     1      58.746  59.492  21.979  1.00  0.00    -0.331 N 
HETATM    3  C2  UNL     1      59.573  59.269  20.913  1.00  0.00     0.185 A 
HETATM    4  N2  UNL     1      59.844  58.040  20.469  1.00  0.00    -0.336 N 
ATOM      5  H2  UNL     1      60.466  57.914  19.671  1.00  0.00     0.168 HD
HETATM    6  C3  UNL     1      59.300  56.968  21.067  1.00  0.00     0.138 A 
HETATM    7  N3  UNL     1      59.570  55.705  20.620  1.00  0.00    -0.327 N 
ATOM      8  H3  UNL     1      60.190  55.551  19.824  1.00  0.00     0.168 HD
HETATM    9  C4  UNL     1      58.995  54.666  21.263  1.00  0.00     0.150 A 
HETATM   10  N4  UNL     1      59.216  53.320  20.870  1.00  0.00    -0.080 NA
HETATM   11  C5  UNL     1      58.158  54.876  22.339  1.00  0.00     0.143 A 
HETATM   12  N6  UNL     1      57.906  56.138  22.762  1.00  0.00    -0.343 N 
ATOM     13  H6  UNL     1      57.287  56.296  23.557  1.00  0.00     0.166 HD
HETATM   14  C10 UNL     1      58.475  57.184  22.130  1.00  0.00     0.123 A 
HETATM   15  C11 UNL     1      58.171  58.474  22.620  1.00  0.00     0.153 A 
ENDROOT
BRANCH  11  16
HETATM   16  C6  UNL     1      57.551  53.732  23.011  1.00  0.00     0.272 C 
HETATM   17  O1  UNL     1      56.332  53.464  22.820  1.00  0.00    -0.266 OA
HETATM   18  N5  UNL     1      58.310  52.913  23.882  1.00  0.00    -0.344 N 
ATOM     19  H5  UNL     1      59.293  53.139  24.029  1.00  0.00     0.163 HD
BRANCH  18  20
HETATM   20  C7  UNL     1      57.761  51.784  24.564  1.00  0.00     0.163 C 
BRANCH  20  21
HETATM   21  C8  UNL     1      58.596  51.405  25.794  1.00  0.00     0.194 C 
BRANCH  21  22
HETATM   22  O2  UNL     1      59.801  50.836  25.446  1.00  0.00    -0.399 OA
ATOM     23  H2  UNL     1      60.016  50.987  24.533  1.00  0.00     0.209 HD
ENDBRANCH  21  22
ENDBRANCH  20  21
BRANCH  20  24
HETATM   24  C9  UNL     1      57.687  50.542  23.683  1.00  0.00     0.278 C 
BRANCH  24  25
HETATM   25  O3  UNL     1      58.628  50.601  22.675  1.00  0.00    -0.369 OA
ATOM     26  H3  UNL     1      58.275  50.255  21.864  1.00  0.00     0.212 HD
ENDBRANCH  24  25
BRANCH  24  27
HETATM   27  O4  UNL     1      57.773  49.378  24.417  1.00  0.00    -0.369 OA
ATOM     28  H4  UNL     1      57.033  48.802  24.264  1.00  0.00     0.212 HD
ENDBRANCH  24  27
ENDBRANCH  20  24
ENDBRANCH  18  20
ENDBRANCH  11  16
BRANCH  15  29
HETATM   29  N7  UNL     1      57.391  58.564  23.614  1.00  0.00    -0.290 N 
ATOM     30  H7  UNL     1      56.397  58.455  23.414  1.00  0.00     0.188 HD
BRANCH  29  31
HETATM   31  N8  UNL     1      57.714  58.785  24.905  1.00  0.00    -0.344 N 
ATOM     32  H82 UNL     1      58.696  58.634  25.133  1.00  0.00     0.176 HD
ATOM     33  H81 UNL     1      57.099  59.079  25.664  1.00  0.00     0.176 HD
ENDBRANCH  29  31
ENDBRANCH  15  29
TORSDOF 9
ENDMDL
MODEL 4
REMARK VINA RESULT: -7.049718102      2.838      4.755
REMARK  9 active torsions:
REMARK  status: ('A' for Active; 'I' for Inactive)
REMARK    1  A    between atoms: C5_11  and  C6_12 
REMARK       I    between atoms: C6_12  and  N5_14 
REMARK    2  A    between atoms: N5_14  and  C7_16 
REMARK    3  A    between atoms: C7_16  and  C8_17 
REMARK    4  A    between atoms: C7_16  and  C9_20 
REMARK    5  A    between atoms: C8_17  and  O2_18 
REMARK    6  A    between atoms: C9_20  and  O3_21 
REMARK    7  A    between atoms: C9_20  and  O4_23 
REMARK    8  A    between atoms: C11_28  and  N7_29 
REMARK    9  A    between atoms: N7_29  and  N8_31 
ROOT
HETATM    1  C1  UNL     1      56.154  64.589  23.025  1.00  0.00     0.158 C 
HETATM    2  N1  UNL     1      56.976  63.438  22.658  1.00  0.00    -0.331 N 
HETATM    3  C2  UNL     1      58.025  63.680  21.814  1.00  0.00     0.185 A 
HETATM    4  N2  UNL     1      58.847  62.710  21.407  1.00  0.00    -0.336 N 
ATOM      5  H2  UNL     1      59.618  62.930  20.777  1.00  0.00     0.168 HD
HETATM    6  C3  UNL     1      58.664  61.447  21.822  1.00  0.00     0.138 A 
HETATM    7  N3  UNL     1      59.500  60.447  21.412  1.00  0.00    -0.327 N 
ATOM      8  H3  UNL     1      60.279  60.640  20.783  1.00  0.00     0.168 HD
HETATM    9  C4  UNL     1      59.266  59.196  21.865  1.00  0.00     0.150 A 
HETATM   10  N4  UNL     1      60.081  58.094  21.492  1.00  0.00    -0.080 NA
HETATM   11  C5  UNL     1      58.212  58.937  22.715  1.00  0.00     0.143 A 
HETATM   12  N6  UNL     1      57.397  59.946  23.107  1.00  0.00    -0.343 N 
ATOM     13  H6  UNL     1      56.616  59.758  23.735  1.00  0.00     0.166 HD
HETATM   14  C10 UNL     1      57.620  61.200  22.664  1.00  0.00     0.123 A 
HETATM   15  C11 UNL     1      56.734  62.207  23.109  1.00  0.00     0.153 A 
ENDROOT
BRANCH  11  16
HETATM   16  C6  UNL     1      57.985  57.575  23.186  1.00  0.00     0.272 C 
HETATM   17  O1  UNL     1      58.323  57.250  24.357  1.00  0.00    -0.266 OA
HETATM   18  N5  UNL     1      57.387  56.605  22.345  1.00  0.00    -0.344 N 
ATOM     19  H5  UNL     1      57.118  56.879  21.400  1.00  0.00     0.163 HD
BRANCH  18  20
HETATM   20  C7  UNL     1      57.144  55.259  22.759  1.00  0.00     0.163 C 
BRANCH  20  21
HETATM   21  C8  UNL     1      58.308  54.332  22.381  1.00  0.00     0.194 C 
BRANCH  21  22
HETATM   22  O2  UNL     1      58.216  53.891  21.080  1.00  0.00    -0.399 OA
ATOM     23  H2  UNL     1      59.070  53.725  20.698  1.00  0.00     0.209 HD
ENDBRANCH  21  22
ENDBRANCH  20  21
BRANCH  20  24
HETATM   24  C9  UNL     1      55.887  54.667  22.131  1.00  0.00     0.278 C 
BRANCH  24  25
HETATM   25  O3  UNL     1      55.785  55.033  20.804  1.00  0.00    -0.369 OA
ATOM     26  H3  UNL     1      54.883  55.220  20.575  1.00  0.00     0.212 HD
ENDBRANCH  24  25
BRANCH  24  27
HETATM   27  O4  UNL     1      55.812  53.301  22.309  1.00  0.00    -0.369 OA
ATOM     28  H4  UNL     1      55.993  53.047  23.206  1.00  0.00     0.212 HD
ENDBRANCH  24  27
ENDBRANCH  20  24
ENDBRANCH  18  20
ENDBRANCH  11  16
BRANCH  15  29
HETATM   29  N7  UNL     1      55.796  61.870  23.890  1.00  0.00    -0.290 N 
ATOM     30  H7  UNL     1      54.907  61.640  23.448  1.00  0.00     0.188 HD
BRANCH  29  31
HETATM   31  N8  UNL     1      55.829  61.777  25.235  1.00  0.00    -0.344 N 
ATOM     32  H82 UNL     1      56.444  62.446  25.696  1.00  0.00     0.176 HD
ATOM     33  H81 UNL     1      55.319  61.125  25.832  1.00  0.00     0.176 HD
ENDBRANCH  29  31
ENDBRANCH  15  29
TORSDOF 9
ENDMDL
MODEL 5
REMARK VINA RESULT: -6.934713275      4.093      7.381
REMARK  9 active torsions:
REMARK  status: ('A' for Active; 'I' for Inactive)
REMARK    1  A    between atoms: C5_11  and  C6_12 
REMARK       I    between atoms: C6_12  and  N5_14 
REMARK    2  A    between atoms: N5_14  and  C7_16 
REMARK    3  A    between atoms: C7_16  and  C8_17 
REMARK    4  A    between atoms: C7_16  and  C9_20 
REMARK    5  A    between atoms: C8_17  and  O2_18 
REMARK    6  A    between atoms: C9_20  and  O3_21 
REMARK    7  A    between atoms: C9_20  and  O4_23 
REMARK    8  A    between atoms: C11_28  and  N7_29 
REMARK    9  A    between atoms: N7_29  and  N8_31 
ROOT
HETATM    1  C1  UNL     1      58.958  51.436  24.959  1.00  0.00     0.158 C 
HETATM    2  N1  UNL     1      59.050  52.476  23.937  1.00  0.00    -0.331 N 
HETATM    3  C2  UNL     1      59.043  52.056  22.635  1.00  0.00     0.185 A 
HETATM    4  N2  UNL     1      59.121  52.911  21.612  1.00  0.00    -0.336 N 
ATOM      5  H2  UNL     1      59.114  52.560  20.655  1.00  0.00     0.168 HD
HETATM    6  C3  UNL     1      59.211  54.231  21.838  1.00  0.00     0.138 A 
HETATM    7  N3  UNL     1      59.291  55.115  20.799  1.00  0.00    -0.327 N 
ATOM      8  H3  UNL     1      59.284  54.790  19.832  1.00  0.00     0.168 HD
HETATM    9  C4  UNL     1      59.378  56.431  21.088  1.00  0.00     0.150 A 
HETATM   10  N4  UNL     1      59.466  57.422  20.074  1.00  0.00    -0.080 NA
HETATM   11  C5  UNL     1      59.386  56.870  22.395  1.00  0.00     0.143 A 
HETATM   12  N6  UNL     1      59.306  55.973  23.408  1.00  0.00    -0.343 N 
ATOM     13  H6  UNL     1      59.312  56.293  24.376  1.00  0.00     0.166 HD
HETATM   14  C10 UNL     1      59.217  54.656  23.133  1.00  0.00     0.123 A 
HETATM   15  C11 UNL     1      59.137  53.773  24.234  1.00  0.00     0.153 A 
ENDROOT
BRANCH  11  16
HETATM   16  C6  UNL     1      59.482  58.298  22.675  1.00  0.00     0.272 C 
HETATM   17  O1  UNL     1      60.436  58.740  23.373  1.00  0.00    -0.266 OA
HETATM   18  N5  UNL     1      58.515  59.204  22.174  1.00  0.00    -0.344 N 
ATOM     19  H5  UNL     1      57.748  58.836  21.612  1.00  0.00     0.163 HD
BRANCH  18  20
HETATM   20  C7  UNL     1      58.565  60.610  22.421  1.00  0.00     0.163 C 
BRANCH  20  21
HETATM   21  C8  UNL     1      57.165  61.194  22.649  1.00  0.00     0.194 C 
BRANCH  21  22
HETATM   22  O2  UNL     1      56.784  62.038  21.630  1.00  0.00    -0.399 OA
ATOM     23  H2  UNL     1      56.082  62.623  21.895  1.00  0.00     0.209 HD
ENDBRANCH  21  22
ENDBRANCH  20  21
BRANCH  20  24
HETATM   24  C9  UNL     1      59.185  61.390  21.266  1.00  0.00     0.278 C 
BRANCH  24  25
HETATM   25  O3  UNL     1      59.873  62.491  21.735  1.00  0.00    -0.369 OA
ATOM     26  H3  UNL     1      59.520  63.291  21.364  1.00  0.00     0.212 HD
ENDBRANCH  24  25
BRANCH  24  27
HETATM   27  O4  UNL     1      59.960  60.588  20.456  1.00  0.00    -0.369 OA
ATOM     28  H4  UNL     1      60.277  59.818  20.912  1.00  0.00     0.212 HD
ENDBRANCH  24  27
ENDBRANCH  20  24
ENDBRANCH  18  20
ENDBRANCH  11  16
BRANCH  15  29
HETATM   29  N7  UNL     1      59.152  54.272  25.398  1.00  0.00    -0.290 N 
ATOM     30  H7  UNL     1      58.261  54.631  25.742  1.00  0.00     0.188 HD
BRANCH  29  31
HETATM   31  N8  UNL     1      60.200  54.387  26.238  1.00  0.00    -0.344 N 
ATOM     32  H82 UNL     1      59.957  54.389  27.228  1.00  0.00     0.176 HD
ATOM     33  H81 UNL     1      61.189  54.472  26.000  1.00  0.00     0.176 HD
ENDBRANCH  29  31
ENDBRANCH  15  29
TORSDOF 9
ENDMDL
