MODEL 1
REMARK VINA RESULT: -8.149812255      0.000      0.000
REMARK  5 active torsions:
REMARK  status: ('A' for Active; 'I' for Inactive)
REMARK    1  A    between atoms: C3_7  and  N4_8 
REMARK    2  A    between atoms: N4_8  and  O1_9 
REMARK       I    between atoms: N4_8  and  C4_11 
REMARK       I    between atoms: C4_11  and  N6_13 
REMARK    3  A    between atoms: N6_13  and  O2_15 
REMARK    4  A    between atoms: C5_17  and  C6_18 
REMARK       I    between atoms: C6_18  and  N7_20 
REMARK    5  A    between atoms: N7_20  and  N8_22 
ROOT
HETATM    1  C1  UNL     1      58.971  56.503  23.560  1.00  0.00     0.178 C 
HETATM    2  N1  UNL     1      58.488  55.145  23.365  1.00  0.00    -0.288 N 
HETATM    3  N2  UNL     1      57.188  54.864  23.331  1.00  0.00    -0.284 N 
ATOM      4  H2  UNL     1      56.449  55.557  23.460  1.00  0.00     0.188 HD
HETATM    5  C2  UNL     1      56.969  53.592  23.112  1.00  0.00     0.157 A 
HETATM    6  N3  UNL     1      55.677  53.006  23.019  1.00  0.00    -0.079 NA
HETATM    7  C3  UNL     1      58.233  52.990  22.994  1.00  0.00     0.121 A 
HETATM    8  C5  UNL     1      59.161  53.998  23.159  1.00  0.00     0.147 A 
ENDROOT
BRANCH   8   9
HETATM    9  C6  UNL     1      60.638  53.909  23.171  1.00  0.00     0.290 C 
HETATM   10  O3  UNL     1      61.310  54.783  22.601  1.00  0.00    -0.264 OA
HETATM   11  N7  UNL     1      61.271  52.843  23.818  1.00  0.00    -0.249 N 
ATOM     12  H7  UNL     1      60.645  52.163  24.249  1.00  0.00     0.191 HD
BRANCH  11  13
HETATM   13  N8  UNL     1      62.623  52.572  23.960  1.00  0.00    -0.148 N 
HETATM   14  C7  UNL     1      63.331  51.910  22.990  1.00  0.00     0.364 A 
HETATM   15  O4  UNL     1      62.909  51.470  21.891  1.00  0.00    -0.243 OA
HETATM   16  N9  UNL     1      64.600  51.791  23.396  1.00  0.00    -0.246 N 
HETATM   17  N10 UNL     1      64.752  52.340  24.577  1.00  0.00    -0.246 N 
ATOM     18  H9  UNL     1      65.343  51.338  22.864  1.00  0.00     0.192 HD
HETATM   19  C8  UNL     1      63.510  52.821  24.910  1.00  0.00     0.364 A 
ATOM     20  H10 UNL     1      65.608  52.398  25.129  1.00  0.00     0.192 HD
HETATM   21  O5  UNL     1      63.369  53.401  26.005  1.00  0.00    -0.243 OA
ENDBRANCH  11  13
ENDBRANCH   8   9
BRANCH   7  22
HETATM   22  N4  UNL     1      58.376  51.630  22.773  1.00  0.00    -0.093 NA
HETATM   23  C4  UNL     1      58.152  50.836  23.951  1.00  0.00     0.217 C 
HETATM   24  N5  UNL     1      57.524  49.579  23.789  1.00  0.00    -0.065 NA
HETATM   25  N6  UNL     1      58.492  51.201  25.127  1.00  0.00    -0.244 N 
ATOM     26  H6  UNL     1      58.948  52.104  25.257  1.00  0.00     0.196 HD
BRANCH  22  27
HETATM   27  O1  UNL     1      59.452  51.171  22.177  1.00  0.00    -0.301 OA
ATOM     28  H1  UNL     1      59.375  50.499  21.510  1.00  0.00     0.238 HD
ENDBRANCH  22  27
BRANCH  25  29
HETATM   29  O2  UNL     1      58.259  50.414  26.203  1.00  0.00    -0.288 OA
ATOM     30  H2  UNL     1      58.332  50.753  27.088  1.00  0.00     0.244 HD
ENDBRANCH  25  29
ENDBRANCH   7  22
TORSDOF 5
ENDMDL
MODEL 2
REMARK VINA RESULT: -7.921119394      0.258      1.550
REMARK  5 active torsions:
REMARK  status: ('A' for Active; 'I' for Inactive)
REMARK    1  A    between atoms: C3_7  and  N4_8 
REMARK    2  A    between atoms: N4_8  and  O1_9 
REMARK       I    between atoms: N4_8  and  C4_11 
REMARK       I    between atoms: C4_11  and  N6_13 
REMARK    3  A    between atoms: N6_13  and  O2_15 
REMARK    4  A    between atoms: C5_17  and  C6_18 
REMARK       I    between atoms: C6_18  and  N7_20 
REMARK    5  A    between atoms: N7_20  and  N8_22 
ROOT
HETATM    1  C1  UNL     1      59.030  56.473  23.446  1.00  0.00     0.178 C 
HETATM    2  N1  UNL     1      58.533  55.115  23.288  1.00  0.00    -0.288 N 
HETATM    3  N2  UNL     1      57.232  54.839  23.328  1.00  0.00    -0.284 N 
ATOM      4  H2  UNL     1      56.504  55.535  23.492  1.00  0.00     0.188 HD
HETATM    5  C2  UNL     1      56.997  53.566  23.131  1.00  0.00     0.157 A 
HETATM    6  N3  UNL     1      55.701  52.984  23.114  1.00  0.00    -0.079 NA
HETATM    7  C3  UNL     1      58.251  52.958  22.948  1.00  0.00     0.121 A 
HETATM    8  C5  UNL     1      59.190  53.964  23.054  1.00  0.00     0.147 A 
ENDROOT
BRANCH   8   9
HETATM    9  C6  UNL     1      60.665  53.870  22.985  1.00  0.00     0.290 C 
HETATM   10  O3  UNL     1      61.319  54.813  22.515  1.00  0.00    -0.264 OA
HETATM   11  N7  UNL     1      61.316  52.720  23.445  1.00  0.00    -0.249 N 
ATOM     12  H7  UNL     1      60.704  51.989  23.804  1.00  0.00     0.191 HD
BRANCH  11  13
HETATM   13  N8  UNL     1      62.671  52.429  23.484  1.00  0.00    -0.148 N 
HETATM   14  C7  UNL     1      63.461  52.818  24.535  1.00  0.00     0.364 A 
HETATM   15  O4  UNL     1      63.119  53.455  25.563  1.00  0.00    -0.243 OA
HETATM   16  N9  UNL     1      64.712  52.404  24.303  1.00  0.00    -0.246 N 
HETATM   17  N10 UNL     1      64.774  51.767  23.158  1.00  0.00    -0.246 N 
ATOM     18  H9  UNL     1      65.503  52.560  24.927  1.00  0.00     0.192 HD
HETATM   19  C8  UNL     1      63.493  51.794  22.665  1.00  0.00     0.364 A 
ATOM     20  H10 UNL     1      65.596  51.344  22.728  1.00  0.00     0.192 HD
HETATM   21  O5  UNL     1      63.267  51.249  21.566  1.00  0.00    -0.243 OA
ENDBRANCH  11  13
ENDBRANCH   8   9
BRANCH   7  22
HETATM   22  N4  UNL     1      58.377  51.596  22.730  1.00  0.00    -0.093 NA
HETATM   23  C4  UNL     1      58.177  50.809  23.917  1.00  0.00     0.217 C 
HETATM   24  N5  UNL     1      57.534  49.557  23.777  1.00  0.00    -0.065 NA
HETATM   25  N6  UNL     1      58.549  51.177  25.082  1.00  0.00    -0.244 N 
ATOM     26  H6  UNL     1      59.016  52.076  25.196  1.00  0.00     0.196 HD
BRANCH  22  27
HETATM   27  O1  UNL     1      59.433  51.126  22.108  1.00  0.00    -0.301 OA
ATOM     28  H1  UNL     1      59.936  50.419  22.495  1.00  0.00     0.238 HD
ENDBRANCH  22  27
BRANCH  25  29
HETATM   29  O2  UNL     1      58.337  50.396  26.168  1.00  0.00    -0.288 OA
ATOM     30  H2  UNL     1      59.026  50.235  26.802  1.00  0.00     0.244 HD
ENDBRANCH  25  29
ENDBRANCH   7  22
TORSDOF 5
ENDMDL
MODEL 3
REMARK VINA RESULT: -7.892362860      2.481      5.266
REMARK  5 active torsions:
REMARK  status: ('A' for Active; 'I' for Inactive)
REMARK    1  A    between atoms: C3_7  and  N4_8 
REMARK    2  A    between atoms: N4_8  and  O1_9 
REMARK       I    between atoms: N4_8  and  C4_11 
REMARK       I    between atoms: C4_11  and  N6_13 
REMARK    3  A    between atoms: N6_13  and  O2_15 
REMARK    4  A    between atoms: C5_17  and  C6_18 
REMARK       I    between atoms: C6_18  and  N7_20 
REMARK    5  A    between atoms: N7_20  and  N8_22 
ROOT
HETATM    1  C1  UNL     1      55.763  56.644  23.133  1.00  0.00     0.178 C 
HETATM    2  N1  UNL     1      56.926  56.165  22.402  1.00  0.00    -0.288 N 
HETATM    3  N2  UNL     1      57.685  56.988  21.681  1.00  0.00    -0.284 N 
ATOM      4  H2  UNL     1      57.501  57.986  21.570  1.00  0.00     0.188 HD
HETATM    5  C2  UNL     1      58.696  56.364  21.134  1.00  0.00     0.157 A 
HETATM    6  N3  UNL     1      59.676  56.990  20.314  1.00  0.00    -0.079 NA
HETATM    7  C3  UNL     1      58.589  55.019  21.527  1.00  0.00     0.121 A 
HETATM    8  C5  UNL     1      57.466  54.935  22.323  1.00  0.00     0.147 A 
ENDROOT
BRANCH   8   9
HETATM    9  C6  UNL     1      56.868  53.744  22.965  1.00  0.00     0.290 C 
HETATM   10  O3  UNL     1      55.834  53.246  22.495  1.00  0.00    -0.264 OA
HETATM   11  N7  UNL     1      57.466  53.186  24.100  1.00  0.00    -0.249 N 
ATOM     12  H7  UNL     1      58.305  53.663  24.428  1.00  0.00     0.191 HD
BRANCH  11  13
HETATM   13  N8  UNL     1      57.087  52.079  24.845  1.00  0.00    -0.148 N 
HETATM   14  C7  UNL     1      57.756  50.886  24.754  1.00  0.00     0.364 A 
HETATM   15  O4  UNL     1      58.752  50.612  24.037  1.00  0.00    -0.243 OA
HETATM   16  N9  UNL     1      57.173  50.008  25.578  1.00  0.00    -0.246 N 
HETATM   17  N10 UNL     1      56.162  50.568  26.196  1.00  0.00    -0.246 N 
ATOM     18  H9  UNL     1      57.472  49.041  25.706  1.00  0.00     0.192 HD
HETATM   19  C8  UNL     1      56.125  51.857  25.726  1.00  0.00     0.364 A 
ATOM     20  H10 UNL     1      55.538  50.139  26.880  1.00  0.00     0.192 HD
HETATM   21  O5  UNL     1      55.242  52.624  26.159  1.00  0.00    -0.243 OA
ENDBRANCH  11  13
ENDBRANCH   8   9
BRANCH   7  22
HETATM   22  N4  UNL     1      59.498  54.062  21.108  1.00  0.00    -0.093 NA
HETATM   23  C4  UNL     1      60.603  53.891  22.014  1.00  0.00     0.217 C 
HETATM   24  N5  UNL     1      61.125  52.587  22.177  1.00  0.00    -0.065 NA
HETATM   25  N6  UNL     1      61.135  54.849  22.670  1.00  0.00    -0.244 N 
ATOM     26  H6  UNL     1      60.769  55.794  22.560  1.00  0.00     0.196 HD
BRANCH  22  27
HETATM   27  O1  UNL     1      59.982  54.104  19.888  1.00  0.00    -0.301 OA
ATOM     28  H1  UNL     1      60.228  53.301  19.447  1.00  0.00     0.238 HD
ENDBRANCH  22  27
BRANCH  25  29
HETATM   29  O2  UNL     1      62.175  54.633  23.511  1.00  0.00    -0.288 OA
ATOM     30  H2  UNL     1      62.038  54.297  24.388  1.00  0.00     0.244 HD
ENDBRANCH  25  29
ENDBRANCH   7  22
TORSDOF 5
ENDMDL
MODEL 4
REMARK VINA RESULT: -7.739636424      2.497      5.382
REMARK  5 active torsions:
REMARK  status: ('A' for Active; 'I' for Inactive)
REMARK    1  A    between atoms: C3_7  and  N4_8 
REMARK    2  A    between atoms: N4_8  and  O1_9 
REMARK       I    between atoms: N4_8  and  C4_11 
REMARK       I    between atoms: C4_11  and  N6_13 
REMARK    3  A    between atoms: N6_13  and  O2_15 
REMARK    4  A    between atoms: C5_17  and  C6_18 
REMARK       I    between atoms: C6_18  and  N7_20 
REMARK    5  A    between atoms: N7_20  and  N8_22 
ROOT
HETATM    1  C1  UNL     1      55.749  56.551  23.143  1.00  0.00     0.178 C 
HETATM    2  N1  UNL     1      56.920  56.112  22.398  1.00  0.00    -0.288 N 
HETATM    3  N2  UNL     1      57.637  56.959  21.663  1.00  0.00    -0.284 N 
ATOM      4  H2  UNL     1      57.414  57.948  21.549  1.00  0.00     0.188 HD
HETATM    5  C2  UNL     1      58.664  56.370  21.105  1.00  0.00     0.157 A 
HETATM    6  N3  UNL     1      59.607  57.028  20.268  1.00  0.00    -0.079 NA
HETATM    7  C3  UNL     1      58.613  55.024  21.506  1.00  0.00     0.121 A 
HETATM    8  C5  UNL     1      57.504  54.903  22.318  1.00  0.00     0.147 A 
ENDROOT
BRANCH   8   9
HETATM    9  C6  UNL     1      56.962  53.693  22.975  1.00  0.00     0.290 C 
HETATM   10  O3  UNL     1      55.909  53.186  22.556  1.00  0.00    -0.264 OA
HETATM   11  N7  UNL     1      57.630  53.128  24.066  1.00  0.00    -0.249 N 
ATOM     12  H7  UNL     1      58.480  53.613  24.353  1.00  0.00     0.191 HD
BRANCH  11  13
HETATM   13  N8  UNL     1      57.310  52.005  24.814  1.00  0.00    -0.148 N 
HETATM   14  C7  UNL     1      56.575  52.094  25.968  1.00  0.00     0.364 A 
HETATM   15  O4  UNL     1      56.101  53.128  26.503  1.00  0.00    -0.243 OA
HETATM   16  N9  UNL     1      56.424  50.864  26.472  1.00  0.00    -0.246 N 
HETATM   17  N10 UNL     1      57.022  49.984  25.706  1.00  0.00    -0.246 N 
ATOM     18  H9  UNL     1      55.916  50.643  27.328  1.00  0.00     0.192 HD
HETATM   19  C8  UNL     1      57.567  50.714  24.680  1.00  0.00     0.364 A 
ATOM     20  H10 UNL     1      57.070  48.974  25.843  1.00  0.00     0.192 HD
HETATM   21  O5  UNL     1      58.204  50.112  23.792  1.00  0.00    -0.243 OA
ENDBRANCH  11  13
ENDBRANCH   8   9
BRANCH   7  22
HETATM   22  N4  UNL     1      59.552  54.100  21.080  1.00  0.00    -0.093 NA
HETATM   23  C4  UNL     1      60.667  53.965  21.979  1.00  0.00     0.217 C 
HETATM   24  N5  UNL     1      61.235  52.680  22.136  1.00  0.00    -0.065 NA
HETATM   25  N6  UNL     1      61.169  54.939  22.634  1.00  0.00    -0.244 N 
ATOM     26  H6  UNL     1      60.771  55.871  22.528  1.00  0.00     0.196 HD
BRANCH  22  27
HETATM   27  O1  UNL     1      60.026  54.162  19.857  1.00  0.00    -0.301 OA
ATOM     28  H1  UNL     1      60.964  54.133  19.709  1.00  0.00     0.238 HD
ENDBRANCH  22  27
BRANCH  25  29
HETATM   29  O2  UNL     1      62.221  54.757  23.468  1.00  0.00    -0.288 OA
ATOM     30  H2  UNL     1      63.114  54.887  23.171  1.00  0.00     0.244 HD
ENDBRANCH  25  29
ENDBRANCH   7  22
TORSDOF 5
ENDMDL
MODEL 5
REMARK VINA RESULT: -7.635028074      2.287      5.631
REMARK  5 active torsions:
REMARK  status: ('A' for Active; 'I' for Inactive)
REMARK    1  A    between atoms: C3_7  and  N4_8 
REMARK    2  A    between atoms: N4_8  and  O1_9 
REMARK       I    between atoms: N4_8  and  C4_11 
REMARK       I    between atoms: C4_11  and  N6_13 
REMARK    3  A    between atoms: N6_13  and  O2_15 
REMARK    4  A    between atoms: C5_17  and  C6_18 
REMARK       I    between atoms: C6_18  and  N7_20 
REMARK    5  A    between atoms: N7_20  and  N8_22 
ROOT
HETATM    1  C1  UNL     1      63.381  52.202  25.986  1.00  0.00     0.178 C 
HETATM    2  N1  UNL     1      62.734  52.246  24.684  1.00  0.00    -0.288 N 
HETATM    3  N2  UNL     1      63.410  52.550  23.578  1.00  0.00    -0.284 N 
ATOM      4  H2  UNL     1      64.401  52.793  23.562  1.00  0.00     0.188 HD
HETATM    5  C2  UNL     1      62.651  52.501  22.513  1.00  0.00     0.157 A 
HETATM    6  N3  UNL     1      63.103  52.773  21.193  1.00  0.00    -0.079 NA
HETATM    7  C3  UNL     1      61.369  52.135  22.960  1.00  0.00     0.121 A 
HETATM    8  C5  UNL     1      61.463  51.984  24.328  1.00  0.00     0.147 A 
ENDROOT
BRANCH   8   9
HETATM    9  C6  UNL     1      60.400  51.649  25.301  1.00  0.00     0.290 C 
HETATM   10  O3  UNL     1      60.704  51.143  26.393  1.00  0.00    -0.264 OA
HETATM   11  N7  UNL     1      59.060  51.897  24.988  1.00  0.00    -0.249 N 
ATOM     12  H7  UNL     1      58.896  52.302  24.067  1.00  0.00     0.191 HD
BRANCH  11  13
HETATM   13  N8  UNL     1      57.919  51.674  25.746  1.00  0.00    -0.148 N 
HETATM   14  C7  UNL     1      57.003  50.714  25.401  1.00  0.00     0.364 A 
HETATM   15  O4  UNL     1      57.037  49.932  24.418  1.00  0.00    -0.243 OA
HETATM   16  N9  UNL     1      56.016  50.726  26.304  1.00  0.00    -0.246 N 
HETATM   17  N10 UNL     1      56.244  51.641  27.215  1.00  0.00    -0.246 N 
ATOM     18  H9  UNL     1      55.202  50.110  26.288  1.00  0.00     0.192 HD
HETATM   19  C8  UNL     1      57.434  52.220  26.849  1.00  0.00     0.364 A 
ATOM     20  H10 UNL     1      55.664  51.873  28.021  1.00  0.00     0.192 HD
HETATM   21  O5  UNL     1      57.892  53.139  27.556  1.00  0.00    -0.243 OA
ENDBRANCH  11  13
ENDBRANCH   8   9
BRANCH   7  22
HETATM   22  N4  UNL     1      60.302  52.005  22.087  1.00  0.00    -0.093 NA
HETATM   23  C4  UNL     1      59.648  53.253  21.797  1.00  0.00     0.217 C 
HETATM   24  N5  UNL     1      59.144  53.444  20.490  1.00  0.00    -0.065 NA
HETATM   25  N6  UNL     1      59.498  54.189  22.653  1.00  0.00    -0.244 N 
ATOM     26  H6  UNL     1      59.855  54.063  23.600  1.00  0.00     0.196 HD
BRANCH  22  27
HETATM   27  O1  UNL     1      59.372  51.107  22.317  1.00  0.00    -0.301 OA
ATOM     28  H1  UNL     1      58.610  51.057  21.751  1.00  0.00     0.238 HD
ENDBRANCH  22  27
BRANCH  25  29
HETATM   29  O2  UNL     1      58.873  55.346  22.328  1.00  0.00    -0.288 OA
ATOM     30  H2  UNL     1      58.050  55.592  22.733  1.00  0.00     0.244 HD
ENDBRANCH  25  29
ENDBRANCH   7  22
TORSDOF 5
ENDMDL
