MODEL 1
REMARK VINA RESULT: -7.431039373      0.000      0.000
REMARK  8 active torsions:
REMARK  status: ('A' for Active; 'I' for Inactive)
REMARK    1  A    between atoms: N1_1  and  C1_4 
REMARK    2  A    between atoms: C2_7  and  S1_8 
REMARK    3  A    between atoms: S1_8  and  C3_9 
REMARK    4  A    between atoms: C3_9  and  C4_10 
REMARK       I    between atoms: N5_18  and  C6_19 
REMARK    5  A    between atoms: C6_19  and  C7_21 
REMARK    6  A    between atoms: C7_21  and  N6_22 
REMARK    7  A    between atoms: C7_21  and  N7_26 
REMARK    8  A    between atoms: N7_26  and  N8_27 
ROOT
HETATM    1  C1  UNL     1      58.880  57.844  22.738  1.00  0.00     0.132 A 
HETATM    2  N2  UNL     1      57.939  56.960  23.100  1.00  0.00    -0.321 N 
ATOM      3  H2  UNL     1      58.199  55.978  23.190  1.00  0.00     0.169 HD
HETATM    4  C2  UNL     1      56.666  57.317  23.347  1.00  0.00     0.147 A 
HETATM    5  N3  UNL     1      56.326  58.600  23.228  1.00  0.00    -0.320 N 
ATOM      6  H3  UNL     1      55.363  58.879  23.413  1.00  0.00     0.169 HD
HETATM    7  C5  UNL     1      57.215  59.531  22.872  1.00  0.00     0.153 A 
HETATM    8  N4  UNL     1      56.859  60.818  22.757  1.00  0.00    -0.270 N 
ATOM      9  H4  UNL     1      55.888  61.067  22.949  1.00  0.00     0.189 HD
HETATM   10  N5  UNL     1      57.705  61.796  22.404  1.00  0.00    -0.167 N 
HETATM   11  C6  UNL     1      57.275  63.142  22.318  1.00  0.00     0.295 C 
HETATM   12  O3  UNL     1      56.053  63.345  22.646  1.00  0.00    -0.267 OA
HETATM   13  C8  UNL     1      58.964  61.410  22.165  1.00  0.00     0.349 A 
HETATM   14  O4  UNL     1      59.864  62.224  21.828  1.00  0.00    -0.245 OA
HETATM   15  N9  UNL     1      59.388  60.117  22.265  1.00  0.00    -0.301 N 
ATOM     16  H9  UNL     1      60.360  59.874  22.073  1.00  0.00     0.171 HD
HETATM   17  C9  UNL     1      58.513  59.176  22.619  1.00  0.00     0.126 A 
ENDROOT
BRANCH  11  18
HETATM   18  C7  UNL     1      58.061  64.299  21.905  1.00  0.00     0.388 C 
BRANCH  18  19
HETATM   19  N6  UNL     1      57.959  64.362  20.425  1.00  0.00    -0.051 N 
ATOM     20  H63 UNL     1      58.418  65.179  20.021  1.00  0.00     0.276 HD
ATOM     21  H62 UNL     1      58.520  63.656  19.949  1.00  0.00     0.276 HD
ATOM     22  H61 UNL     1      56.964  64.306  20.205  1.00  0.00     0.276 HD
ENDBRANCH  18  19
BRANCH  18  23
HETATM   23  N7  UNL     1      57.373  65.512  22.407  1.00  0.00    -0.105 NA
BRANCH  23  24
HETATM   24  N8  UNL     1      56.981  66.218  21.263  1.00  0.00    -0.346 N 
ATOM     25  H82 UNL     1      57.585  66.769  20.653  1.00  0.00     0.172 HD
ATOM     26  H81 UNL     1      55.977  66.060  21.177  1.00  0.00     0.172 HD
ENDBRANCH  23  24
ENDBRANCH  18  23
ENDBRANCH  11  18
BRANCH   4  27
HETATM   27  S1  UNL     1      55.432  56.103  23.826  1.00  0.00    -0.083 SA
BRANCH  27  28
HETATM   28  C3  UNL     1      55.953  54.478  23.217  1.00  0.00     0.195 C 
BRANCH  28  29
HETATM   29  C4  UNL     1      56.328  54.499  21.804  1.00  0.00     0.182 C 
HETATM   30  O1  UNL     1      57.499  54.156  21.493  1.00  0.00    -0.647 OA
HETATM   31  O2  UNL     1      55.438  54.881  20.825  1.00  0.00    -0.647 OA
ENDBRANCH  28  29
ENDBRANCH  27  28
ENDBRANCH   4  27
BRANCH   1  32
HETATM   32  N1  UNL     1      60.101  57.545  22.494  1.00  0.00    -0.383 N 
ATOM     33  H12 UNL     1      60.548  56.860  23.103  1.00  0.00     0.157 HD
ATOM     34  H11 UNL     1      60.653  57.945  21.735  1.00  0.00     0.157 HD
ENDBRANCH   1  32
TORSDOF 8
ENDMDL
MODEL 2
REMARK VINA RESULT: -7.311349267      8.236     10.262
REMARK  8 active torsions:
REMARK  status: ('A' for Active; 'I' for Inactive)
REMARK    1  A    between atoms: N1_1  and  C1_4 
REMARK    2  A    between atoms: C2_7  and  S1_8 
REMARK    3  A    between atoms: S1_8  and  C3_9 
REMARK    4  A    between atoms: C3_9  and  C4_10 
REMARK       I    between atoms: N5_18  and  C6_19 
REMARK    5  A    between atoms: C6_19  and  C7_21 
REMARK    6  A    between atoms: C7_21  and  N6_22 
REMARK    7  A    between atoms: C7_21  and  N7_26 
REMARK    8  A    between atoms: N7_26  and  N8_27 
ROOT
HETATM    1  C1  UNL     1      60.228  52.652  23.650  1.00  0.00     0.132 A 
HETATM    2  N2  UNL     1      61.235  52.217  24.422  1.00  0.00    -0.321 N 
ATOM      3  H2  UNL     1      62.191  52.447  24.154  1.00  0.00     0.169 HD
HETATM    4  C2  UNL     1      61.033  51.490  25.535  1.00  0.00     0.147 A 
HETATM    5  N3  UNL     1      59.783  51.189  25.885  1.00  0.00    -0.320 N 
ATOM      6  H3  UNL     1      59.621  50.637  26.727  1.00  0.00     0.169 HD
HETATM    7  C5  UNL     1      58.735  51.591  25.160  1.00  0.00     0.153 A 
HETATM    8  N4  UNL     1      57.483  51.280  25.526  1.00  0.00    -0.270 N 
ATOM      9  H4  UNL     1      57.353  50.727  26.373  1.00  0.00     0.189 HD
HETATM   10  N5  UNL     1      56.394  51.655  24.840  1.00  0.00    -0.167 N 
HETATM   11  C6  UNL     1      55.094  51.313  25.285  1.00  0.00     0.295 C 
HETATM   12  O3  UNL     1      55.049  50.675  26.396  1.00  0.00    -0.267 OA
HETATM   13  C8  UNL     1      56.627  52.377  23.738  1.00  0.00     0.349 A 
HETATM   14  O4  UNL     1      55.697  52.798  23.001  1.00  0.00    -0.245 OA
HETATM   15  N9  UNL     1      57.877  52.725  23.314  1.00  0.00    -0.301 N 
ATOM     16  H9  UNL     1      58.002  53.279  22.466  1.00  0.00     0.171 HD
HETATM   17  C9  UNL     1      58.932  52.332  24.026  1.00  0.00     0.126 A 
ENDROOT
BRANCH  11  18
HETATM   18  C7  UNL     1      53.826  51.606  24.627  1.00  0.00     0.388 C 
BRANCH  18  19
HETATM   19  N6  UNL     1      53.649  50.562  23.585  1.00  0.00    -0.051 N 
ATOM     20  H63 UNL     1      54.479  49.987  23.443  1.00  0.00     0.276 HD
ATOM     21  H62 UNL     1      53.023  49.809  23.869  1.00  0.00     0.276 HD
ATOM     22  H61 UNL     1      53.343  51.050  22.743  1.00  0.00     0.276 HD
ENDBRANCH  18  19
BRANCH  18  23
HETATM   23  N7  UNL     1      52.744  51.376  25.613  1.00  0.00    -0.105 NA
BRANCH  23  24
HETATM   24  N8  UNL     1      51.690  52.204  25.209  1.00  0.00    -0.346 N 
ATOM     25  H82 UNL     1      51.737  52.953  24.518  1.00  0.00     0.172 HD
ATOM     26  H81 UNL     1      50.882  51.898  25.750  1.00  0.00     0.172 HD
ENDBRANCH  23  24
ENDBRANCH  18  23
ENDBRANCH  11  18
BRANCH   4  27
HETATM   27  S1  UNL     1      62.408  50.923  26.542  1.00  0.00    -0.083 SA
BRANCH  27  28
HETATM   28  C3  UNL     1      63.939  51.122  25.595  1.00  0.00     0.195 C 
BRANCH  28  29
HETATM   29  C4  UNL     1      64.304  52.525  25.403  1.00  0.00     0.182 C 
HETATM   30  O1  UNL     1      63.835  53.378  26.203  1.00  0.00    -0.647 OA
HETATM   31  O2  UNL     1      65.137  52.922  24.382  1.00  0.00    -0.647 OA
ENDBRANCH  28  29
ENDBRANCH  27  28
ENDBRANCH   4  27
BRANCH   1  32
HETATM   32  N1  UNL     1      60.378  53.345  22.584  1.00  0.00    -0.383 N 
ATOM     33  H12 UNL     1      61.147  53.092  21.963  1.00  0.00     0.157 HD
ATOM     34  H11 UNL     1      59.783  54.130  22.316  1.00  0.00     0.157 HD
ENDBRANCH   1  32
TORSDOF 8
ENDMDL
MODEL 3
REMARK VINA RESULT: -7.233575117      6.885      9.795
REMARK  8 active torsions:
REMARK  status: ('A' for Active; 'I' for Inactive)
REMARK    1  A    between atoms: N1_1  and  C1_4 
REMARK    2  A    between atoms: C2_7  and  S1_8 
REMARK    3  A    between atoms: S1_8  and  C3_9 
REMARK    4  A    between atoms: C3_9  and  C4_10 
REMARK       I    between atoms: N5_18  and  C6_19 
REMARK    5  A    between atoms: C6_19  and  C7_21 
REMARK    6  A    between atoms: C7_21  and  N6_22 
REMARK    7  A    between atoms: C7_21  and  N7_26 
REMARK    8  A    between atoms: N7_26  and  N8_27 
ROOT
HETATM    1  C1  UNL     1      59.777  54.306  21.566  1.00  0.00     0.132 A 
HETATM    2  N2  UNL     1      61.051  53.887  21.583  1.00  0.00    -0.321 N 
ATOM      3  H2  UNL     1      61.740  54.394  21.028  1.00  0.00     0.169 HD
HETATM    4  C2  UNL     1      61.456  52.826  22.304  1.00  0.00     0.147 A 
HETATM    5  N3  UNL     1      60.554  52.163  23.028  1.00  0.00    -0.320 N 
ATOM      6  H3  UNL     1      60.853  51.357  23.577  1.00  0.00     0.169 HD
HETATM    7  C5  UNL     1      59.270  52.528  23.055  1.00  0.00     0.153 A 
HETATM    8  N4  UNL     1      58.375  51.852  23.790  1.00  0.00    -0.270 N 
ATOM      9  H4  UNL     1      58.703  51.050  24.329  1.00  0.00     0.189 HD
HETATM   10  N5  UNL     1      57.075  52.170  23.856  1.00  0.00    -0.167 N 
HETATM   11  C6  UNL     1      56.179  51.430  24.665  1.00  0.00     0.295 C 
HETATM   12  O3  UNL     1      56.715  50.486  25.348  1.00  0.00    -0.267 OA
HETATM   13  C8  UNL     1      56.702  53.230  23.130  1.00  0.00     0.349 A 
HETATM   14  O4  UNL     1      55.513  53.642  23.101  1.00  0.00    -0.245 OA
HETATM   15  N9  UNL     1      57.565  53.959  22.363  1.00  0.00    -0.301 N 
ATOM     16  H9  UNL     1      57.232  54.761  21.827  1.00  0.00     0.171 HD
HETATM   17  C9  UNL     1      58.850  53.608  22.325  1.00  0.00     0.126 A 
ENDROOT
BRANCH  11  18
HETATM   18  C7  UNL     1      54.741  51.624  24.803  1.00  0.00     0.388 C 
BRANCH  18  19
HETATM   19  N6  UNL     1      54.110  50.827  23.720  1.00  0.00    -0.051 N 
ATOM     20  H63 UNL     1      54.103  51.304  22.818  1.00  0.00     0.276 HD
ATOM     21  H62 UNL     1      54.666  50.022  23.432  1.00  0.00     0.276 HD
ATOM     22  H61 UNL     1      53.178  50.579  24.055  1.00  0.00     0.276 HD
ENDBRANCH  18  19
BRANCH  18  23
HETATM   23  N7  UNL     1      54.319  50.982  26.071  1.00  0.00    -0.105 NA
BRANCH  23  24
HETATM   24  N8  UNL     1      54.577  51.927  27.070  1.00  0.00    -0.346 N 
ATOM     25  H82 UNL     1      55.427  52.002  27.630  1.00  0.00     0.172 HD
ATOM     26  H81 UNL     1      53.743  52.513  27.112  1.00  0.00     0.172 HD
ENDBRANCH  23  24
ENDBRANCH  18  23
ENDBRANCH  11  18
BRANCH   4  27
HETATM   27  S1  UNL     1      63.171  52.293  22.300  1.00  0.00    -0.083 SA
BRANCH  27  28
HETATM   28  C3  UNL     1      63.617  51.769  23.976  1.00  0.00     0.195 C 
BRANCH  28  29
HETATM   29  C4  UNL     1      64.540  52.697  24.629  1.00  0.00     0.182 C 
HETATM   30  O1  UNL     1      65.385  53.298  23.915  1.00  0.00    -0.647 OA
HETATM   31  O2  UNL     1      64.500  52.920  25.987  1.00  0.00    -0.647 OA
ENDBRANCH  28  29
ENDBRANCH  27  28
ENDBRANCH   4  27
BRANCH   1  32
HETATM   32  N1  UNL     1      59.352  55.310  20.894  1.00  0.00    -0.383 N 
ATOM     33  H12 UNL     1      58.449  55.705  21.160  1.00  0.00     0.157 HD
ATOM     34  H11 UNL     1      59.853  55.737  20.115  1.00  0.00     0.157 HD
ENDBRANCH   1  32
TORSDOF 8
ENDMDL
MODEL 4
REMARK VINA RESULT: -7.189629245      3.582      8.599
REMARK  8 active torsions:
REMARK  status: ('A' for Active; 'I' for Inactive)
REMARK    1  A    between atoms: N1_1  and  C1_4 
REMARK    2  A    between atoms: C2_7  and  S1_8 
REMARK    3  A    between atoms: S1_8  and  C3_9 
REMARK    4  A    between atoms: C3_9  and  C4_10 
REMARK       I    between atoms: N5_18  and  C6_19 
REMARK    5  A    between atoms: C6_19  and  C7_21 
REMARK    6  A    between atoms: C7_21  and  N6_22 
REMARK    7  A    between atoms: C7_21  and  N7_26 
REMARK    8  A    between atoms: N7_26  and  N8_27 
ROOT
HETATM    1  C1  UNL     1      59.212  57.057  20.986  1.00  0.00     0.132 A 
HETATM    2  N2  UNL     1      58.860  58.263  21.455  1.00  0.00    -0.321 N 
ATOM      3  H2  UNL     1      59.146  59.092  20.935  1.00  0.00     0.169 HD
HETATM    4  C2  UNL     1      58.145  58.423  22.583  1.00  0.00     0.147 A 
HETATM    5  N3  UNL     1      57.773  57.338  23.263  1.00  0.00    -0.320 N 
ATOM      6  H3  UNL     1      57.231  57.451  24.120  1.00  0.00     0.169 HD
HETATM    7  C5  UNL     1      58.090  56.108  22.851  1.00  0.00     0.153 A 
HETATM    8  N4  UNL     1      57.707  55.028  23.546  1.00  0.00    -0.270 N 
ATOM      9  H4  UNL     1      57.166  55.171  24.399  1.00  0.00     0.189 HD
HETATM   10  N5  UNL     1      57.996  53.770  23.183  1.00  0.00    -0.167 N 
HETATM   11  C6  UNL     1      57.548  52.665  23.947  1.00  0.00     0.295 C 
HETATM   12  O3  UNL     1      56.821  52.963  24.960  1.00  0.00    -0.267 OA
HETATM   13  C8  UNL     1      58.707  53.643  22.057  1.00  0.00     0.349 A 
HETATM   14  O4  UNL     1      59.045  52.521  21.597  1.00  0.00    -0.245 OA
HETATM   15  N9  UNL     1      59.125  54.704  21.306  1.00  0.00    -0.301 N 
ATOM     16  H9  UNL     1      59.666  54.555  20.453  1.00  0.00     0.171 HD
HETATM   17  C9  UNL     1      58.817  55.937  21.704  1.00  0.00     0.126 A 
ENDROOT
BRANCH  11  18
HETATM   18  C7  UNL     1      57.819  51.253  23.708  1.00  0.00     0.388 C 
BRANCH  18  19
HETATM   19  N6  UNL     1      59.048  50.930  24.477  1.00  0.00    -0.051 N 
ATOM     20  H63 UNL     1      59.901  50.987  23.921  1.00  0.00     0.276 HD
ATOM     21  H62 UNL     1      59.297  51.645  25.161  1.00  0.00     0.276 HD
ATOM     22  H61 UNL     1      58.892  50.010  24.890  1.00  0.00     0.276 HD
ENDBRANCH  18  19
BRANCH  18  23
HETATM   23  N7  UNL     1      56.731  50.471  24.343  1.00  0.00    -0.105 NA
BRANCH  23  24
HETATM   24  N8  UNL     1      57.240  50.064  25.581  1.00  0.00    -0.346 N 
ATOM     25  H82 UNL     1      57.475  50.667  26.370  1.00  0.00     0.172 HD
ATOM     26  H81 UNL     1      57.322  49.049  25.520  1.00  0.00     0.172 HD
ENDBRANCH  23  24
ENDBRANCH  18  23
ENDBRANCH  11  18
BRANCH   4  27
HETATM   27  S1  UNL     1      57.695  60.055  23.181  1.00  0.00    -0.083 SA
BRANCH  27  28
HETATM   28  C3  UNL     1      57.831  61.231  21.809  1.00  0.00     0.195 C 
BRANCH  28  29
HETATM   29  C4  UNL     1      59.219  61.519  21.449  1.00  0.00     0.182 C 
HETATM   30  O1  UNL     1      59.803  62.467  22.037  1.00  0.00    -0.647 OA
HETATM   31  O2  UNL     1      59.886  60.782  20.497  1.00  0.00    -0.647 OA
ENDBRANCH  28  29
ENDBRANCH  27  28
ENDBRANCH   4  27
BRANCH   1  32
HETATM   32  N1  UNL     1      59.891  56.863  19.918  1.00  0.00    -0.383 N 
ATOM     33  H12 UNL     1      59.935  57.627  19.244  1.00  0.00     0.157 HD
ATOM     34  H11 UNL     1      60.389  55.999  19.698  1.00  0.00     0.157 HD
ENDBRANCH   1  32
TORSDOF 8
ENDMDL
MODEL 5
REMARK VINA RESULT: -7.057721279      3.499      8.652
REMARK  8 active torsions:
REMARK  status: ('A' for Active; 'I' for Inactive)
REMARK    1  A    between atoms: N1_1  and  C1_4 
REMARK    2  A    between atoms: C2_7  and  S1_8 
REMARK    3  A    between atoms: S1_8  and  C3_9 
REMARK    4  A    between atoms: C3_9  and  C4_10 
REMARK       I    between atoms: N5_18  and  C6_19 
REMARK    5  A    between atoms: C6_19  and  C7_21 
REMARK    6  A    between atoms: C7_21  and  N6_22 
REMARK    7  A    between atoms: C7_21  and  N7_26 
REMARK    8  A    between atoms: N7_26  and  N8_27 
ROOT
HETATM    1  C1  UNL     1      59.180  57.051  21.033  1.00  0.00     0.132 A 
HETATM    2  N2  UNL     1      58.797  58.241  21.520  1.00  0.00    -0.321 N 
ATOM      3  H2  UNL     1      59.065  59.085  21.016  1.00  0.00     0.169 HD
HETATM    4  C2  UNL     1      58.073  58.363  22.647  1.00  0.00     0.147 A 
HETATM    5  N3  UNL     1      57.723  57.259  23.306  1.00  0.00    -0.320 N 
ATOM      6  H3  UNL     1      57.175  57.343  24.162  1.00  0.00     0.169 HD
HETATM    7  C5  UNL     1      58.072  56.044  22.875  1.00  0.00     0.153 A 
HETATM    8  N4  UNL     1      57.712  54.942  23.549  1.00  0.00    -0.270 N 
ATOM      9  H4  UNL     1      57.164  55.058  24.401  1.00  0.00     0.189 HD
HETATM   10  N5  UNL     1      58.033  53.698  23.166  1.00  0.00    -0.167 N 
HETATM   11  C6  UNL     1      57.608  52.570  23.908  1.00  0.00     0.295 C 
HETATM   12  O3  UNL     1      56.869  52.833  24.922  1.00  0.00    -0.267 OA
HETATM   13  C8  UNL     1      58.753  53.608  22.041  1.00  0.00     0.349 A 
HETATM   14  O4  UNL     1      59.120  52.503  21.564  1.00  0.00    -0.245 OA
HETATM   15  N9  UNL     1      59.149  54.692  21.311  1.00  0.00    -0.301 N 
ATOM     16  H9  UNL     1      59.696  54.570  20.459  1.00  0.00     0.171 HD
HETATM   17  C9  UNL     1      58.809  55.910  21.728  1.00  0.00     0.126 A 
ENDROOT
BRANCH  11  18
HETATM   18  C7  UNL     1      57.914  51.169  23.646  1.00  0.00     0.388 C 
BRANCH  18  19
HETATM   19  N6  UNL     1      59.138  50.859  24.428  1.00  0.00    -0.051 N 
ATOM     20  H63 UNL     1      59.977  50.778  23.853  1.00  0.00     0.276 HD
ATOM     21  H62 UNL     1      59.458  51.637  25.006  1.00  0.00     0.276 HD
ATOM     22  H61 UNL     1      58.929  50.015  24.962  1.00  0.00     0.276 HD
ENDBRANCH  18  19
BRANCH  18  23
HETATM   23  N7  UNL     1      56.835  50.351  24.249  1.00  0.00    -0.105 NA
BRANCH  23  24
HETATM   24  N8  UNL     1      57.303  49.998  25.520  1.00  0.00    -0.346 N 
ATOM     25  H82 UNL     1      56.795  50.087  26.400  1.00  0.00     0.172 HD
ATOM     26  H81 UNL     1      58.245  49.638  25.372  1.00  0.00     0.172 HD
ENDBRANCH  23  24
ENDBRANCH  18  23
ENDBRANCH  11  18
BRANCH   4  27
HETATM   27  S1  UNL     1      57.580  59.974  23.271  1.00  0.00    -0.083 SA
BRANCH  27  28
HETATM   28  C3  UNL     1      58.344  61.252  22.238  1.00  0.00     0.195 C 
BRANCH  28  29
HETATM   29  C4  UNL     1      57.359  62.138  21.619  1.00  0.00     0.182 C 
HETATM   30  O1  UNL     1      57.487  62.410  20.396  1.00  0.00    -0.647 OA
HETATM   31  O2  UNL     1      56.312  62.670  22.338  1.00  0.00    -0.647 OA
ENDBRANCH  28  29
ENDBRANCH  27  28
ENDBRANCH   4  27
BRANCH   1  32
HETATM   32  N1  UNL     1      59.869  56.892  19.965  1.00  0.00    -0.383 N 
ATOM     33  H12 UNL     1      60.175  55.946  19.740  1.00  0.00     0.157 HD
ATOM     34  H11 UNL     1      60.131  57.646  19.329  1.00  0.00     0.157 HD
ENDBRANCH   1  32
TORSDOF 8
ENDMDL
