MODEL 1
REMARK VINA RESULT: -8.441320496      0.000      0.000
REMARK  7 active torsions:
REMARK  status: ('A' for Active; 'I' for Inactive)
REMARK    1  A    between atoms: N3_4  and  C2_6 
REMARK    2  A    between atoms: C2_6  and  C3_7 
REMARK    3  A    between atoms: C2_6  and  C12_22 
REMARK       I    between atoms: C3_7  and  N4_9 
REMARK    4  A    between atoms: N4_9  and  N5_11 
REMARK       I    between atoms: N5_11  and  C4_13 
REMARK    5  A    between atoms: C4_13  and  C5_15 
REMARK    6  A    between atoms: C5_15  and  C6_16 
REMARK    7  A    between atoms: C12_22  and  C13_24 
ROOT
HETATM    1  C3  UNL     1      10.405  16.397  15.106  1.00  0.00     0.290 C 
HETATM    2  O1  UNL     1       9.402  15.886  14.475  1.00  0.00    -0.264 OA
HETATM    3  N4  UNL     1      10.768  17.717  14.695  1.00  0.00    -0.262 N 
ATOM      4  H4  UNL     1      11.529  18.226  15.146  1.00  0.00     0.190 HD
ENDROOT
BRANCH   1   5
HETATM    5  C2  UNL     1      11.102  15.662  16.139  1.00  0.00     0.155 C 
BRANCH   5   6
HETATM    6  N3  UNL     1      10.499  15.820  17.438  1.00  0.00    -0.325 N 
HETATM    7  C1  UNL     1       9.712  14.997  17.982  1.00  0.00     0.201 C 
HETATM    8  N1  UNL     1       9.166  15.226  19.259  1.00  0.00    -0.066 NA
HETATM    9  N2  UNL     1       9.368  13.803  17.304  1.00  0.00    -0.066 NA
ATOM     10  H3  UNL     1      10.727  16.666  17.961  1.00  0.00     0.168 HD
ENDBRANCH   5   6
BRANCH   5  11
HETATM   11  C12 UNL     1      12.550  15.686  16.079  1.00  0.00     0.214 C 
HETATM   12  O3  UNL     1      13.119  15.950  14.945  1.00  0.00    -0.285 OA
BRANCH  11  13
HETATM   13  C13 UNL     1      13.512  15.440  17.150  1.00  0.00     0.017 A 
HETATM   14  C14 UNL     1      14.472  16.424  17.471  1.00  0.00     0.015 A 
HETATM   15  C15 UNL     1      15.401  16.250  18.468  1.00  0.00     0.001 A 
HETATM   16  C16 UNL     1      15.439  15.097  19.208  1.00  0.00     0.000 A 
HETATM   17  C17 UNL     1      14.530  14.120  18.933  1.00  0.00     0.001 A 
HETATM   18  C18 UNL     1      13.580  14.315  17.904  1.00  0.00     0.015 A 
ENDBRANCH  11  13
ENDBRANCH   5  11
ENDBRANCH   1   5
BRANCH   3  19
HETATM   19  N5  UNL     1      10.033  18.279  13.649  1.00  0.00    -0.267 N 
HETATM   20  C4  UNL     1      10.590  18.840  12.478  1.00  0.00     0.240 C 
HETATM   21  O2  UNL     1      11.841  18.884  12.295  1.00  0.00    -0.272 OA
ATOM     22  H5  UNL     1       9.016  18.283  13.737  1.00  0.00     0.190 HD
BRANCH  20  23
HETATM   23  C5  UNL     1       9.646  19.392  11.442  1.00  0.00     0.143 C 
BRANCH  23  24
HETATM   24  C6  UNL     1       9.084  18.338  10.587  1.00  0.00    -0.049 A 
HETATM   25  C7  UNL     1       9.792  17.653   9.642  1.00  0.00     0.007 A 
HETATM   26  C8  UNL     1       9.215  16.653   8.871  1.00  0.00     0.001 A 
HETATM   27  C9  UNL     1       7.888  16.312   9.034  1.00  0.00     0.000 A 
HETATM   28  C10 UNL     1       7.189  17.003   9.980  1.00  0.00     0.001 A 
HETATM   29  C11 UNL     1       7.739  17.992  10.749  1.00  0.00     0.007 A 
ENDBRANCH  23  24
ENDBRANCH  20  23
ENDBRANCH   3  19
TORSDOF 7
ENDMDL
MODEL 2
REMARK VINA RESULT: -8.344280714      2.814      8.892
REMARK  7 active torsions:
REMARK  status: ('A' for Active; 'I' for Inactive)
REMARK    1  A    between atoms: N3_4  and  C2_6 
REMARK    2  A    between atoms: C2_6  and  C3_7 
REMARK    3  A    between atoms: C2_6  and  C12_22 
REMARK       I    between atoms: C3_7  and  N4_9 
REMARK    4  A    between atoms: N4_9  and  N5_11 
REMARK       I    between atoms: N5_11  and  C4_13 
REMARK    5  A    between atoms: C4_13  and  C5_15 
REMARK    6  A    between atoms: C5_15  and  C6_16 
REMARK    7  A    between atoms: C12_22  and  C13_24 
ROOT
HETATM    1  C3  UNL     1      13.124  16.130  17.589  1.00  0.00     0.290 C 
HETATM    2  O1  UNL     1      13.167  16.618  18.783  1.00  0.00    -0.264 OA
HETATM    3  N4  UNL     1      14.380  16.081  16.911  1.00  0.00    -0.262 N 
ATOM      4  H4  UNL     1      14.465  15.688  15.973  1.00  0.00     0.190 HD
ENDROOT
BRANCH   1   5
HETATM    5  C2  UNL     1      11.879  15.685  17.000  1.00  0.00     0.155 C 
BRANCH   5   6
HETATM    6  N3  UNL     1      11.361  14.495  17.625  1.00  0.00    -0.325 N 
HETATM    7  C1  UNL     1      10.221  14.387  18.156  1.00  0.00     0.201 C 
HETATM    8  N1  UNL     1       9.789  13.184  18.746  1.00  0.00    -0.066 NA
HETATM    9  N2  UNL     1       9.341  15.495  18.157  1.00  0.00    -0.066 NA
ATOM     10  H3  UNL     1      11.964  13.672  17.639  1.00  0.00     0.168 HD
ENDBRANCH   5   6
BRANCH   5  11
HETATM   11  C12 UNL     1      11.790  15.761  15.555  1.00  0.00     0.214 C 
HETATM   12  O3  UNL     1      12.334  14.819  14.851  1.00  0.00    -0.285 OA
BRANCH  11  13
HETATM   13  C13 UNL     1      11.156  16.787  14.731  1.00  0.00     0.017 A 
HETATM   14  C14 UNL     1      11.875  17.951  14.384  1.00  0.00     0.015 A 
HETATM   15  C15 UNL     1      11.333  18.949  13.612  1.00  0.00     0.001 A 
HETATM   16  C16 UNL     1      10.052  18.860  13.135  1.00  0.00     0.000 A 
HETATM   17  C17 UNL     1       9.321  17.753  13.445  1.00  0.00     0.001 A 
HETATM   18  C18 UNL     1       9.893  16.734  14.241  1.00  0.00     0.015 A 
ENDBRANCH  11  13
ENDBRANCH   5  11
ENDBRANCH   1   5
BRANCH   3  19
HETATM   19  N5  UNL     1      15.487  16.594  17.591  1.00  0.00    -0.267 N 
HETATM   20  C4  UNL     1      16.354  15.840  18.414  1.00  0.00     0.240 C 
HETATM   21  O2  UNL     1      16.173  14.603  18.606  1.00  0.00    -0.272 OA
ATOM     22  H5  UNL     1      15.684  17.590  17.486  1.00  0.00     0.190 HD
BRANCH  20  23
HETATM   23  C5  UNL     1      17.510  16.554  19.063  1.00  0.00     0.143 C 
BRANCH  23  24
HETATM   24  C6  UNL     1      17.335  16.686  20.515  1.00  0.00    -0.049 A 
HETATM   25  C7  UNL     1      16.159  16.471  21.172  1.00  0.00     0.007 A 
HETATM   26  C8  UNL     1      16.052  16.593  22.551  1.00  0.00     0.001 A 
HETATM   27  C9  UNL     1      17.147  16.943  23.316  1.00  0.00     0.000 A 
HETATM   28  C10 UNL     1      18.317  17.158  22.650  1.00  0.00     0.001 A 
HETATM   29  C11 UNL     1      18.442  17.043  21.292  1.00  0.00     0.007 A 
ENDBRANCH  23  24
ENDBRANCH  20  23
ENDBRANCH   3  19
TORSDOF 7
ENDMDL
MODEL 3
REMARK VINA RESULT: -8.274688575      3.033      8.517
REMARK  7 active torsions:
REMARK  status: ('A' for Active; 'I' for Inactive)
REMARK    1  A    between atoms: N3_4  and  C2_6 
REMARK    2  A    between atoms: C2_6  and  C3_7 
REMARK    3  A    between atoms: C2_6  and  C12_22 
REMARK       I    between atoms: C3_7  and  N4_9 
REMARK    4  A    between atoms: N4_9  and  N5_11 
REMARK       I    between atoms: N5_11  and  C4_13 
REMARK    5  A    between atoms: C4_13  and  C5_15 
REMARK    6  A    between atoms: C5_15  and  C6_16 
REMARK    7  A    between atoms: C12_22  and  C13_24 
ROOT
HETATM    1  C3  UNL     1      11.997  15.467  17.974  1.00  0.00     0.290 C 
HETATM    2  O1  UNL     1      12.595  14.400  17.563  1.00  0.00    -0.264 OA
HETATM    3  N4  UNL     1      12.816  16.369  18.719  1.00  0.00    -0.262 N 
ATOM      4  H4  UNL     1      12.452  17.256  19.068  1.00  0.00     0.190 HD
ENDROOT
BRANCH   1   5
HETATM    5  C2  UNL     1      10.596  15.701  17.697  1.00  0.00     0.155 C 
BRANCH   5   6
HETATM    6  N3  UNL     1       9.724  14.969  18.581  1.00  0.00    -0.325 N 
HETATM    7  C1  UNL     1       9.366  15.348  19.730  1.00  0.00     0.201 C 
HETATM    8  N1  UNL     1       8.507  14.571  20.532  1.00  0.00    -0.066 NA
HETATM    9  N2  UNL     1       9.825  16.587  20.235  1.00  0.00    -0.066 NA
ATOM     10  H3  UNL     1       9.367  14.072  18.250  1.00  0.00     0.168 HD
ENDBRANCH   5   6
BRANCH   5  11
HETATM   11  C12 UNL     1      10.217  15.757  16.299  1.00  0.00     0.214 C 
HETATM   12  O3  UNL     1       9.413  14.851  15.839  1.00  0.00    -0.285 OA
BRANCH  11  13
HETATM   13  C13 UNL     1      10.627  16.719  15.279  1.00  0.00     0.017 A 
HETATM   14  C14 UNL     1       9.755  17.026  14.212  1.00  0.00     0.015 A 
HETATM   15  C15 UNL     1      10.086  17.922  13.226  1.00  0.00     0.001 A 
HETATM   16  C16 UNL     1      11.293  18.570  13.231  1.00  0.00     0.000 A 
HETATM   17  C17 UNL     1      12.165  18.305  14.243  1.00  0.00     0.001 A 
HETATM   18  C18 UNL     1      11.811  17.380  15.252  1.00  0.00     0.015 A 
ENDBRANCH  11  13
ENDBRANCH   5  11
ENDBRANCH   1   5
BRANCH   3  19
HETATM   19  N5  UNL     1      14.138  15.981  18.948  1.00  0.00    -0.267 N 
HETATM   20  C4  UNL     1      15.232  16.298  18.111  1.00  0.00     0.240 C 
HETATM   21  O2  UNL     1      15.081  16.971  17.051  1.00  0.00    -0.272 OA
ATOM     22  H5  UNL     1      14.328  15.428  19.784  1.00  0.00     0.190 HD
BRANCH  20  23
HETATM   23  C5  UNL     1      16.597  15.807  18.518  1.00  0.00     0.143 C 
BRANCH  23  24
HETATM   24  C6  UNL     1      17.002  16.323  19.832  1.00  0.00    -0.049 A 
HETATM   25  C7  UNL     1      16.218  16.288  20.949  1.00  0.00     0.007 A 
HETATM   26  C8  UNL     1      16.657  16.775  22.172  1.00  0.00     0.001 A 
HETATM   27  C9  UNL     1      17.918  17.322  22.304  1.00  0.00     0.000 A 
HETATM   28  C10 UNL     1      18.693  17.354  21.182  1.00  0.00     0.001 A 
HETATM   29  C11 UNL     1      18.278  16.879  19.968  1.00  0.00     0.007 A 
ENDBRANCH  23  24
ENDBRANCH  20  23
ENDBRANCH   3  19
TORSDOF 7
ENDMDL
MODEL 4
REMARK VINA RESULT: -8.132945710      1.622      2.355
REMARK  7 active torsions:
REMARK  status: ('A' for Active; 'I' for Inactive)
REMARK    1  A    between atoms: N3_4  and  C2_6 
REMARK    2  A    between atoms: C2_6  and  C3_7 
REMARK    3  A    between atoms: C2_6  and  C12_22 
REMARK       I    between atoms: C3_7  and  N4_9 
REMARK    4  A    between atoms: N4_9  and  N5_11 
REMARK       I    between atoms: N5_11  and  C4_13 
REMARK    5  A    between atoms: C4_13  and  C5_15 
REMARK    6  A    between atoms: C5_15  and  C6_16 
REMARK    7  A    between atoms: C12_22  and  C13_24 
ROOT
HETATM    1  C3  UNL     1      11.883  16.714  16.906  1.00  0.00     0.290 C 
HETATM    2  O1  UNL     1      12.646  17.737  16.714  1.00  0.00    -0.264 OA
HETATM    3  N4  UNL     1      10.864  16.528  15.922  1.00  0.00    -0.262 N 
ATOM      4  H4  UNL     1      10.223  15.735  15.961  1.00  0.00     0.190 HD
ENDROOT
BRANCH   1   5
HETATM    5  C2  UNL     1      12.059  15.844  18.049  1.00  0.00     0.155 C 
BRANCH   5   6
HETATM    6  N3  UNL     1      11.533  16.409  19.265  1.00  0.00    -0.325 N 
HETATM    7  C1  UNL     1      10.345  16.284  19.673  1.00  0.00     0.201 C 
HETATM    8  N1  UNL     1       9.909  16.869  20.878  1.00  0.00    -0.066 NA
HETATM    9  N2  UNL     1       9.419  15.531  18.914  1.00  0.00    -0.066 NA
ATOM     10  H3  UNL     1      12.172  16.955  19.844  1.00  0.00     0.168 HD
ENDBRANCH   5   6
BRANCH   5  11
HETATM   11  C12 UNL     1      13.331  15.154  18.142  1.00  0.00     0.214 C 
HETATM   12  O3  UNL     1      13.345  13.864  18.029  1.00  0.00    -0.285 OA
BRANCH  11  13
HETATM   13  C13 UNL     1      14.661  15.717  18.361  1.00  0.00     0.017 A 
HETATM   14  C14 UNL     1      15.158  15.854  19.675  1.00  0.00     0.015 A 
HETATM   15  C15 UNL     1      16.400  16.375  19.942  1.00  0.00     0.001 A 
HETATM   16  C16 UNL     1      17.227  16.790  18.932  1.00  0.00     0.000 A 
HETATM   17  C17 UNL     1      16.789  16.675  17.647  1.00  0.00     0.001 A 
HETATM   18  C18 UNL     1      15.507  16.136  17.388  1.00  0.00     0.015 A 
ENDBRANCH  11  13
ENDBRANCH   5  11
ENDBRANCH   1   5
BRANCH   3  19
HETATM   19  N5  UNL     1      10.787  17.480  14.903  1.00  0.00    -0.267 N 
HETATM   20  C4  UNL     1       9.954  17.384  13.766  1.00  0.00     0.240 C 
HETATM   21  O2  UNL     1       9.200  16.385  13.580  1.00  0.00    -0.272 OA
ATOM     22  H5  UNL     1      11.377  18.308  14.987  1.00  0.00     0.190 HD
BRANCH  20  23
HETATM   23  C5  UNL     1       9.987  18.513  12.769  1.00  0.00     0.143 C 
BRANCH  23  24
HETATM   24  C6  UNL     1       9.122  18.255  11.611  1.00  0.00    -0.049 A 
HETATM   25  C7  UNL     1       9.556  17.733  10.427  1.00  0.00     0.007 A 
HETATM   26  C8  UNL     1       8.692  17.493   9.367  1.00  0.00     0.001 A 
HETATM   27  C9  UNL     1       7.346  17.780   9.474  1.00  0.00     0.000 A 
HETATM   28  C10 UNL     1       6.923  18.304  10.660  1.00  0.00     0.001 A 
HETATM   29  C11 UNL     1       7.759  18.547  11.715  1.00  0.00     0.007 A 
ENDBRANCH  23  24
ENDBRANCH  20  23
ENDBRANCH   3  19
TORSDOF 7
ENDMDL
MODEL 5
REMARK VINA RESULT: -8.072882286      4.386      8.757
REMARK  7 active torsions:
REMARK  status: ('A' for Active; 'I' for Inactive)
REMARK    1  A    between atoms: N3_4  and  C2_6 
REMARK    2  A    between atoms: C2_6  and  C3_7 
REMARK    3  A    between atoms: C2_6  and  C12_22 
REMARK       I    between atoms: C3_7  and  N4_9 
REMARK    4  A    between atoms: N4_9  and  N5_11 
REMARK       I    between atoms: N5_11  and  C4_13 
REMARK    5  A    between atoms: C4_13  and  C5_15 
REMARK    6  A    between atoms: C5_15  and  C6_16 
REMARK    7  A    between atoms: C12_22  and  C13_24 
ROOT
HETATM    1  C3  UNL     1      13.936  15.587  17.825  1.00  0.00     0.290 C 
HETATM    2  O1  UNL     1      13.905  16.477  18.758  1.00  0.00    -0.264 OA
HETATM    3  N4  UNL     1      15.186  14.909  17.679  1.00  0.00    -0.262 N 
ATOM      4  H4  UNL     1      15.313  14.167  16.990  1.00  0.00     0.190 HD
ENDROOT
BRANCH   1   5
HETATM    5  C2  UNL     1      12.782  15.324  16.993  1.00  0.00     0.155 C 
BRANCH   5   6
HETATM    6  N3  UNL     1      11.927  14.298  17.534  1.00  0.00    -0.325 N 
HETATM    7  C1  UNL     1      10.791  14.493  18.048  1.00  0.00     0.201 C 
HETATM    8  N1  UNL     1      10.015  13.433  18.555  1.00  0.00    -0.066 NA
HETATM    9  N2  UNL     1      10.267  15.805  18.115  1.00  0.00    -0.066 NA
ATOM     10  H3  UNL     1      12.267  13.337  17.499  1.00  0.00     0.168 HD
ENDBRANCH   5   6
BRANCH   5  11
HETATM   11  C12 UNL     1      13.014  15.297  15.562  1.00  0.00     0.214 C 
HETATM   12  O3  UNL     1      12.296  14.502  14.833  1.00  0.00    -0.285 OA
BRANCH  11  13
HETATM   13  C13 UNL     1      13.984  16.060  14.779  1.00  0.00     0.017 A 
HETATM   14  C14 UNL     1      15.007  15.385  14.079  1.00  0.00     0.015 A 
HETATM   15  C15 UNL     1      15.945  16.048  13.326  1.00  0.00     0.001 A 
HETATM   16  C16 UNL     1      15.931  17.414  13.218  1.00  0.00     0.000 A 
HETATM   17  C17 UNL     1      14.960  18.106  13.877  1.00  0.00     0.001 A 
HETATM   18  C18 UNL     1      14.001  17.409  14.647  1.00  0.00     0.015 A 
ENDBRANCH  11  13
ENDBRANCH   5  11
ENDBRANCH   1   5
BRANCH   3  19
HETATM   19  N5  UNL     1      16.224  15.308  18.522  1.00  0.00    -0.267 N 
HETATM   20  C4  UNL     1      17.089  16.400  18.283  1.00  0.00     0.240 C 
HETATM   21  O2  UNL     1      16.983  17.112  17.243  1.00  0.00    -0.272 OA
ATOM     22  H5  UNL     1      16.370  14.770  19.377  1.00  0.00     0.190 HD
BRANCH  20  23
HETATM   23  C5  UNL     1      18.150  16.698  19.309  1.00  0.00     0.143 C 
BRANCH  23  24
HETATM   24  C6  UNL     1      17.603  16.767  20.670  1.00  0.00    -0.049 A 
HETATM   25  C7  UNL     1      16.310  16.472  20.996  1.00  0.00     0.007 A 
HETATM   26  C8  UNL     1      15.848  16.537  22.303  1.00  0.00     0.001 A 
HETATM   27  C9  UNL     1      16.688  16.908  23.333  1.00  0.00     0.000 A 
HETATM   28  C10 UNL     1      17.977  17.203  22.996  1.00  0.00     0.001 A 
HETATM   29  C11 UNL     1      18.451  17.145  21.715  1.00  0.00     0.007 A 
ENDBRANCH  23  24
ENDBRANCH  20  23
ENDBRANCH   3  19
TORSDOF 7
ENDMDL
