MODEL 1
REMARK VINA RESULT: -8.678932328      0.000      0.000
REMARK  9 active torsions:
REMARK  status: ('A' for Active; 'I' for Inactive)
REMARK       I    between atoms: C1_2  and  N1_3 
REMARK       I    between atoms: C1_2  and  N2_8 
REMARK    1  A    between atoms: N1_3  and  C2_5 
REMARK    2  A    between atoms: C2_5  and  O2_6 
REMARK    3  A    between atoms: N2_8  and  N3_10 
REMARK    4  A    between atoms: N3_10  and  C3_12 
REMARK    5  A    between atoms: C3_12  and  O3_13 
REMARK    6  A    between atoms: C4_15  and  C5_16 
REMARK    7  A    between atoms: C4_15  and  N4_23 
REMARK    8  A    between atoms: C5_16  and  C6_17 
REMARK       I    between atoms: N4_23  and  C12_25 
REMARK    9  A    between atoms: C12_25  and  C13_27 
ROOT
HETATM    1  C3  UNL     1      13.229  14.766  17.723  1.00  0.00     0.178 C 
HETATM    2  C4  UNL     1      14.177  15.843  17.624  1.00  0.00     0.069 C 
ENDROOT
BRANCH   2   3
HETATM    3  C5  UNL     1      13.955  16.951  16.700  1.00  0.00     0.100 C 
BRANCH   3   4
HETATM    4  C6  UNL     1      14.859  16.908  15.531  1.00  0.00    -0.052 A 
HETATM    5  C7  UNL     1      14.587  15.979  14.506  1.00  0.00     0.007 A 
HETATM    6  C8  UNL     1      15.435  15.857  13.437  1.00  0.00     0.001 A 
HETATM    7  C9  UNL     1      16.561  16.645  13.366  1.00  0.00     0.000 A 
HETATM    8  C10 UNL     1      16.863  17.561  14.342  1.00  0.00     0.001 A 
HETATM    9  C11 UNL     1      15.977  17.654  15.407  1.00  0.00     0.007 A 
ENDBRANCH   3   4
ENDBRANCH   2   3
BRANCH   2  10
HETATM   10  N4  UNL     1      14.742  16.157  18.909  1.00  0.00    -0.322 N 
HETATM   11  C12 UNL     1      16.133  16.137  19.120  1.00  0.00     0.256 C 
HETATM   12  O4  UNL     1      16.934  15.842  18.207  1.00  0.00    -0.267 OA
ATOM     13  H4  UNL     1      14.123  16.397  19.683  1.00  0.00     0.169 HD
BRANCH  11  14
HETATM   14  C13 UNL     1      16.660  16.470  20.431  1.00  0.00     0.032 A 
HETATM   15  C14 UNL     1      15.838  16.420  21.534  1.00  0.00     0.017 A 
HETATM   16  C15 UNL     1      16.310  16.723  22.812  1.00  0.00     0.001 A 
HETATM   17  C16 UNL     1      17.637  17.075  22.921  1.00  0.00     0.000 A 
HETATM   18  C17 UNL     1      18.468  17.126  21.807  1.00  0.00     0.001 A 
HETATM   19  C18 UNL     1      17.982  16.820  20.542  1.00  0.00     0.017 A 
ENDBRANCH  11  14
ENDBRANCH   2  10
BRANCH   1  20
HETATM   20  N3  UNL     1      11.916  14.736  17.253  1.00  0.00    -0.275 N 
ATOM     21  H3  UNL     1      11.712  15.074  16.313  1.00  0.00     0.189 HD
BRANCH  20  22
HETATM   22  N2  UNL     1      10.854  14.241  18.066  1.00  0.00    -0.250 N 
HETATM   23  C1  UNL     1      10.262  15.131  18.972  1.00  0.00     0.336 C 
HETATM   24  O1  UNL     1      10.661  16.310  19.053  1.00  0.00    -0.246 OA
HETATM   25  N1  UNL     1       9.209  14.699  19.804  1.00  0.00    -0.321 N 
ATOM     26  H1  UNL     1       8.864  13.741  19.759  1.00  0.00     0.166 HD
ATOM     27  H2  UNL     1      10.537  13.274  17.990  1.00  0.00     0.192 HD
BRANCH  25  28
HETATM   28  C2  UNL     1       8.627  15.661  20.732  1.00  0.00     0.291 C 
BRANCH  28  29
HETATM   29  O2  UNL     1       7.743  16.528  20.131  1.00  0.00    -0.382 OA
ATOM     30  H2  UNL     1       7.959  17.442  20.272  1.00  0.00     0.211 HD
ENDBRANCH  28  29
ENDBRANCH  25  28
ENDBRANCH  20  22
ENDBRANCH   1  20
BRANCH   1  31
HETATM   31  O3  UNL     1      13.598  13.657  18.330  1.00  0.00    -0.344 OA
ATOM     32  H3  UNL     1      12.941  13.311  18.922  1.00  0.00     0.219 HD
ENDBRANCH   1  31
TORSDOF 9
ENDMDL
MODEL 2
REMARK VINA RESULT: -8.619746052      0.163      1.335
REMARK  9 active torsions:
REMARK  status: ('A' for Active; 'I' for Inactive)
REMARK       I    between atoms: C1_2  and  N1_3 
REMARK       I    between atoms: C1_2  and  N2_8 
REMARK    1  A    between atoms: N1_3  and  C2_5 
REMARK    2  A    between atoms: C2_5  and  O2_6 
REMARK    3  A    between atoms: N2_8  and  N3_10 
REMARK    4  A    between atoms: N3_10  and  C3_12 
REMARK    5  A    between atoms: C3_12  and  O3_13 
REMARK    6  A    between atoms: C4_15  and  C5_16 
REMARK    7  A    between atoms: C4_15  and  N4_23 
REMARK    8  A    between atoms: C5_16  and  C6_17 
REMARK       I    between atoms: N4_23  and  C12_25 
REMARK    9  A    between atoms: C12_25  and  C13_27 
ROOT
HETATM    1  C3  UNL     1      13.212  14.823  17.617  1.00  0.00     0.178 C 
HETATM    2  C4  UNL     1      14.218  15.850  17.553  1.00  0.00     0.069 C 
ENDROOT
BRANCH   2   3
HETATM    3  C5  UNL     1      14.096  16.958  16.612  1.00  0.00     0.100 C 
BRANCH   3   4
HETATM    4  C6  UNL     1      14.997  16.820  15.448  1.00  0.00    -0.052 A 
HETATM    5  C7  UNL     1      16.079  17.715  15.326  1.00  0.00     0.007 A 
HETATM    6  C8  UNL     1      16.900  17.668  14.230  1.00  0.00     0.001 A 
HETATM    7  C9  UNL     1      16.664  16.741  13.241  1.00  0.00     0.000 A 
HETATM    8  C10 UNL     1      15.622  15.851  13.321  1.00  0.00     0.001 A 
HETATM    9  C11 UNL     1      14.815  15.931  14.448  1.00  0.00     0.007 A 
ENDBRANCH   3   4
ENDBRANCH   2   3
BRANCH   2  10
HETATM   10  N4  UNL     1      14.741  16.147  18.860  1.00  0.00    -0.322 N 
HETATM   11  C12 UNL     1      16.124  16.132  19.114  1.00  0.00     0.256 C 
HETATM   12  O4  UNL     1      16.956  15.855  18.222  1.00  0.00    -0.267 OA
ATOM     13  H4  UNL     1      14.096  16.372  19.617  1.00  0.00     0.169 HD
BRANCH  11  14
HETATM   14  C13 UNL     1      16.608  16.448  20.446  1.00  0.00     0.032 A 
HETATM   15  C14 UNL     1      17.928  16.794  20.632  1.00  0.00     0.017 A 
HETATM   16  C15 UNL     1      18.428  17.113  21.895  1.00  0.00     0.001 A 
HETATM   17  C16 UNL     1      17.543  17.066  22.949  1.00  0.00     0.000 A 
HETATM   18  C17 UNL     1      16.210  16.715  22.762  1.00  0.00     0.001 A 
HETATM   19  C18 UNL     1      15.728  16.401  21.497  1.00  0.00     0.017 A 
ENDBRANCH  11  14
ENDBRANCH   2  10
BRANCH   1  20
HETATM   20  N3  UNL     1      11.922  14.856  17.089  1.00  0.00    -0.275 N 
ATOM     21  H3  UNL     1      11.764  15.288  16.180  1.00  0.00     0.189 HD
BRANCH  20  22
HETATM   22  N2  UNL     1      10.821  14.295  17.800  1.00  0.00    -0.250 N 
HETATM   23  C1  UNL     1      10.245  15.066  18.818  1.00  0.00     0.336 C 
HETATM   24  O1  UNL     1      10.692  16.201  19.082  1.00  0.00    -0.246 OA
HETATM   25  N1  UNL     1       9.155  14.564  19.558  1.00  0.00    -0.321 N 
ATOM     26  H1  UNL     1       8.771  13.640  19.364  1.00  0.00     0.166 HD
ATOM     27  H2  UNL     1      10.465  13.365  17.575  1.00  0.00     0.192 HD
BRANCH  25  28
HETATM   28  C2  UNL     1       8.592  15.404  20.609  1.00  0.00     0.291 C 
BRANCH  28  29
HETATM   29  O2  UNL     1       7.774  16.400  20.127  1.00  0.00    -0.382 OA
ATOM     30  H2  UNL     1       8.007  16.686  19.252  1.00  0.00     0.211 HD
ENDBRANCH  28  29
ENDBRANCH  25  28
ENDBRANCH  20  22
ENDBRANCH   1  20
BRANCH   1  31
HETATM   31  O3  UNL     1      13.496  13.703  18.249  1.00  0.00    -0.344 OA
ATOM     32  H3  UNL     1      14.389  13.663  18.570  1.00  0.00     0.219 HD
ENDBRANCH   1  31
TORSDOF 9
ENDMDL
MODEL 3
REMARK VINA RESULT: -8.549084081      1.064      1.209
REMARK  9 active torsions:
REMARK  status: ('A' for Active; 'I' for Inactive)
REMARK       I    between atoms: C1_2  and  N1_3 
REMARK       I    between atoms: C1_2  and  N2_8 
REMARK    1  A    between atoms: N1_3  and  C2_5 
REMARK    2  A    between atoms: C2_5  and  O2_6 
REMARK    3  A    between atoms: N2_8  and  N3_10 
REMARK    4  A    between atoms: N3_10  and  C3_12 
REMARK    5  A    between atoms: C3_12  and  O3_13 
REMARK    6  A    between atoms: C4_15  and  C5_16 
REMARK    7  A    between atoms: C4_15  and  N4_23 
REMARK    8  A    between atoms: C5_16  and  C6_17 
REMARK       I    between atoms: N4_23  and  C12_25 
REMARK    9  A    between atoms: C12_25  and  C13_27 
ROOT
HETATM    1  C3  UNL     1      12.732  15.024  16.824  1.00  0.00     0.178 C 
HETATM    2  C4  UNL     1      13.717  16.016  16.485  1.00  0.00     0.069 C 
ENDROOT
BRANCH   2   3
HETATM    3  C5  UNL     1      13.434  17.039  15.483  1.00  0.00     0.100 C 
BRANCH   3   4
HETATM    4  C6  UNL     1      14.432  17.059  14.392  1.00  0.00    -0.052 A 
HETATM    5  C7  UNL     1      15.134  15.872  14.101  1.00  0.00     0.007 A 
HETATM    6  C8  UNL     1      16.116  15.861  13.146  1.00  0.00     0.001 A 
HETATM    7  C9  UNL     1      16.418  17.019  12.467  1.00  0.00     0.000 A 
HETATM    8  C10 UNL     1      15.759  18.196  12.719  1.00  0.00     0.001 A 
HETATM    9  C11 UNL     1      14.772  18.164  13.694  1.00  0.00     0.007 A 
ENDBRANCH   3   4
ENDBRANCH   2   3
BRANCH   2  10
HETATM   10  N4  UNL     1      14.471  16.417  17.644  1.00  0.00    -0.322 N 
HETATM   11  C12 UNL     1      15.622  15.716  18.044  1.00  0.00     0.256 C 
HETATM   12  O4  UNL     1      16.036  14.715  17.418  1.00  0.00    -0.267 OA
ATOM     13  H4  UNL     1      14.163  17.224  18.186  1.00  0.00     0.169 HD
BRANCH  11  14
HETATM   14  C13 UNL     1      16.358  16.160  19.214  1.00  0.00     0.032 A 
HETATM   15  C14 UNL     1      15.763  16.117  20.455  1.00  0.00     0.017 A 
HETATM   16  C15 UNL     1      16.440  16.526  21.605  1.00  0.00     0.001 A 
HETATM   17  C16 UNL     1      17.731  16.977  21.443  1.00  0.00     0.000 A 
HETATM   18  C17 UNL     1      18.332  17.022  20.190  1.00  0.00     0.001 A 
HETATM   19  C18 UNL     1      17.644  16.609  19.055  1.00  0.00     0.017 A 
ENDBRANCH  11  14
ENDBRANCH   2  10
BRANCH   1  20
HETATM   20  N3  UNL     1      11.368  15.040  16.536  1.00  0.00    -0.275 N 
ATOM     21  H3  UNL     1      11.038  15.525  15.702  1.00  0.00     0.189 HD
BRANCH  20  22
HETATM   22  N2  UNL     1      10.428  14.390  17.388  1.00  0.00    -0.250 N 
HETATM   23  C1  UNL     1       9.979  15.093  18.514  1.00  0.00     0.336 C 
HETATM   24  O1  UNL     1      10.396  16.245  18.749  1.00  0.00    -0.246 OA
HETATM   25  N1  UNL     1       9.051  14.502  19.395  1.00  0.00    -0.321 N 
ATOM     26  H1  UNL     1       8.694  13.562  19.227  1.00  0.00     0.166 HD
ATOM     27  H2  UNL     1      10.093  13.448  17.185  1.00  0.00     0.192 HD
BRANCH  25  28
HETATM   28  C2  UNL     1       8.615  15.272  20.554  1.00  0.00     0.291 C 
BRANCH  28  29
HETATM   29  O2  UNL     1       7.902  16.400  20.219  1.00  0.00    -0.382 OA
ATOM     30  H2  UNL     1       6.987  16.224  20.035  1.00  0.00     0.211 HD
ENDBRANCH  28  29
ENDBRANCH  25  28
ENDBRANCH  20  22
ENDBRANCH   1  20
BRANCH   1  31
HETATM   31  O3  UNL     1      13.118  13.959  17.495  1.00  0.00    -0.344 OA
ATOM     32  H3  UNL     1      13.859  13.510  17.104  1.00  0.00     0.219 HD
ENDBRANCH   1  31
TORSDOF 9
ENDMDL
MODEL 4
REMARK VINA RESULT: -8.331006007      2.624      3.436
REMARK  9 active torsions:
REMARK  status: ('A' for Active; 'I' for Inactive)
REMARK       I    between atoms: C1_2  and  N1_3 
REMARK       I    between atoms: C1_2  and  N2_8 
REMARK    1  A    between atoms: N1_3  and  C2_5 
REMARK    2  A    between atoms: C2_5  and  O2_6 
REMARK    3  A    between atoms: N2_8  and  N3_10 
REMARK    4  A    between atoms: N3_10  and  C3_12 
REMARK    5  A    between atoms: C3_12  and  O3_13 
REMARK    6  A    between atoms: C4_15  and  C5_16 
REMARK    7  A    between atoms: C4_15  and  N4_23 
REMARK    8  A    between atoms: C5_16  and  C6_17 
REMARK       I    between atoms: N4_23  and  C12_25 
REMARK    9  A    between atoms: C12_25  and  C13_27 
ROOT
HETATM    1  C3  UNL     1      13.802  15.327  15.172  1.00  0.00     0.178 C 
HETATM    2  C4  UNL     1      13.916  16.703  15.573  1.00  0.00     0.069 C 
ENDROOT
BRANCH   2   3
HETATM    3  C5  UNL     1      12.727  17.499  15.860  1.00  0.00     0.100 C 
BRANCH   3   4
HETATM    4  C6  UNL     1      12.014  17.920  14.634  1.00  0.00    -0.052 A 
HETATM    5  C7  UNL     1      12.684  18.762  13.723  1.00  0.00     0.007 A 
HETATM    6  C8  UNL     1      12.039  19.232  12.610  1.00  0.00     0.001 A 
HETATM    7  C9  UNL     1      10.729  18.880  12.380  1.00  0.00     0.000 A 
HETATM    8  C10 UNL     1      10.041  18.063  13.242  1.00  0.00     0.001 A 
HETATM    9  C11 UNL     1      10.730  17.608  14.358  1.00  0.00     0.007 A 
ENDBRANCH   3   4
ENDBRANCH   2   3
BRANCH   2  10
HETATM   10  N4  UNL     1      15.066  16.906  16.414  1.00  0.00    -0.322 N 
HETATM   11  C12 UNL     1      15.162  16.298  17.679  1.00  0.00     0.256 C 
HETATM   12  O4  UNL     1      14.255  15.563  18.128  1.00  0.00    -0.267 OA
ATOM     13  H4  UNL     1      15.825  17.503  16.088  1.00  0.00     0.169 HD
BRANCH  11  14
HETATM   14  C13 UNL     1      16.345  16.522  18.490  1.00  0.00     0.032 A 
HETATM   15  C14 UNL     1      17.508  16.965  17.900  1.00  0.00     0.017 A 
HETATM   16  C15 UNL     1      18.662  17.201  18.648  1.00  0.00     0.001 A 
HETATM   17  C16 UNL     1      18.587  16.972  20.003  1.00  0.00     0.000 A 
HETATM   18  C17 UNL     1      17.413  16.524  20.600  1.00  0.00     0.001 A 
HETATM   19  C18 UNL     1      16.272  16.295  19.841  1.00  0.00     0.017 A 
ENDBRANCH  11  14
ENDBRANCH   2  10
BRANCH   1  20
HETATM   20  N3  UNL     1      12.690  14.493  15.283  1.00  0.00    -0.275 N 
ATOM     21  H3  UNL     1      12.157  14.256  14.446  1.00  0.00     0.189 HD
BRANCH  20  22
HETATM   22  N2  UNL     1      12.285  13.967  16.545  1.00  0.00    -0.250 N 
HETATM   23  C1  UNL     1      11.041  14.371  17.047  1.00  0.00     0.336 C 
HETATM   24  O1  UNL     1      10.325  15.163  16.401  1.00  0.00    -0.246 OA
HETATM   25  N1  UNL     1      10.588  13.887  18.291  1.00  0.00    -0.321 N 
ATOM     26  H1  UNL     1      11.153  13.240  18.840  1.00  0.00     0.166 HD
ATOM     27  H2  UNL     1      12.880  13.320  17.063  1.00  0.00     0.192 HD
BRANCH  25  28
HETATM   28  C2  UNL     1       9.287  14.338  18.772  1.00  0.00     0.291 C 
BRANCH  28  29
HETATM   29  O2  UNL     1       9.291  15.645  19.204  1.00  0.00    -0.382 OA
ATOM     30  H2  UNL     1       8.601  16.170  18.816  1.00  0.00     0.211 HD
ENDBRANCH  28  29
ENDBRANCH  25  28
ENDBRANCH  20  22
ENDBRANCH   1  20
BRANCH   1  31
HETATM   31  O3  UNL     1      14.853  14.737  14.641  1.00  0.00    -0.344 OA
ATOM     32  H3  UNL     1      15.142  15.135  13.829  1.00  0.00     0.219 HD
ENDBRANCH   1  31
TORSDOF 9
ENDMDL
MODEL 5
REMARK VINA RESULT: -8.326306885      2.813      6.835
REMARK  9 active torsions:
REMARK  status: ('A' for Active; 'I' for Inactive)
REMARK       I    between atoms: C1_2  and  N1_3 
REMARK       I    between atoms: C1_2  and  N2_8 
REMARK    1  A    between atoms: N1_3  and  C2_5 
REMARK    2  A    between atoms: C2_5  and  O2_6 
REMARK    3  A    between atoms: N2_8  and  N3_10 
REMARK    4  A    between atoms: N3_10  and  C3_12 
REMARK    5  A    between atoms: C3_12  and  O3_13 
REMARK    6  A    between atoms: C4_15  and  C5_16 
REMARK    7  A    between atoms: C4_15  and  N4_23 
REMARK    8  A    between atoms: C5_16  and  C6_17 
REMARK       I    between atoms: N4_23  and  C12_25 
REMARK    9  A    between atoms: C12_25  and  C13_27 
ROOT
HETATM    1  C3  UNL     1      15.040  15.040  18.538  1.00  0.00     0.178 C 
HETATM    2  C4  UNL     1      14.024  15.490  17.625  1.00  0.00     0.069 C 
ENDROOT
BRANCH   2   3
HETATM    3  C5  UNL     1      12.918  16.322  18.089  1.00  0.00     0.100 C 
BRANCH   3   4
HETATM    4  C6  UNL     1      11.646  15.574  18.190  1.00  0.00    -0.052 A 
HETATM    5  C7  UNL     1      11.430  14.495  17.308  1.00  0.00     0.007 A 
HETATM    6  C8  UNL     1      10.239  13.817  17.319  1.00  0.00     0.001 A 
HETATM    7  C9  UNL     1       9.249  14.194  18.196  1.00  0.00     0.000 A 
HETATM    8  C10 UNL     1       9.418  15.238  19.070  1.00  0.00     0.001 A 
HETATM    9  C11 UNL     1      10.639  15.898  19.028  1.00  0.00     0.007 A 
ENDBRANCH   3   4
ENDBRANCH   2   3
BRANCH   2  10
HETATM   10  N4  UNL     1      14.583  15.794  16.334  1.00  0.00    -0.322 N 
HETATM   11  C12 UNL     1      15.739  16.584  16.207  1.00  0.00     0.256 C 
HETATM   12  O4  UNL     1      16.325  17.061  17.203  1.00  0.00    -0.267 OA
ATOM     13  H4  UNL     1      14.132  15.429  15.496  1.00  0.00     0.169 HD
BRANCH  11  14
HETATM   14  C13 UNL     1      16.274  16.857  14.885  1.00  0.00     0.032 A 
HETATM   15  C14 UNL     1      17.313  17.748  14.736  1.00  0.00     0.017 A 
HETATM   16  C15 UNL     1      17.860  18.030  13.483  1.00  0.00     0.001 A 
HETATM   17  C16 UNL     1      17.315  17.376  12.402  1.00  0.00     0.000 A 
HETATM   18  C17 UNL     1      16.265  16.476  12.551  1.00  0.00     0.001 A 
HETATM   19  C18 UNL     1      15.732  16.207  13.806  1.00  0.00     0.017 A 
ENDBRANCH  11  14
ENDBRANCH   2  10
BRANCH   1  20
HETATM   20  N3  UNL     1      15.313  15.519  19.819  1.00  0.00    -0.275 N 
ATOM     21  H3  UNL     1      14.592  15.466  20.538  1.00  0.00     0.189 HD
BRANCH  20  22
HETATM   22  N2  UNL     1      16.583  16.083  20.139  1.00  0.00    -0.250 N 
HETATM   23  C1  UNL     1      16.783  16.524  21.455  1.00  0.00     0.336 C 
HETATM   24  O1  UNL     1      15.874  16.419  22.303  1.00  0.00    -0.246 OA
HETATM   25  N1  UNL     1      18.017  17.092  21.831  1.00  0.00    -0.321 N 
ATOM     26  H1  UNL     1      18.777  17.190  21.158  1.00  0.00     0.166 HD
ATOM     27  H2  UNL     1      17.319  16.163  19.437  1.00  0.00     0.192 HD
BRANCH  25  28
HETATM   28  C2  UNL     1      18.177  17.538  23.211  1.00  0.00     0.291 C 
BRANCH  28  29
HETATM   29  O2  UNL     1      18.264  16.499  24.109  1.00  0.00    -0.382 OA
ATOM     30  H2  UNL     1      17.963  16.731  24.980  1.00  0.00     0.211 HD
ENDBRANCH  28  29
ENDBRANCH  25  28
ENDBRANCH  20  22
ENDBRANCH   1  20
BRANCH   1  31
HETATM   31  O3  UNL     1      15.839  14.065  18.158  1.00  0.00    -0.344 OA
ATOM     32  H3  UNL     1      15.871  13.944  17.217  1.00  0.00     0.219 HD
ENDBRANCH   1  31
TORSDOF 9
ENDMDL
