MODEL 1
REMARK VINA RESULT: -8.366154122      0.000      0.000
REMARK  8 active torsions:
REMARK  status: ('A' for Active; 'I' for Inactive)
REMARK    1  A    between atoms: C2_2  and  C5_5 
REMARK       I    between atoms: C5_5  and  N1_7 
REMARK       I    between atoms: N1_7  and  C6_9 
REMARK       I    between atoms: C6_9  and  N2_11 
REMARK    2  A    between atoms: N2_11  and  N3_13 
REMARK    3  A    between atoms: N3_13  and  C7_14 
REMARK    4  A    between atoms: C7_14  and  C8_15 
REMARK    5  A    between atoms: C7_14  and  C15_22 
REMARK    6  A    between atoms: C8_15  and  C9_16 
REMARK       I    between atoms: C15_22  and  N4_24 
REMARK    7  A    between atoms: N4_24  and  C16_26 
REMARK    8  A    between atoms: C16_26  and  C17_27 
ROOT
HETATM    1  C7  UNL     1      14.465  16.466  17.552  1.00  0.00     0.195 C 
ENDROOT
BRANCH   1   2
HETATM    2  N3  UNL     1      14.625  15.914  16.248  1.00  0.00    -0.122 NA
BRANCH   2   3
HETATM    3  N2  UNL     1      15.543  16.586  15.459  1.00  0.00    -0.255 N 
HETATM    4  C6  UNL     1      15.804  16.146  14.172  1.00  0.00     0.338 C 
HETATM    5  N1  UNL     1      16.720  16.753  13.315  1.00  0.00    -0.278 N 
HETATM    6  O2  UNL     1      15.169  15.123  13.742  1.00  0.00    -0.245 OA
HETATM    7  C5  UNL     1      17.544  17.864  13.532  1.00  0.00     0.233 C 
ATOM      8  H1  UNL     1      16.801  16.326  12.393  1.00  0.00     0.173 HD
HETATM    9  O1  UNL     1      17.573  18.528  14.593  1.00  0.00    -0.272 OA
ATOM     10  H2  UNL     1      16.028  17.405  15.826  1.00  0.00     0.187 HD
BRANCH   7  11
HETATM   11  C2  UNL     1      18.474  18.319  12.434  1.00  0.00     0.030 C 
HETATM   12  C1  UNL     1      19.894  18.232  12.924  1.00  0.00     0.025 C 
HETATM   13  C3  UNL     1      18.215  17.463  11.239  1.00  0.00     0.025 C 
HETATM   14  C4  UNL     1      18.184  19.784  12.135  1.00  0.00     0.025 C 
ENDBRANCH   7  11
ENDBRANCH   2   3
ENDBRANCH   1   2
BRANCH   1  15
HETATM   15  C8  UNL     1      14.969  15.536  18.638  1.00  0.00     0.071 C 
BRANCH  15  16
HETATM   16  C9  UNL     1      16.176  16.083  19.308  1.00  0.00    -0.056 A 
HETATM   17  C10 UNL     1      17.300  16.489  18.618  1.00  0.00     0.007 A 
HETATM   18  C11 UNL     1      18.405  16.985  19.290  1.00  0.00     0.001 A 
HETATM   19  C12 UNL     1      18.397  17.081  20.659  1.00  0.00     0.000 A 
HETATM   20  C13 UNL     1      17.284  16.682  21.374  1.00  0.00     0.001 A 
HETATM   21  C14 UNL     1      16.199  16.192  20.679  1.00  0.00     0.007 A 
ENDBRANCH  15  16
ENDBRANCH   1  15
BRANCH   1  22
HETATM   22  C15 UNL     1      13.004  16.606  17.807  1.00  0.00     0.239 C 
HETATM   23  O3  UNL     1      12.399  17.496  17.159  1.00  0.00    -0.272 OA
HETATM   24  N4  UNL     1      12.298  15.808  18.715  1.00  0.00    -0.350 N 
ATOM     25  H4  UNL     1      12.792  15.090  19.247  1.00  0.00     0.163 HD
BRANCH  24  26
HETATM   26  C16 UNL     1      10.886  15.989  18.905  1.00  0.00     0.235 C 
BRANCH  26  27
HETATM   27  C17 UNL     1      10.123  15.070  18.040  1.00  0.00     0.191 C 
HETATM   28  O4  UNL     1       9.472  15.445  17.026  1.00  0.00    -0.647 OA
HETATM   29  O5  UNL     1      10.069  13.700  18.290  1.00  0.00    -0.647 OA
ENDBRANCH  26  27
ENDBRANCH  24  26
ENDBRANCH   1  22
TORSDOF 8
ENDMDL
MODEL 2
REMARK VINA RESULT: -8.185810382      2.212      6.489
REMARK  8 active torsions:
REMARK  status: ('A' for Active; 'I' for Inactive)
REMARK    1  A    between atoms: C2_2  and  C5_5 
REMARK       I    between atoms: C5_5  and  N1_7 
REMARK       I    between atoms: N1_7  and  C6_9 
REMARK       I    between atoms: C6_9  and  N2_11 
REMARK    2  A    between atoms: N2_11  and  N3_13 
REMARK    3  A    between atoms: N3_13  and  C7_14 
REMARK    4  A    between atoms: C7_14  and  C8_15 
REMARK    5  A    between atoms: C7_14  and  C15_22 
REMARK    6  A    between atoms: C8_15  and  C9_16 
REMARK       I    between atoms: C15_22  and  N4_24 
REMARK    7  A    between atoms: N4_24  and  C16_26 
REMARK    8  A    between atoms: C16_26  and  C17_27 
ROOT
HETATM    1  C7  UNL     1      16.597  15.689  18.720  1.00  0.00     0.195 C 
ENDROOT
BRANCH   1   2
HETATM    2  N3  UNL     1      15.945  14.496  18.291  1.00  0.00    -0.122 NA
BRANCH   2   3
HETATM    3  N2  UNL     1      14.598  14.656  18.016  1.00  0.00    -0.255 N 
HETATM    4  C6  UNL     1      13.661  13.854  18.648  1.00  0.00     0.338 C 
HETATM    5  N1  UNL     1      12.289  13.938  18.422  1.00  0.00    -0.278 N 
HETATM    6  O2  UNL     1      14.078  12.986  19.490  1.00  0.00    -0.245 OA
HETATM    7  C5  UNL     1      11.576  14.779  17.560  1.00  0.00     0.233 C 
ATOM      8  H1  UNL     1      11.720  13.290  18.966  1.00  0.00     0.173 HD
HETATM    9  O1  UNL     1      12.100  15.648  16.825  1.00  0.00    -0.272 OA
ATOM     10  H2  UNL     1      14.294  15.364  17.347  1.00  0.00     0.187 HD
BRANCH   7  11
HETATM   11  C2  UNL     1      10.074  14.659  17.485  1.00  0.00     0.030 C 
HETATM   12  C1  UNL     1       9.478  15.137  18.781  1.00  0.00     0.025 C 
HETATM   13  C3  UNL     1       9.616  15.450  16.304  1.00  0.00     0.025 C 
HETATM   14  C4  UNL     1       9.717  13.187  17.334  1.00  0.00     0.025 C 
ENDBRANCH   7  11
ENDBRANCH   2   3
ENDBRANCH   1   2
BRANCH   1  15
HETATM   15  C8  UNL     1      15.788  16.449  19.752  1.00  0.00     0.071 C 
BRANCH  15  16
HETATM   16  C9  UNL     1      16.548  16.629  21.015  1.00  0.00    -0.056 A 
HETATM   17  C10 UNL     1      15.949  16.645  22.258  1.00  0.00     0.007 A 
HETATM   18  C11 UNL     1      16.703  16.825  23.407  1.00  0.00     0.001 A 
HETATM   19  C12 UNL     1      18.062  16.990  23.324  1.00  0.00     0.000 A 
HETATM   20  C13 UNL     1      18.687  16.977  22.092  1.00  0.00     0.001 A 
HETATM   21  C14 UNL     1      17.913  16.796  20.965  1.00  0.00     0.007 A 
ENDBRANCH  15  16
ENDBRANCH   1  15
BRANCH   1  22
HETATM   22  C15 UNL     1      16.687  16.602  17.546  1.00  0.00     0.239 C 
HETATM   23  O3  UNL     1      17.682  17.367  17.499  1.00  0.00    -0.272 OA
HETATM   24  N4  UNL     1      15.733  16.640  16.523  1.00  0.00    -0.350 N 
ATOM     25  H4  UNL     1      14.921  16.023  16.565  1.00  0.00     0.163 HD
BRANCH  24  26
HETATM   26  C16 UNL     1      15.887  17.539  15.413  1.00  0.00     0.235 C 
BRANCH  26  27
HETATM   27  C17 UNL     1      16.196  16.793  14.179  1.00  0.00     0.191 C 
HETATM   28  O4  UNL     1      16.973  17.222  13.282  1.00  0.00    -0.647 OA
HETATM   29  O5  UNL     1      15.642  15.542  13.916  1.00  0.00    -0.647 OA
ENDBRANCH  26  27
ENDBRANCH  24  26
ENDBRANCH   1  22
TORSDOF 8
ENDMDL
MODEL 3
REMARK VINA RESULT: -7.992535057      3.585      4.919
REMARK  8 active torsions:
REMARK  status: ('A' for Active; 'I' for Inactive)
REMARK    1  A    between atoms: C2_2  and  C5_5 
REMARK       I    between atoms: C5_5  and  N1_7 
REMARK       I    between atoms: N1_7  and  C6_9 
REMARK       I    between atoms: C6_9  and  N2_11 
REMARK    2  A    between atoms: N2_11  and  N3_13 
REMARK    3  A    between atoms: N3_13  and  C7_14 
REMARK    4  A    between atoms: C7_14  and  C8_15 
REMARK    5  A    between atoms: C7_14  and  C15_22 
REMARK    6  A    between atoms: C8_15  and  C9_16 
REMARK       I    between atoms: C15_22  and  N4_24 
REMARK    7  A    between atoms: N4_24  and  C16_26 
REMARK    8  A    between atoms: C16_26  and  C17_27 
ROOT
HETATM    1  C7  UNL     1      13.101  16.013  17.572  1.00  0.00     0.195 C 
ENDROOT
BRANCH   1   2
HETATM    2  N3  UNL     1      12.265  15.391  16.599  1.00  0.00    -0.122 NA
BRANCH   2   3
HETATM    3  N2  UNL     1      11.783  16.257  15.632  1.00  0.00    -0.255 N 
HETATM    4  C6  UNL     1      10.418  16.439  15.483  1.00  0.00     0.338 C 
HETATM    5  N1  UNL     1       9.847  17.279  14.530  1.00  0.00    -0.278 N 
HETATM    6  O2  UNL     1       9.633  15.801  16.267  1.00  0.00    -0.245 OA
HETATM    7  C5  UNL     1      10.464  18.074  13.556  1.00  0.00     0.233 C 
ATOM      8  H1  UNL     1       8.828  17.321  14.543  1.00  0.00     0.173 HD
HETATM    9  O1  UNL     1      11.702  18.164  13.397  1.00  0.00    -0.272 OA
ATOM     10  H2  UNL     1      12.433  16.760  15.029  1.00  0.00     0.187 HD
BRANCH   7  11
HETATM   11  C2  UNL     1       9.609  18.890  12.619  1.00  0.00     0.030 C 
HETATM   12  C1  UNL     1       9.921  20.349  12.814  1.00  0.00     0.025 C 
HETATM   13  C3  UNL     1       9.882  18.416  11.230  1.00  0.00     0.025 C 
HETATM   14  C4  UNL     1       8.149  18.681  12.995  1.00  0.00     0.025 C 
ENDBRANCH   7  11
ENDBRANCH   2   3
ENDBRANCH   1   2
BRANCH   1  15
HETATM   15  C8  UNL     1      14.038  15.028  18.242  1.00  0.00     0.071 C 
BRANCH  15  16
HETATM   16  C9  UNL     1      15.318  15.673  18.633  1.00  0.00    -0.056 A 
HETATM   17  C10 UNL     1      16.199  16.212  17.720  1.00  0.00     0.007 A 
HETATM   18  C11 UNL     1      17.385  16.796  18.136  1.00  0.00     0.001 A 
HETATM   19  C12 UNL     1      17.700  16.846  19.470  1.00  0.00     0.000 A 
HETATM   20  C13 UNL     1      16.835  16.313  20.407  1.00  0.00     0.001 A 
HETATM   21  C14 UNL     1      15.662  15.739  19.964  1.00  0.00     0.007 A 
ENDBRANCH  15  16
ENDBRANCH   1  15
BRANCH   1  22
HETATM   22  C15 UNL     1      12.224  16.519  18.664  1.00  0.00     0.239 C 
HETATM   23  O3  UNL     1      12.587  17.576  19.239  1.00  0.00    -0.272 OA
HETATM   24  N4  UNL     1      11.044  15.882  19.066  1.00  0.00    -0.350 N 
ATOM     25  H4  UNL     1      10.753  15.020  18.604  1.00  0.00     0.163 HD
BRANCH  24  26
HETATM   26  C16 UNL     1      10.239  16.431  20.121  1.00  0.00     0.235 C 
BRANCH  26  27
HETATM   27  C17 UNL     1       8.902  15.809  20.131  1.00  0.00     0.191 C 
HETATM   28  O4  UNL     1       7.855  16.413  20.496  1.00  0.00    -0.647 OA
HETATM   29  O5  UNL     1       8.701  14.490  19.732  1.00  0.00    -0.647 OA
ENDBRANCH  26  27
ENDBRANCH  24  26
ENDBRANCH   1  22
TORSDOF 8
ENDMDL
MODEL 4
REMARK VINA RESULT: -7.959165990      3.319      7.002
REMARK  8 active torsions:
REMARK  status: ('A' for Active; 'I' for Inactive)
REMARK    1  A    between atoms: C2_2  and  C5_5 
REMARK       I    between atoms: C5_5  and  N1_7 
REMARK       I    between atoms: N1_7  and  C6_9 
REMARK       I    between atoms: C6_9  and  N2_11 
REMARK    2  A    between atoms: N2_11  and  N3_13 
REMARK    3  A    between atoms: N3_13  and  C7_14 
REMARK    4  A    between atoms: C7_14  and  C8_15 
REMARK    5  A    between atoms: C7_14  and  C15_22 
REMARK    6  A    between atoms: C8_15  and  C9_16 
REMARK       I    between atoms: C15_22  and  N4_24 
REMARK    7  A    between atoms: N4_24  and  C16_26 
REMARK    8  A    between atoms: C16_26  and  C17_27 
ROOT
HETATM    1  C7  UNL     1      16.375  16.402  19.634  1.00  0.00     0.195 C 
ENDROOT
BRANCH   1   2
HETATM    2  N3  UNL     1      15.785  15.128  19.389  1.00  0.00    -0.122 NA
BRANCH   2   3
HETATM    3  N2  UNL     1      14.461  15.185  18.989  1.00  0.00    -0.255 N 
HETATM    4  C6  UNL     1      13.693  14.032  18.967  1.00  0.00     0.338 C 
HETATM    5  N1  UNL     1      12.359  13.996  18.567  1.00  0.00    -0.278 N 
HETATM    6  O2  UNL     1      14.238  12.936  19.336  1.00  0.00    -0.245 OA
HETATM    7  C5  UNL     1      11.535  15.034  18.113  1.00  0.00     0.233 C 
ATOM      8  H1  UNL     1      11.917  13.079  18.612  1.00  0.00     0.173 HD
HETATM    9  O1  UNL     1      11.895  16.228  18.006  1.00  0.00    -0.272 OA
ATOM     10  H2  UNL     1      14.051  16.076  18.709  1.00  0.00     0.187 HD
BRANCH   7  11
HETATM   11  C2  UNL     1      10.111  14.727  17.719  1.00  0.00     0.030 C 
HETATM   12  C1  UNL     1       9.195  15.101  18.853  1.00  0.00     0.025 C 
HETATM   13  C3  UNL     1       9.819  15.476  16.461  1.00  0.00     0.025 C 
HETATM   14  C4  UNL     1       9.984  13.224  17.507  1.00  0.00     0.025 C 
ENDBRANCH   7  11
ENDBRANCH   2   3
ENDBRANCH   1   2
BRANCH   1  15
HETATM   15  C8  UNL     1      17.754  16.528  19.018  1.00  0.00     0.071 C 
BRANCH  15  16
HETATM   16  C9  UNL     1      17.680  16.966  17.601  1.00  0.00    -0.056 A 
HETATM   17  C10 UNL     1      18.775  17.419  16.895  1.00  0.00     0.007 A 
HETATM   18  C11 UNL     1      18.652  17.825  15.576  1.00  0.00     0.001 A 
HETATM   19  C12 UNL     1      17.432  17.782  14.950  1.00  0.00     0.000 A 
HETATM   20  C13 UNL     1      16.319  17.332  15.634  1.00  0.00     0.001 A 
HETATM   21  C14 UNL     1      16.471  16.934  16.945  1.00  0.00     0.007 A 
ENDBRANCH  15  16
ENDBRANCH   1  15
BRANCH   1  22
HETATM   22  C15 UNL     1      16.592  16.525  21.102  1.00  0.00     0.239 C 
HETATM   23  O3  UNL     1      17.777  16.679  21.489  1.00  0.00    -0.272 OA
HETATM   24  N4  UNL     1      15.557  16.477  22.042  1.00  0.00    -0.350 N 
ATOM     25  H4  UNL     1      14.594  16.344  21.729  1.00  0.00     0.163 HD
BRANCH  24  26
HETATM   26  C16 UNL     1      15.835  16.613  23.445  1.00  0.00     0.235 C 
BRANCH  26  27
HETATM   27  C17 UNL     1      14.936  17.607  24.060  1.00  0.00     0.191 C 
HETATM   28  O4  UNL     1      13.706  17.406  24.257  1.00  0.00    -0.647 OA
HETATM   29  O5  UNL     1      15.392  18.857  24.471  1.00  0.00    -0.647 OA
ENDBRANCH  26  27
ENDBRANCH  24  26
ENDBRANCH   1  22
TORSDOF 8
ENDMDL
MODEL 5
REMARK VINA RESULT: -7.951146716      1.273      1.391
REMARK  8 active torsions:
REMARK  status: ('A' for Active; 'I' for Inactive)
REMARK    1  A    between atoms: C2_2  and  C5_5 
REMARK       I    between atoms: C5_5  and  N1_7 
REMARK       I    between atoms: N1_7  and  C6_9 
REMARK       I    between atoms: C6_9  and  N2_11 
REMARK    2  A    between atoms: N2_11  and  N3_13 
REMARK    3  A    between atoms: N3_13  and  C7_14 
REMARK    4  A    between atoms: C7_14  and  C8_15 
REMARK    5  A    between atoms: C7_14  and  C15_22 
REMARK    6  A    between atoms: C8_15  and  C9_16 
REMARK       I    between atoms: C15_22  and  N4_24 
REMARK    7  A    between atoms: N4_24  and  C16_26 
REMARK    8  A    between atoms: C16_26  and  C17_27 
ROOT
HETATM    1  C7  UNL     1      14.028  16.665  17.229  1.00  0.00     0.195 C 
ENDROOT
BRANCH   1   2
HETATM    2  N3  UNL     1      13.833  17.391  16.018  1.00  0.00    -0.122 NA
BRANCH   2   3
HETATM    3  N2  UNL     1      14.993  17.602  15.292  1.00  0.00    -0.255 N 
HETATM    4  C6  UNL     1      14.919  17.937  13.950  1.00  0.00     0.338 C 
HETATM    5  N1  UNL     1      16.033  18.154  13.142  1.00  0.00    -0.278 N 
HETATM    6  O2  UNL     1      13.761  18.056  13.419  1.00  0.00    -0.245 OA
HETATM    7  C5  UNL     1      17.394  18.080  13.460  1.00  0.00     0.233 C 
ATOM      8  H1  UNL     1      15.826  18.402  12.175  1.00  0.00     0.173 HD
HETATM    9  O1  UNL     1      17.841  17.804  14.597  1.00  0.00    -0.272 OA
ATOM     10  H2  UNL     1      15.902  17.509  15.745  1.00  0.00     0.187 HD
BRANCH   7  11
HETATM   11  C2  UNL     1      18.420  18.345  12.386  1.00  0.00     0.030 C 
HETATM   12  C1  UNL     1      19.797  18.160  12.964  1.00  0.00     0.025 C 
HETATM   13  C3  UNL     1      18.134  17.419  11.250  1.00  0.00     0.025 C 
HETATM   14  C4  UNL     1      18.298  19.800  11.953  1.00  0.00     0.025 C 
ENDBRANCH   7  11
ENDBRANCH   2   3
ENDBRANCH   1   2
BRANCH   1  15
HETATM   15  C8  UNL     1      15.320  15.872  17.224  1.00  0.00     0.071 C 
BRANCH  15  16
HETATM   16  C9  UNL     1      16.169  16.207  18.396  1.00  0.00    -0.056 A 
HETATM   17  C10 UNL     1      17.461  16.675  18.279  1.00  0.00     0.007 A 
HETATM   18  C11 UNL     1      18.216  16.965  19.405  1.00  0.00     0.001 A 
HETATM   19  C12 UNL     1      17.685  16.789  20.658  1.00  0.00     0.000 A 
HETATM   20  C13 UNL     1      16.393  16.321  20.803  1.00  0.00     0.001 A 
HETATM   21  C14 UNL     1      15.665  16.041  19.666  1.00  0.00     0.007 A 
ENDBRANCH  15  16
ENDBRANCH   1  15
BRANCH   1  22
HETATM   22  C15 UNL     1      12.946  15.646  17.324  1.00  0.00     0.239 C 
HETATM   23  O3  UNL     1      12.755  14.927  16.313  1.00  0.00    -0.272 OA
HETATM   24  N4  UNL     1      12.156  15.464  18.465  1.00  0.00    -0.350 N 
ATOM     25  H4  UNL     1      12.306  16.053  19.284  1.00  0.00     0.163 HD
BRANCH  24  26
HETATM   26  C16 UNL     1      11.135  14.454  18.494  1.00  0.00     0.235 C 
BRANCH  26  27
HETATM   27  C17 UNL     1       9.810  15.045  18.228  1.00  0.00     0.191 C 
HETATM   28  O4  UNL     1       8.960  15.283  19.129  1.00  0.00    -0.647 OA
HETATM   29  O5  UNL     1       9.402  15.387  16.941  1.00  0.00    -0.647 OA
ENDBRANCH  26  27
ENDBRANCH  24  26
ENDBRANCH   1  22
TORSDOF 8
ENDMDL
