MODEL 1
REMARK VINA RESULT: -7.947543331      0.000      0.000
REMARK  7 active torsions:
REMARK  status: ('A' for Active; 'I' for Inactive)
REMARK    1  A    between atoms: C1_2  and  C2_4 
REMARK    2  A    between atoms: C2_4  and  C8_15 
REMARK       I    between atoms: N1_5  and  C3_7 
REMARK    3  A    between atoms: C3_7  and  C4_9 
REMARK       I    between atoms: C8_15  and  N3_17 
REMARK    4  A    between atoms: N3_17  and  C9_19 
REMARK    5  A    between atoms: C9_19  and  C10_20 
REMARK    6  A    between atoms: C9_19  and  C16_28 
REMARK    7  A    between atoms: C11_21  and  C12_22 
ROOT
HETATM    1  C8  UNL     1      12.270  16.458  16.800  1.00  0.00     0.276 C 
HETATM    2  O4  UNL     1      12.095  17.258  17.808  1.00  0.00    -0.266 OA
HETATM    3  N3  UNL     1      13.178  15.431  17.065  1.00  0.00    -0.338 N 
ATOM      4  H3  UNL     1      13.374  14.756  16.326  1.00  0.00     0.164 HD
ENDROOT
BRANCH   1   5
HETATM    5  C2  UNL     1      11.527  16.740  15.608  1.00  0.00     0.180 C 
HETATM    6  N1  UNL     1      12.031  17.454  14.636  1.00  0.00    -0.311 N 
HETATM    7  C3  UNL     1      13.287  18.031  14.576  1.00  0.00     0.273 C 
ATOM      8  H1  UNL     1      11.429  17.604  13.827  1.00  0.00     0.169 HD
HETATM    9  O3  UNL     1      13.492  19.165  15.053  1.00  0.00    -0.266 OA
BRANCH   5  10
HETATM   10  C1  UNL     1      10.189  16.271  15.384  1.00  0.00     0.232 C 
HETATM   11  O1  UNL     1       9.491  15.792  16.282  1.00  0.00    -0.643 OA
HETATM   12  O2  UNL     1       9.628  16.345  14.120  1.00  0.00    -0.643 OA
ENDBRANCH   5  10
BRANCH   7  13
HETATM   13  C4  UNL     1      14.402  17.326  13.956  1.00  0.00     0.101 A 
HETATM   14  C5  UNL     1      15.351  17.862  13.077  1.00  0.00     0.036 A 
HETATM   15  C6  UNL     1      16.251  16.894  12.698  1.00  0.00     0.019 A 
HETATM   16  C7  UNL     1      15.834  15.758  13.361  1.00  0.00     0.088 A 
HETATM   17  N2  UNL     1      14.748  16.035  14.092  1.00  0.00    -0.361 N 
ATOM     18  H2  UNL     1      14.250  15.359  14.672  1.00  0.00     0.165 HD
ENDBRANCH   7  13
ENDBRANCH   1   5
BRANCH   3  19
HETATM   19  C9  UNL     1      13.864  15.274  18.348  1.00  0.00     0.209 C 
BRANCH  19  20
HETATM   20  C10 UNL     1      15.292  15.648  18.243  1.00  0.00     0.010 C 
HETATM   21  C11 UNL     1      15.879  16.305  19.226  1.00  0.00     0.011 C 
BRANCH  21  22
HETATM   22  C12 UNL     1      17.280  16.693  19.166  1.00  0.00    -0.020 A 
HETATM   23  C13 UNL     1      18.148  16.859  20.225  1.00  0.00     0.029 A 
HETATM   24  C14 UNL     1      19.391  17.233  19.723  1.00  0.00     0.088 A 
HETATM   25  N4  UNL     1      19.279  17.294  18.393  1.00  0.00    -0.374 N 
HETATM   26  C15 UNL     1      18.027  16.975  18.029  1.00  0.00     0.099 A 
ATOM     27  H4  UNL     1      20.031  17.544  17.751  1.00  0.00     0.164 HD
ENDBRANCH  21  22
ENDBRANCH  19  20
BRANCH  19  28
HETATM   28  C16 UNL     1      13.769  13.892  18.851  1.00  0.00     0.200 C 
HETATM   29  O5  UNL     1      12.678  13.283  18.915  1.00  0.00    -0.646 OA
HETATM   30  O6  UNL     1      14.914  13.243  19.267  1.00  0.00    -0.646 OA
ENDBRANCH  19  28
ENDBRANCH   3  19
TORSDOF 7
ENDMDL
MODEL 2
REMARK VINA RESULT: -7.926774257      0.907      1.052
REMARK  7 active torsions:
REMARK  status: ('A' for Active; 'I' for Inactive)
REMARK    1  A    between atoms: C1_2  and  C2_4 
REMARK    2  A    between atoms: C2_4  and  C8_15 
REMARK       I    between atoms: N1_5  and  C3_7 
REMARK    3  A    between atoms: C3_7  and  C4_9 
REMARK       I    between atoms: C8_15  and  N3_17 
REMARK    4  A    between atoms: N3_17  and  C9_19 
REMARK    5  A    between atoms: C9_19  and  C10_20 
REMARK    6  A    between atoms: C9_19  and  C16_28 
REMARK    7  A    between atoms: C11_21  and  C12_22 
ROOT
HETATM    1  C8  UNL     1      11.986  16.319  17.116  1.00  0.00     0.276 C 
HETATM    2  O4  UNL     1      11.523  16.655  18.282  1.00  0.00    -0.266 OA
HETATM    3  N3  UNL     1      13.212  15.655  17.183  1.00  0.00    -0.338 N 
ATOM      4  H3  UNL     1      13.647  15.354  16.311  1.00  0.00     0.164 HD
ENDROOT
BRANCH   1   5
HETATM    5  C2  UNL     1      11.193  16.669  15.975  1.00  0.00     0.180 C 
HETATM    6  N1  UNL     1      11.499  17.684  15.210  1.00  0.00    -0.311 N 
HETATM    7  C3  UNL     1      12.569  18.551  15.346  1.00  0.00     0.273 C 
ATOM      8  H1  UNL     1      10.877  17.858  14.421  1.00  0.00     0.169 HD
HETATM    9  O3  UNL     1      12.481  19.564  16.067  1.00  0.00    -0.266 OA
BRANCH   5  10
HETATM   10  C1  UNL     1      10.017  15.947  15.582  1.00  0.00     0.232 C 
HETATM   11  O1  UNL     1       9.521  15.052  16.273  1.00  0.00    -0.643 OA
HETATM   12  O2  UNL     1       9.387  16.241  14.384  1.00  0.00    -0.643 OA
ENDBRANCH   5  10
BRANCH   7  13
HETATM   13  C4  UNL     1      13.823  18.300  14.649  1.00  0.00     0.101 A 
HETATM   14  C5  UNL     1      15.038  17.901  15.221  1.00  0.00     0.036 A 
HETATM   15  C6  UNL     1      16.001  17.763  14.248  1.00  0.00     0.019 A 
HETATM   16  C7  UNL     1      15.353  18.085  13.074  1.00  0.00     0.088 A 
HETATM   17  N2  UNL     1      14.077  18.397  13.333  1.00  0.00    -0.361 N 
ATOM     18  H2  UNL     1      13.392  18.671  12.629  1.00  0.00     0.165 HD
ENDBRANCH   7  13
ENDBRANCH   1   5
BRANCH   3  19
HETATM   19  C9  UNL     1      13.904  15.367  18.439  1.00  0.00     0.209 C 
BRANCH  19  20
HETATM   20  C10 UNL     1      15.340  15.717  18.353  1.00  0.00     0.010 C 
HETATM   21  C11 UNL     1      15.928  16.351  19.351  1.00  0.00     0.011 C 
BRANCH  21  22
HETATM   22  C12 UNL     1      17.336  16.715  19.310  1.00  0.00    -0.020 A 
HETATM   23  C13 UNL     1      18.184  16.896  20.383  1.00  0.00     0.029 A 
HETATM   24  C14 UNL     1      19.444  17.238  19.898  1.00  0.00     0.088 A 
HETATM   25  N4  UNL     1      19.360  17.263  18.564  1.00  0.00    -0.374 N 
HETATM   26  C15 UNL     1      18.111  16.954  18.182  1.00  0.00     0.099 A 
ATOM     27  H4  UNL     1      20.129  17.484  17.932  1.00  0.00     0.164 HD
ENDBRANCH  21  22
ENDBRANCH  19  20
BRANCH  19  28
HETATM   28  C16 UNL     1      13.782  13.947  18.816  1.00  0.00     0.200 C 
HETATM   29  O5  UNL     1      12.692  13.338  18.762  1.00  0.00    -0.646 OA
HETATM   30  O6  UNL     1      14.902  13.263  19.246  1.00  0.00    -0.646 OA
ENDBRANCH  19  28
ENDBRANCH   3  19
TORSDOF 7
ENDMDL
MODEL 3
REMARK VINA RESULT: -7.815024947      2.505      4.786
REMARK  7 active torsions:
REMARK  status: ('A' for Active; 'I' for Inactive)
REMARK    1  A    between atoms: C1_2  and  C2_4 
REMARK    2  A    between atoms: C2_4  and  C8_15 
REMARK       I    between atoms: N1_5  and  C3_7 
REMARK    3  A    between atoms: C3_7  and  C4_9 
REMARK       I    between atoms: C8_15  and  N3_17 
REMARK    4  A    between atoms: N3_17  and  C9_19 
REMARK    5  A    between atoms: C9_19  and  C10_20 
REMARK    6  A    between atoms: C9_19  and  C16_28 
REMARK    7  A    between atoms: C11_21  and  C12_22 
ROOT
HETATM    1  C8  UNL     1      12.170  15.767  15.830  1.00  0.00     0.276 C 
HETATM    2  O4  UNL     1      12.632  14.626  15.414  1.00  0.00    -0.266 OA
HETATM    3  N3  UNL     1      13.159  16.599  16.357  1.00  0.00    -0.338 N 
ATOM      4  H3  UNL     1      12.882  17.517  16.707  1.00  0.00     0.164 HD
ENDROOT
BRANCH   1   5
HETATM    5  C2  UNL     1      10.762  15.990  15.687  1.00  0.00     0.180 C 
HETATM    6  N1  UNL     1       9.915  15.667  16.630  1.00  0.00    -0.311 N 
HETATM    7  C3  UNL     1      10.197  15.090  17.856  1.00  0.00     0.273 C 
ATOM      8  H1  UNL     1       8.933  15.862  16.440  1.00  0.00     0.169 HD
HETATM    9  O3  UNL     1      10.272  13.851  17.975  1.00  0.00    -0.266 OA
BRANCH   5  10
HETATM   10  C1  UNL     1      10.172  16.577  14.519  1.00  0.00     0.232 C 
HETATM   11  O1  UNL     1       9.236  16.053  13.909  1.00  0.00    -0.643 OA
HETATM   12  O2  UNL     1      10.648  17.782  14.028  1.00  0.00    -0.643 OA
ENDBRANCH   5  10
BRANCH   7  13
HETATM   13  C4  UNL     1      10.413  15.917  19.036  1.00  0.00     0.101 A 
HETATM   14  C5  UNL     1       9.508  16.145  20.080  1.00  0.00     0.036 A 
HETATM   15  C6  UNL     1      10.065  16.981  21.020  1.00  0.00     0.019 A 
HETATM   16  C7  UNL     1      11.324  17.260  20.530  1.00  0.00     0.088 A 
HETATM   17  N2  UNL     1      11.506  16.625  19.366  1.00  0.00    -0.361 N 
ATOM     18  H2  UNL     1      12.357  16.673  18.805  1.00  0.00     0.165 HD
ENDBRANCH   7  13
ENDBRANCH   1   5
BRANCH   3  19
HETATM   19  C9  UNL     1      14.570  16.225  16.434  1.00  0.00     0.209 C 
BRANCH  19  20
HETATM   20  C10 UNL     1      15.130  16.509  17.775  1.00  0.00     0.010 C 
HETATM   21  C11 UNL     1      16.381  16.194  18.051  1.00  0.00     0.011 C 
BRANCH  21  22
HETATM   22  C12 UNL     1      16.973  16.455  19.354  1.00  0.00    -0.020 A 
HETATM   23  C13 UNL     1      16.362  16.343  20.586  1.00  0.00     0.029 A 
HETATM   24  C14 UNL     1      17.287  16.686  21.570  1.00  0.00     0.088 A 
HETATM   25  N4  UNL     1      18.428  16.999  20.948  1.00  0.00    -0.374 N 
HETATM   26  C15 UNL     1      18.272  16.869  19.621  1.00  0.00     0.099 A 
ATOM     27  H4  UNL     1      19.288  17.291  21.412  1.00  0.00     0.164 HD
ENDBRANCH  21  22
ENDBRANCH  19  20
BRANCH  19  28
HETATM   28  C16 UNL     1      15.378  16.931  15.422  1.00  0.00     0.200 C 
HETATM   29  O5  UNL     1      15.528  18.172  15.443  1.00  0.00    -0.646 OA
HETATM   30  O6  UNL     1      15.989  16.207  14.419  1.00  0.00    -0.646 OA
ENDBRANCH  19  28
ENDBRANCH   3  19
TORSDOF 7
ENDMDL
MODEL 4
REMARK VINA RESULT: -7.653736639      2.722      5.275
REMARK  7 active torsions:
REMARK  status: ('A' for Active; 'I' for Inactive)
REMARK    1  A    between atoms: C1_2  and  C2_4 
REMARK    2  A    between atoms: C2_4  and  C8_15 
REMARK       I    between atoms: N1_5  and  C3_7 
REMARK    3  A    between atoms: C3_7  and  C4_9 
REMARK       I    between atoms: C8_15  and  N3_17 
REMARK    4  A    between atoms: N3_17  and  C9_19 
REMARK    5  A    between atoms: C9_19  and  C10_20 
REMARK    6  A    between atoms: C9_19  and  C16_28 
REMARK    7  A    between atoms: C11_21  and  C12_22 
ROOT
HETATM    1  C8  UNL     1      12.232  16.700  16.410  1.00  0.00     0.276 C 
HETATM    2  O4  UNL     1      12.394  17.955  16.701  1.00  0.00    -0.266 OA
HETATM    3  N3  UNL     1      13.393  15.942  16.579  1.00  0.00    -0.338 N 
ATOM      4  H3  UNL     1      13.353  14.944  16.373  1.00  0.00     0.164 HD
ENDROOT
BRANCH   1   5
HETATM    5  C2  UNL     1      10.929  16.296  15.974  1.00  0.00     0.180 C 
HETATM    6  N1  UNL     1      10.172  15.513  16.699  1.00  0.00    -0.311 N 
HETATM    7  C3  UNL     1      10.465  14.966  17.936  1.00  0.00     0.273 C 
ATOM      8  H1  UNL     1       9.260  15.279  16.308  1.00  0.00     0.169 HD
HETATM    9  O3  UNL     1      11.077  13.883  18.025  1.00  0.00    -0.266 OA
BRANCH   5  10
HETATM   10  C1  UNL     1      10.352  16.709  14.727  1.00  0.00     0.232 C 
HETATM   11  O1  UNL     1       9.322  16.207  14.269  1.00  0.00    -0.643 OA
HETATM   12  O2  UNL     1      10.949  17.713  13.981  1.00  0.00    -0.643 OA
ENDBRANCH   5  10
BRANCH   7  13
HETATM   13  C4  UNL     1      10.066  15.643  19.163  1.00  0.00     0.101 A 
HETATM   14  C5  UNL     1       8.857  15.488  19.853  1.00  0.00     0.036 A 
HETATM   15  C6  UNL     1       8.839  16.292  20.970  1.00  0.00     0.019 A 
HETATM   16  C7  UNL     1      10.058  16.939  20.948  1.00  0.00     0.088 A 
HETATM   17  N2  UNL     1      10.760  16.543  19.879  1.00  0.00    -0.361 N 
ATOM     18  H2  UNL     1      11.694  16.878  19.641  1.00  0.00     0.165 HD
ENDBRANCH   7  13
ENDBRANCH   1   5
BRANCH   3  19
HETATM   19  C9  UNL     1      14.662  16.506  17.037  1.00  0.00     0.209 C 
BRANCH  19  20
HETATM   20  C10 UNL     1      15.673  16.504  15.955  1.00  0.00     0.010 C 
HETATM   21  C11 UNL     1      16.074  17.643  15.422  1.00  0.00     0.011 C 
BRANCH  21  22
HETATM   22  C12 UNL     1      17.064  17.689  14.357  1.00  0.00    -0.020 A 
HETATM   23  C13 UNL     1      18.269  18.360  14.365  1.00  0.00     0.029 A 
HETATM   24  C14 UNL     1      18.906  18.138  13.146  1.00  0.00     0.088 A 
HETATM   25  N4  UNL     1      18.106  17.353  12.419  1.00  0.00    -0.374 N 
HETATM   26  C15 UNL     1      16.995  17.066  13.117  1.00  0.00     0.099 A 
ATOM     27  H4  UNL     1      18.308  17.021  11.476  1.00  0.00     0.164 HD
ENDBRANCH  21  22
ENDBRANCH  19  20
BRANCH  19  28
HETATM   28  C16 UNL     1      15.202  15.767  18.194  1.00  0.00     0.200 C 
HETATM   29  O5  UNL     1      15.648  14.604  18.087  1.00  0.00    -0.646 OA
HETATM   30  O6  UNL     1      15.216  16.370  19.435  1.00  0.00    -0.646 OA
ENDBRANCH  19  28
ENDBRANCH   3  19
TORSDOF 7
ENDMDL
MODEL 5
REMARK VINA RESULT: -7.628871914      2.403      4.727
REMARK  7 active torsions:
REMARK  status: ('A' for Active; 'I' for Inactive)
REMARK    1  A    between atoms: C1_2  and  C2_4 
REMARK    2  A    between atoms: C2_4  and  C8_15 
REMARK       I    between atoms: N1_5  and  C3_7 
REMARK    3  A    between atoms: C3_7  and  C4_9 
REMARK       I    between atoms: C8_15  and  N3_17 
REMARK    4  A    between atoms: N3_17  and  C9_19 
REMARK    5  A    between atoms: C9_19  and  C10_20 
REMARK    6  A    between atoms: C9_19  and  C16_28 
REMARK    7  A    between atoms: C11_21  and  C12_22 
ROOT
HETATM    1  C8  UNL     1      14.168  17.335  14.276  1.00  0.00     0.276 C 
HETATM    2  O4  UNL     1      14.543  16.272  13.630  1.00  0.00    -0.266 OA
HETATM    3  N3  UNL     1      15.153  17.833  15.132  1.00  0.00    -0.338 N 
ATOM      4  H3  UNL     1      14.941  18.668  15.678  1.00  0.00     0.164 HD
ENDROOT
BRANCH   1   5
HETATM    5  C2  UNL     1      12.845  17.819  14.020  1.00  0.00     0.180 C 
HETATM    6  N1  UNL     1      11.789  17.238  14.528  1.00  0.00    -0.311 N 
HETATM    7  C3  UNL     1      11.751  16.127  15.351  1.00  0.00     0.273 C 
ATOM      8  H1  UNL     1      10.888  17.653  14.291  1.00  0.00     0.169 HD
HETATM    9  O3  UNL     1      11.725  14.977  14.869  1.00  0.00    -0.266 OA
BRANCH   5  10
HETATM   10  C1  UNL     1      12.570  18.963  13.198  1.00  0.00     0.232 C 
HETATM   11  O1  UNL     1      11.491  19.561  13.227  1.00  0.00    -0.643 OA
HETATM   12  O2  UNL     1      13.533  19.442  12.325  1.00  0.00    -0.643 OA
ENDBRANCH   5  10
BRANCH   7  13
HETATM   13  C4  UNL     1      11.742  16.274  16.801  1.00  0.00     0.101 A 
HETATM   14  C5  UNL     1      12.695  16.935  17.585  1.00  0.00     0.036 A 
HETATM   15  C6  UNL     1      12.350  16.866  18.916  1.00  0.00     0.019 A 
HETATM   16  C7  UNL     1      11.170  16.151  18.928  1.00  0.00     0.088 A 
HETATM   17  N2  UNL     1      10.833  15.814  17.677  1.00  0.00    -0.361 N 
ATOM     18  H2  UNL     1      10.001  15.281  17.423  1.00  0.00     0.165 HD
ENDBRANCH   7  13
ENDBRANCH   1   5
BRANCH   3  19
HETATM   19  C9  UNL     1      16.472  17.220  15.285  1.00  0.00     0.209 C 
BRANCH  19  20
HETATM   20  C10 UNL     1      16.921  17.257  16.695  1.00  0.00     0.010 C 
HETATM   21  C11 UNL     1      16.301  16.533  17.608  1.00  0.00     0.011 C 
BRANCH  21  22
HETATM   22  C12 UNL     1      16.708  16.539  19.004  1.00  0.00    -0.020 A 
HETATM   23  C13 UNL     1      15.915  16.302  20.108  1.00  0.00     0.029 A 
HETATM   24  C14 UNL     1      16.705  16.407  21.250  1.00  0.00     0.088 A 
HETATM   25  N4  UNL     1      17.945  16.700  20.848  1.00  0.00    -0.374 N 
HETATM   26  C15 UNL     1      17.979  16.785  19.509  1.00  0.00     0.099 A 
ATOM     27  H4  UNL     1      18.745  16.838  21.466  1.00  0.00     0.164 HD
ENDBRANCH  21  22
ENDBRANCH  19  20
BRANCH  19  28
HETATM   28  C16 UNL     1      17.484  17.885  14.445  1.00  0.00     0.200 C 
HETATM   29  O5  UNL     1      18.263  18.749  14.905  1.00  0.00    -0.646 OA
HETATM   30  O6  UNL     1      17.580  17.551  13.109  1.00  0.00    -0.646 OA
ENDBRANCH  19  28
ENDBRANCH   3  19
TORSDOF 7
ENDMDL
