MODEL 1
REMARK VINA RESULT: -8.072599177      0.000      0.000
REMARK  7 active torsions:
REMARK  status: ('A' for Active; 'I' for Inactive)
REMARK       I    between atoms: C2_2  and  N1_4 
REMARK    1  A    between atoms: N1_4  and  N2_5 
REMARK       I    between atoms: N2_5  and  C3_7 
REMARK    2  A    between atoms: C3_7  and  C4_9 
REMARK    3  A    between atoms: C4_9  and  N3_10 
REMARK       I    between atoms: N3_10  and  C5_12 
REMARK    4  A    between atoms: C5_12  and  C6_14 
REMARK    5  A    between atoms: C6_14  and  N4_15 
REMARK    6  A    between atoms: C6_14  and  C15_28 
REMARK       I    between atoms: N4_15  and  C7_17 
REMARK       I    between atoms: C7_17  and  N5_19 
REMARK    7  A    between atoms: N5_19  and  C8_21 
ROOT
HETATM    1  C6  UNL     1      15.687  17.309  14.785  1.00  0.00     0.182 C 
ENDROOT
BRANCH   1   2
HETATM    2  C5  UNL     1      16.811  17.443  15.683  1.00  0.00     0.244 C 
HETATM    3  N3  UNL     1      16.885  16.826  16.967  1.00  0.00    -0.330 N 
ATOM      4  H3  UNL     1      16.136  16.228  17.316  1.00  0.00     0.168 HD
HETATM    5  O3  UNL     1      17.878  18.145  15.461  1.00  0.00    -0.271 OA
BRANCH   3   6
HETATM    6  C4  UNL     1      18.061  17.085  17.744  1.00  0.00     0.167 C 
BRANCH   6   7
HETATM    7  C3  UNL     1      17.921  17.003  19.170  1.00  0.00     0.285 C 
HETATM    8  N2  UNL     1      18.928  17.297  20.159  1.00  0.00    -0.195 N 
ATOM      9  H2  UNL     1      19.875  17.556  19.884  1.00  0.00     0.205 HD
HETATM   10  O2  UNL     1      16.796  16.648  19.622  1.00  0.00    -0.264 OA
BRANCH   8  11
HETATM   11  N1  UNL     1      18.566  17.214  21.500  1.00  0.00    -0.284 NA
HETATM   12  C2  UNL     1      18.240  17.139  22.754  1.00  0.00     0.308 C 
HETATM   13  C1  UNL     1      16.775  17.016  23.199  1.00  0.00     0.137 C 
HETATM   14  O1  UNL     1      18.993  17.141  23.797  1.00  0.00    -0.256 OA
ENDBRANCH   8  11
ENDBRANCH   6   7
ENDBRANCH   3   6
ENDBRANCH   1   2
BRANCH   1  15
HETATM   15  N4  UNL     1      14.480  17.744  15.482  1.00  0.00    -0.329 N 
HETATM   16  C7  UNL     1      13.558  16.936  16.104  1.00  0.00     0.321 C 
HETATM   17  O4  UNL     1      13.693  15.679  16.167  1.00  0.00    -0.247 OA
HETATM   18  N5  UNL     1      12.355  17.425  16.728  1.00  0.00    -0.308 N 
ATOM     19  H5  UNL     1      12.157  18.414  16.882  1.00  0.00     0.170 HD
ATOM     20  H4  UNL     1      14.302  18.748  15.510  1.00  0.00     0.165 HD
BRANCH  18  21
HETATM   21  C8  UNL     1      11.454  16.352  17.114  1.00  0.00     0.042 A 
HETATM   22  C9  UNL     1      11.598  15.789  18.301  1.00  0.00     0.030 A 
HETATM   23  C10 UNL     1      10.810  14.705  18.772  1.00  0.00     0.002 A 
HETATM   24  C11 UNL     1       9.853  14.287  17.843  1.00  0.00     0.001 A 
HETATM   25  C12 UNL     1       9.704  14.848  16.650  1.00  0.00     0.009 A 
HETATM   26  C13 UNL     1      10.516  15.910  16.250  1.00  0.00    -0.035 A 
HETATM   27  C14 UNL     1      10.296  16.524  14.906  1.00  0.00     0.050 C 
ENDBRANCH  18  21
ENDBRANCH   1  15
BRANCH   1  28
HETATM   28  C15 UNL     1      15.855  17.959  13.428  1.00  0.00     0.009 C 
HETATM   29  C16 UNL     1      16.312  17.045  12.320  1.00  0.00     0.012 C 
HETATM   30  C17 UNL     1      14.506  18.483  12.910  1.00  0.00     0.012 C 
ENDBRANCH   1  28
TORSDOF 7
ENDMDL
MODEL 2
REMARK VINA RESULT: -8.034916202      0.479      1.368
REMARK  7 active torsions:
REMARK  status: ('A' for Active; 'I' for Inactive)
REMARK       I    between atoms: C2_2  and  N1_4 
REMARK    1  A    between atoms: N1_4  and  N2_5 
REMARK       I    between atoms: N2_5  and  C3_7 
REMARK    2  A    between atoms: C3_7  and  C4_9 
REMARK    3  A    between atoms: C4_9  and  N3_10 
REMARK       I    between atoms: N3_10  and  C5_12 
REMARK    4  A    between atoms: C5_12  and  C6_14 
REMARK    5  A    between atoms: C6_14  and  N4_15 
REMARK    6  A    between atoms: C6_14  and  C15_28 
REMARK       I    between atoms: N4_15  and  C7_17 
REMARK       I    between atoms: C7_17  and  N5_19 
REMARK    7  A    between atoms: N5_19  and  C8_21 
ROOT
HETATM    1  C6  UNL     1      15.991  17.271  14.700  1.00  0.00     0.182 C 
ENDROOT
BRANCH   1   2
HETATM    2  C5  UNL     1      17.068  17.454  15.645  1.00  0.00     0.244 C 
HETATM    3  N3  UNL     1      17.103  16.862  16.942  1.00  0.00    -0.330 N 
ATOM      4  H3  UNL     1      16.357  16.247  17.268  1.00  0.00     0.168 HD
HETATM    5  O3  UNL     1      18.122  18.186  15.458  1.00  0.00    -0.271 OA
BRANCH   3   6
HETATM    6  C4  UNL     1      18.234  17.170  17.766  1.00  0.00     0.167 C 
BRANCH   6   7
HETATM    7  C3  UNL     1      18.049  17.051  19.183  1.00  0.00     0.285 C 
HETATM    8  N2  UNL     1      19.019  17.330  20.212  1.00  0.00    -0.195 N 
ATOM      9  H2  UNL     1      19.972  17.607  19.975  1.00  0.00     0.205 HD
HETATM   10  O2  UNL     1      16.914  16.672  19.590  1.00  0.00    -0.264 OA
BRANCH   8  11
HETATM   11  N1  UNL     1      18.615  17.210  21.538  1.00  0.00    -0.284 NA
HETATM   12  C2  UNL     1      18.250  17.098  22.779  1.00  0.00     0.308 C 
HETATM   13  C1  UNL     1      16.769  17.022  23.177  1.00  0.00     0.137 C 
HETATM   14  O1  UNL     1      18.971  17.025  23.841  1.00  0.00    -0.256 OA
ENDBRANCH   8  11
ENDBRANCH   6   7
ENDBRANCH   3   6
ENDBRANCH   1   2
BRANCH   1  15
HETATM   15  N4  UNL     1      14.760  17.791  15.289  1.00  0.00    -0.329 N 
HETATM   16  C7  UNL     1      13.805  17.068  15.963  1.00  0.00     0.321 C 
HETATM   17  O4  UNL     1      13.924  15.827  16.180  1.00  0.00    -0.247 OA
HETATM   18  N5  UNL     1      12.583  17.634  16.474  1.00  0.00    -0.308 N 
ATOM     19  H5  UNL     1      12.389  18.635  16.501  1.00  0.00     0.170 HD
ATOM     20  H4  UNL     1      14.592  18.793  15.191  1.00  0.00     0.165 HD
BRANCH  18  21
HETATM   21  C8  UNL     1      11.655  16.620  16.945  1.00  0.00     0.042 A 
HETATM   22  C9  UNL     1      10.851  16.033  16.076  1.00  0.00     0.030 A 
HETATM   23  C10 UNL     1       9.873  15.062  16.422  1.00  0.00     0.002 A 
HETATM   24  C11 UNL     1       9.847  14.783  17.792  1.00  0.00     0.001 A 
HETATM   25  C12 UNL     1      10.652  15.369  18.668  1.00  0.00     0.009 A 
HETATM   26  C13 UNL     1      11.590  16.318  18.259  1.00  0.00    -0.035 A 
HETATM   27  C14 UNL     1      12.490  16.934  19.279  1.00  0.00     0.050 C 
ENDBRANCH  18  21
ENDBRANCH   1  15
BRANCH   1  28
HETATM   28  C15 UNL     1      16.249  17.797  13.304  1.00  0.00     0.009 C 
HETATM   29  C16 UNL     1      16.380  16.751  12.227  1.00  0.00     0.012 C 
HETATM   30  C17 UNL     1      15.063  18.647  12.820  1.00  0.00     0.012 C 
ENDBRANCH   1  28
TORSDOF 7
ENDMDL
MODEL 3
REMARK VINA RESULT: -7.784383071      2.445      6.215
REMARK  7 active torsions:
REMARK  status: ('A' for Active; 'I' for Inactive)
REMARK       I    between atoms: C2_2  and  N1_4 
REMARK    1  A    between atoms: N1_4  and  N2_5 
REMARK       I    between atoms: N2_5  and  C3_7 
REMARK    2  A    between atoms: C3_7  and  C4_9 
REMARK    3  A    between atoms: C4_9  and  N3_10 
REMARK       I    between atoms: N3_10  and  C5_12 
REMARK    4  A    between atoms: C5_12  and  C6_14 
REMARK    5  A    between atoms: C6_14  and  N4_15 
REMARK    6  A    between atoms: C6_14  and  C15_28 
REMARK       I    between atoms: N4_15  and  C7_17 
REMARK       I    between atoms: C7_17  and  N5_19 
REMARK    7  A    between atoms: N5_19  and  C8_21 
ROOT
HETATM    1  C6  UNL     1      16.692  16.557  19.167  1.00  0.00     0.182 C 
ENDROOT
BRANCH   1   2
HETATM    2  C5  UNL     1      17.672  16.952  18.182  1.00  0.00     0.244 C 
HETATM    3  N3  UNL     1      17.354  17.324  16.842  1.00  0.00    -0.330 N 
ATOM      4  H3  UNL     1      16.390  17.348  16.510  1.00  0.00     0.168 HD
HETATM    5  O3  UNL     1      18.954  17.003  18.369  1.00  0.00    -0.271 OA
BRANCH   3   6
HETATM    6  C4  UNL     1      18.452  17.663  15.985  1.00  0.00     0.167 C 
BRANCH   6   7
HETATM    7  C3  UNL     1      18.123  18.058  14.646  1.00  0.00     0.285 C 
HETATM    8  N2  UNL     1      18.733  17.586  13.428  1.00  0.00    -0.195 N 
ATOM      9  H2  UNL     1      19.515  16.931  13.451  1.00  0.00     0.205 HD
HETATM   10  O2  UNL     1      17.194  18.902  14.501  1.00  0.00    -0.264 OA
BRANCH   8  11
HETATM   11  N1  UNL     1      18.221  18.052  12.221  1.00  0.00    -0.284 NA
HETATM   12  C2  UNL     1      17.741  18.498  11.100  1.00  0.00     0.308 C 
HETATM   13  C1  UNL     1      17.688  17.619   9.842  1.00  0.00     0.137 C 
HETATM   14  O1  UNL     1      17.246  19.652  10.822  1.00  0.00    -0.256 OA
ENDBRANCH   8  11
ENDBRANCH   6   7
ENDBRANCH   3   6
ENDBRANCH   1   2
BRANCH   1  15
HETATM   15  N4  UNL     1      15.911  15.447  18.627  1.00  0.00    -0.329 N 
HETATM   16  C7  UNL     1      14.615  15.502  18.174  1.00  0.00     0.321 C 
HETATM   17  O4  UNL     1      13.952  16.580  18.146  1.00  0.00    -0.247 OA
HETATM   18  N5  UNL     1      13.880  14.355  17.703  1.00  0.00    -0.308 N 
ATOM     19  H5  UNL     1      14.301  13.441  17.536  1.00  0.00     0.170 HD
ATOM     20  H4  UNL     1      16.375  14.539  18.581  1.00  0.00     0.165 HD
BRANCH  18  21
HETATM   21  C8  UNL     1      12.472  14.645  17.493  1.00  0.00     0.042 A 
HETATM   22  C9  UNL     1      11.635  14.527  18.508  1.00  0.00     0.030 A 
HETATM   23  C10 UNL     1      10.233  14.739  18.416  1.00  0.00     0.002 A 
HETATM   24  C11 UNL     1       9.821  15.091  17.127  1.00  0.00     0.001 A 
HETATM   25  C12 UNL     1      10.658  15.211  16.104  1.00  0.00     0.009 A 
HETATM   26  C13 UNL     1      12.025  14.985  16.265  1.00  0.00    -0.035 A 
HETATM   27  C14 UNL     1      12.930  15.155  15.090  1.00  0.00     0.050 C 
ENDBRANCH  18  21
ENDBRANCH   1  15
BRANCH   1  28
HETATM   28  C15 UNL     1      17.233  16.282  20.554  1.00  0.00     0.009 C 
HETATM   29  C16 UNL     1      18.301  17.230  21.035  1.00  0.00     0.012 C 
HETATM   30  C17 UNL     1      16.125  16.445  21.607  1.00  0.00     0.012 C 
ENDBRANCH   1  28
TORSDOF 7
ENDMDL
MODEL 4
REMARK VINA RESULT: -7.643281450      3.559      6.051
REMARK  7 active torsions:
REMARK  status: ('A' for Active; 'I' for Inactive)
REMARK       I    between atoms: C2_2  and  N1_4 
REMARK    1  A    between atoms: N1_4  and  N2_5 
REMARK       I    between atoms: N2_5  and  C3_7 
REMARK    2  A    between atoms: C3_7  and  C4_9 
REMARK    3  A    between atoms: C4_9  and  N3_10 
REMARK       I    between atoms: N3_10  and  C5_12 
REMARK    4  A    between atoms: C5_12  and  C6_14 
REMARK    5  A    between atoms: C6_14  and  N4_15 
REMARK    6  A    between atoms: C6_14  and  C15_28 
REMARK       I    between atoms: N4_15  and  C7_17 
REMARK       I    between atoms: C7_17  and  N5_19 
REMARK    7  A    between atoms: N5_19  and  C8_21 
ROOT
HETATM    1  C6  UNL     1      16.507  17.313  15.974  1.00  0.00     0.182 C 
ENDROOT
BRANCH   1   2
HETATM    2  C5  UNL     1      17.080  17.973  14.824  1.00  0.00     0.244 C 
HETATM    3  N3  UNL     1      17.844  17.307  13.819  1.00  0.00    -0.330 N 
ATOM      4  H3  UNL     1      18.011  16.302  13.855  1.00  0.00     0.168 HD
HETATM    5  O3  UNL     1      17.000  19.239  14.561  1.00  0.00    -0.271 OA
BRANCH   3   6
HETATM    6  C4  UNL     1      18.365  18.117  12.758  1.00  0.00     0.167 C 
BRANCH   6   7
HETATM    7  C3  UNL     1      19.775  18.028  12.514  1.00  0.00     0.285 C 
HETATM    8  N2  UNL     1      20.512  16.860  12.101  1.00  0.00    -0.195 N 
ATOM      9  H2  UNL     1      20.049  15.958  11.991  1.00  0.00     0.205 HD
HETATM   10  O2  UNL     1      20.458  19.081  12.663  1.00  0.00    -0.264 OA
BRANCH   8  11
HETATM   11  N1  UNL     1      21.875  17.003  11.857  1.00  0.00    -0.284 NA
HETATM   12  C2  UNL     1      23.143  17.145  11.621  1.00  0.00     0.308 C 
HETATM   13  C1  UNL     1      24.197  16.305  12.357  1.00  0.00     0.137 C 
HETATM   14  O1  UNL     1      23.740  17.932  10.797  1.00  0.00    -0.256 OA
ENDBRANCH   8  11
ENDBRANCH   6   7
ENDBRANCH   3   6
ENDBRANCH   1   2
BRANCH   1  15
HETATM   15  N4  UNL     1      15.533  16.329  15.510  1.00  0.00    -0.329 N 
HETATM   16  C7  UNL     1      14.256  16.152  15.987  1.00  0.00     0.321 C 
HETATM   17  O4  UNL     1      13.765  16.886  16.894  1.00  0.00    -0.247 OA
HETATM   18  N5  UNL     1      13.361  15.123  15.521  1.00  0.00    -0.308 N 
ATOM     19  H5  UNL     1      13.547  14.534  14.710  1.00  0.00     0.170 HD
ATOM     20  H4  UNL     1      15.830  15.710  14.755  1.00  0.00     0.165 HD
BRANCH  18  21
HETATM   21  C8  UNL     1      12.164  15.018  16.338  1.00  0.00     0.042 A 
HETATM   22  C9  UNL     1      12.198  14.279  17.433  1.00  0.00     0.030 A 
HETATM   23  C10 UNL     1      11.083  14.063  18.286  1.00  0.00     0.002 A 
HETATM   24  C11 UNL     1       9.929  14.720  17.847  1.00  0.00     0.001 A 
HETATM   25  C12 UNL     1       9.889  15.463  16.748  1.00  0.00     0.009 A 
HETATM   26  C13 UNL     1      11.024  15.630  15.954  1.00  0.00    -0.035 A 
HETATM   27  C14 UNL     1      10.937  16.494  14.739  1.00  0.00     0.050 C 
ENDBRANCH  18  21
ENDBRANCH   1  15
BRANCH   1  28
HETATM   28  C15 UNL     1      17.502  16.742  16.962  1.00  0.00     0.009 C 
HETATM   29  C16 UNL     1      18.758  17.550  17.161  1.00  0.00     0.012 C 
HETATM   30  C17 UNL     1      16.893  16.695  18.373  1.00  0.00     0.012 C 
ENDBRANCH   1  28
TORSDOF 7
ENDMDL
MODEL 5
REMARK VINA RESULT: -7.642868306      2.358      5.461
REMARK  7 active torsions:
REMARK  status: ('A' for Active; 'I' for Inactive)
REMARK       I    between atoms: C2_2  and  N1_4 
REMARK    1  A    between atoms: N1_4  and  N2_5 
REMARK       I    between atoms: N2_5  and  C3_7 
REMARK    2  A    between atoms: C3_7  and  C4_9 
REMARK    3  A    between atoms: C4_9  and  N3_10 
REMARK       I    between atoms: N3_10  and  C5_12 
REMARK    4  A    between atoms: C5_12  and  C6_14 
REMARK    5  A    between atoms: C6_14  and  N4_15 
REMARK    6  A    between atoms: C6_14  and  C15_28 
REMARK       I    between atoms: N4_15  and  C7_17 
REMARK       I    between atoms: C7_17  and  N5_19 
REMARK    7  A    between atoms: N5_19  and  C8_21 
ROOT
HETATM    1  C6  UNL     1      10.811  15.692  17.581  1.00  0.00     0.182 C 
ENDROOT
BRANCH   1   2
HETATM    2  C5  UNL     1      12.057  14.978  17.745  1.00  0.00     0.244 C 
HETATM    3  N3  UNL     1      13.028  15.284  18.743  1.00  0.00    -0.330 N 
ATOM      4  H3  UNL     1      12.878  16.031  19.422  1.00  0.00     0.168 HD
HETATM    5  O3  UNL     1      12.467  13.993  17.008  1.00  0.00    -0.271 OA
BRANCH   3   6
HETATM    6  C4  UNL     1      14.224  14.494  18.750  1.00  0.00     0.167 C 
BRANCH   6   7
HETATM    7  C3  UNL     1      15.430  15.158  19.150  1.00  0.00     0.285 C 
HETATM    8  N2  UNL     1      15.671  15.845  20.394  1.00  0.00    -0.195 N 
ATOM      9  H2  UNL     1      14.934  15.942  21.092  1.00  0.00     0.205 HD
HETATM   10  O2  UNL     1      16.400  15.137  18.340  1.00  0.00    -0.264 OA
BRANCH   8  11
HETATM   11  N1  UNL     1      16.941  16.371  20.612  1.00  0.00    -0.284 NA
HETATM   12  C2  UNL     1      18.124  16.861  20.827  1.00  0.00     0.308 C 
HETATM   13  C1  UNL     1      19.043  17.281  19.671  1.00  0.00     0.137 C 
HETATM   14  O1  UNL     1      18.725  17.088  21.941  1.00  0.00    -0.256 OA
ENDBRANCH   8  11
ENDBRANCH   6   7
ENDBRANCH   3   6
ENDBRANCH   1   2
BRANCH   1  15
HETATM   15  N4  UNL     1      10.865  16.440  16.328  1.00  0.00    -0.329 N 
HETATM   16  C7  UNL     1      11.753  17.438  16.008  1.00  0.00     0.321 C 
HETATM   17  O4  UNL     1      12.680  17.797  16.792  1.00  0.00    -0.247 OA
HETATM   18  N5  UNL     1      11.718  18.178  14.772  1.00  0.00    -0.308 N 
ATOM     19  H5  UNL     1      11.124  17.931  13.980  1.00  0.00     0.170 HD
ATOM     20  H4  UNL     1      10.172  16.198  15.619  1.00  0.00     0.165 HD
BRANCH  18  21
HETATM   21  C8  UNL     1      12.622  19.315  14.779  1.00  0.00     0.042 A 
HETATM   22  C9  UNL     1      12.233  20.441  15.350  1.00  0.00     0.030 A 
HETATM   23  C10 UNL     1      13.008  21.631  15.381  1.00  0.00     0.002 A 
HETATM   24  C11 UNL     1      14.242  21.491  14.739  1.00  0.00     0.001 A 
HETATM   25  C12 UNL     1      14.638  20.363  14.164  1.00  0.00     0.009 A 
HETATM   26  C13 UNL     1      13.824  19.231  14.168  1.00  0.00    -0.035 A 
HETATM   27  C14 UNL     1      14.322  17.977  13.527  1.00  0.00     0.050 C 
ENDBRANCH  18  21
ENDBRANCH   1  15
BRANCH   1  28
HETATM   28  C15 UNL     1       9.557  14.856  17.720  1.00  0.00     0.009 C 
HETATM   29  C16 UNL     1       9.702  13.399  17.363  1.00  0.00     0.012 C 
HETATM   30  C17 UNL     1       9.100  14.810  19.187  1.00  0.00     0.012 C 
ENDBRANCH   1  28
TORSDOF 7
ENDMDL
