MODEL 1
REMARK VINA RESULT: -3.630707270      0.000      0.000
REMARK  2 active torsions:
REMARK  status: ('A' for Active; 'I' for Inactive)
REMARK    1  A    between atoms: C2_2  and  N1_3 
REMARK    2  A    between atoms: C4_8  and  C5_9 
ROOT
HETATM    1  C1  UNL     1      -1.601  -9.146 -19.909  1.00  0.00     0.078 C 
HETATM    2  C2  UNL     1      -1.120  -9.182 -21.348  1.00  0.00     0.283 C 
HETATM    3  C3  UNL     1      -2.176  -8.773 -22.360  1.00  0.00     0.102 C 
HETATM    4  C4  UNL     1      -1.522  -7.459 -22.396  1.00  0.00     0.200 C 
HETATM    5  N2  UNL     1      -0.383  -7.994 -21.653  1.00  0.00    -0.036 N 
ATOM      6  H21 UNL     1       0.528  -8.065 -22.107  1.00  0.00     0.280 HD
ATOM      7  H22 UNL     1       0.030  -7.447 -20.898  1.00  0.00     0.280 HD
ENDROOT
BRANCH   2   8
HETATM    8  N1  UNL     1      -0.517 -10.429 -21.694  1.00  0.00    -0.045 N 
ATOM      9  H13 UNL     1       0.377 -10.286 -22.162  1.00  0.00     0.277 HD
ATOM     10  H12 UNL     1      -0.191 -10.921 -20.862  1.00  0.00     0.277 HD
ATOM     11  H11 UNL     1      -1.132 -11.021 -22.252  1.00  0.00     0.277 HD
ENDBRANCH   2   8
BRANCH   4  12
HETATM   12  C5  UNL     1      -1.087  -6.889 -23.702  1.00  0.00    -0.023 C 
HETATM   13  C6  UNL     1      -1.027  -7.867 -24.830  1.00  0.00     0.016 C 
HETATM   14  C7  UNL     1      -2.018  -5.762 -24.104  1.00  0.00     0.016 C 
HETATM   15  C8  UNL     1       0.296  -6.261 -23.557  1.00  0.00     0.016 C 
ENDBRANCH   4  12
TORSDOF 2
ENDMDL
MODEL 2
REMARK VINA RESULT: -3.566062872      0.300      1.315
REMARK  2 active torsions:
REMARK  status: ('A' for Active; 'I' for Inactive)
REMARK    1  A    between atoms: C2_2  and  N1_3 
REMARK    2  A    between atoms: C4_8  and  C5_9 
ROOT
HETATM    1  C1  UNL     1      -1.688  -9.404 -19.825  1.00  0.00     0.078 C 
HETATM    2  C2  UNL     1      -1.114  -9.297 -21.226  1.00  0.00     0.283 C 
HETATM    3  C3  UNL     1      -2.112  -8.818 -22.265  1.00  0.00     0.102 C 
HETATM    4  C4  UNL     1      -1.493  -7.493 -22.137  1.00  0.00     0.200 C 
HETATM    5  N2  UNL     1      -0.391  -8.070 -21.371  1.00  0.00    -0.036 N 
ATOM      6  H21 UNL     1       0.549  -8.080 -21.767  1.00  0.00     0.280 HD
ATOM      7  H22 UNL     1      -0.043  -7.587 -20.543  1.00  0.00     0.280 HD
ENDROOT
BRANCH   2   8
HETATM    8  N1  UNL     1      -0.456 -10.494 -21.642  1.00  0.00    -0.045 N 
ATOM      9  H13 UNL     1      -0.573 -10.648 -22.643  1.00  0.00     0.277 HD
ATOM     10  H12 UNL     1       0.557 -10.385 -21.610  1.00  0.00     0.277 HD
ATOM     11  H11 UNL     1      -0.754 -11.311 -21.108  1.00  0.00     0.277 HD
ENDBRANCH   2   8
BRANCH   4  12
HETATM   12  C5  UNL     1      -0.990  -6.795 -23.354  1.00  0.00    -0.023 C 
HETATM   13  C6  UNL     1       0.426  -6.325 -23.272  1.00  0.00     0.016 C 
HETATM   14  C7  UNL     1      -1.115  -7.709 -24.557  1.00  0.00     0.016 C 
HETATM   15  C8  UNL     1      -1.866  -5.582 -23.653  1.00  0.00     0.016 C 
ENDBRANCH   4  12
TORSDOF 2
ENDMDL
MODEL 3
REMARK VINA RESULT: -3.539119966      5.592      7.076
REMARK  2 active torsions:
REMARK  status: ('A' for Active; 'I' for Inactive)
REMARK    1  A    between atoms: C2_2  and  N1_3 
REMARK    2  A    between atoms: C4_8  and  C5_9 
ROOT
HETATM    1  C1  UNL     1       1.753  -4.586 -24.955  1.00  0.00     0.078 C 
HETATM    2  C2  UNL     1       2.302  -3.287 -24.394  1.00  0.00     0.283 C 
HETATM    3  C3  UNL     1       1.236  -2.251 -24.088  1.00  0.00     0.102 C 
HETATM    4  C4  UNL     1       1.349  -2.661 -22.683  1.00  0.00     0.200 C 
HETATM    5  N2  UNL     1       2.556  -3.424 -22.992  1.00  0.00    -0.036 N 
ATOM      6  H21 UNL     1       3.453  -3.127 -22.609  1.00  0.00     0.280 HD
ATOM      7  H22 UNL     1       2.685  -4.352 -22.589  1.00  0.00     0.280 HD
ENDROOT
BRANCH   2   8
HETATM    8  N1  UNL     1       3.350  -2.743 -25.196  1.00  0.00    -0.045 N 
ATOM      9  H13 UNL     1       3.675  -3.421 -25.885  1.00  0.00     0.277 HD
ATOM     10  H12 UNL     1       2.994  -2.025 -25.826  1.00  0.00     0.277 HD
ATOM     11  H11 UNL     1       4.126  -2.388 -24.637  1.00  0.00     0.277 HD
ENDBRANCH   2   8
BRANCH   4  12
HETATM   12  C5  UNL     1       1.619  -1.635 -21.636  1.00  0.00    -0.023 C 
HETATM   13  C6  UNL     1       3.063  -1.324 -21.413  1.00  0.00     0.016 C 
HETATM   14  C7  UNL     1       0.907  -0.344 -21.989  1.00  0.00     0.016 C 
HETATM   15  C8  UNL     1       1.031  -2.091 -20.303  1.00  0.00     0.016 C 
ENDBRANCH   4  12
TORSDOF 2
ENDMDL
MODEL 4
REMARK VINA RESULT: -3.531646524      7.033      8.413
REMARK  2 active torsions:
REMARK  status: ('A' for Active; 'I' for Inactive)
REMARK    1  A    between atoms: C2_2  and  N1_3 
REMARK    2  A    between atoms: C4_8  and  C5_9 
ROOT
HETATM    1  C1  UNL     1       5.975  -8.946 -29.245  1.00  0.00     0.078 C 
HETATM    2  C2  UNL     1       4.764  -8.181 -29.747  1.00  0.00     0.283 C 
HETATM    3  C3  UNL     1       3.462  -8.582 -29.079  1.00  0.00     0.102 C 
HETATM    4  C4  UNL     1       3.610  -7.383 -28.244  1.00  0.00     0.200 C 
HETATM    5  N2  UNL     1       4.687  -6.903 -29.106  1.00  0.00    -0.036 N 
ATOM      6  H21 UNL     1       4.548  -6.063 -29.667  1.00  0.00     0.280 HD
ATOM      7  H22 UNL     1       5.523  -6.493 -28.691  1.00  0.00     0.280 HD
ENDROOT
BRANCH   2   8
HETATM    8  N1  UNL     1       4.653  -8.203 -31.170  1.00  0.00    -0.045 N 
ATOM      9  H13 UNL     1       3.807  -7.725 -31.479  1.00  0.00     0.277 HD
ATOM     10  H12 UNL     1       5.351  -7.597 -31.602  1.00  0.00     0.277 HD
ATOM     11  H11 UNL     1       4.700  -9.147 -31.552  1.00  0.00     0.277 HD
ENDBRANCH   2   8
BRANCH   4  12
HETATM   12  C5  UNL     1       2.499  -6.393 -28.174  1.00  0.00    -0.023 C 
HETATM   13  C6  UNL     1       2.364  -5.509 -29.371  1.00  0.00     0.016 C 
HETATM   14  C7  UNL     1       1.182  -7.114 -27.969  1.00  0.00     0.016 C 
HETATM   15  C8  UNL     1       2.683  -5.496 -26.953  1.00  0.00     0.016 C 
ENDBRANCH   4  12
TORSDOF 2
ENDMDL
MODEL 5
REMARK VINA RESULT: -3.505296985     11.114     11.984
REMARK  2 active torsions:
REMARK  status: ('A' for Active; 'I' for Inactive)
REMARK    1  A    between atoms: C2_2  and  N1_3 
REMARK    2  A    between atoms: C4_8  and  C5_9 
ROOT
HETATM    1  C1  UNL     1       4.820  -0.154 -28.619  1.00  0.00     0.078 C 
HETATM    2  C2  UNL     1       3.553   0.488 -29.153  1.00  0.00     0.283 C 
HETATM    3  C3  UNL     1       3.518   0.615 -30.665  1.00  0.00     0.102 C 
HETATM    4  C4  UNL     1       2.665  -0.579 -30.670  1.00  0.00     0.200 C 
HETATM    5  N2  UNL     1       2.501  -0.481 -29.221  1.00  0.00    -0.036 N 
ATOM      6  H21 UNL     1       1.585  -0.261 -28.830  1.00  0.00     0.280 HD
ATOM      7  H22 UNL     1       2.549  -1.323 -28.648  1.00  0.00     0.280 HD
ENDROOT
BRANCH   2   8
HETATM    8  N1  UNL     1       3.255   1.729 -28.513  1.00  0.00    -0.045 N 
ATOM      9  H13 UNL     1       3.355   1.653 -27.501  1.00  0.00     0.277 HD
ATOM     10  H12 UNL     1       3.981   2.420 -28.699  1.00  0.00     0.277 HD
ATOM     11  H11 UNL     1       2.334   2.088 -28.764  1.00  0.00     0.277 HD
ENDBRANCH   2   8
BRANCH   4  12
HETATM   12  C5  UNL     1       1.345  -0.538 -31.361  1.00  0.00    -0.023 C 
HETATM   13  C6  UNL     1       0.165  -0.376 -30.459  1.00  0.00     0.016 C 
HETATM   14  C7  UNL     1       1.329   0.594 -32.368  1.00  0.00     0.016 C 
HETATM   15  C8  UNL     1       1.143  -1.820 -32.164  1.00  0.00     0.016 C 
ENDBRANCH   4  12
TORSDOF 2
ENDMDL
