MODEL 1
REMARK VINA RESULT: -3.807369023      0.000      0.000
REMARK  1 active torsions:
REMARK  status: ('A' for Active; 'I' for Inactive)
REMARK    1  A    between atoms: C2_2  and  C3_3 
ROOT
HETATM    1  C3  UNL     1       1.743  -2.438 -23.230  1.00  0.00     0.130 C 
HETATM    2  C4  UNL     1       0.911  -1.231 -22.771  1.00  0.00     0.070 C 
HETATM    3  N1  UNL     1       1.978  -2.302 -24.608  1.00  0.00    -0.369 N 
ATOM      4  H1  UNL     1       2.369  -1.440 -24.989  1.00  0.00     0.157 HD
HETATM    5  C5  UNL     1       1.657  -3.389 -25.450  1.00  0.00     0.355 C 
HETATM    6  N2  UNL     1       1.742  -4.656 -24.767  1.00  0.00    -0.034 N 
ATOM      7  H21 UNL     1       2.699  -4.925 -24.541  1.00  0.00     0.282 HD
ATOM      8  H22 UNL     1       1.520  -5.450 -25.367  1.00  0.00     0.282 HD
HETATM    9  C6  UNL     1       0.891  -4.570 -23.605  1.00  0.00     0.321 C 
HETATM   10  C7  UNL     1       0.994  -5.876 -22.841  1.00  0.00     0.071 C 
HETATM   11  O1  UNL     1       1.153  -3.550 -22.763  1.00  0.00    -0.329 OA
ENDROOT
BRANCH   1  12
HETATM   12  C2  UNL     1       3.087  -2.278 -22.504  1.00  0.00     0.056 C 
HETATM   13  C1  UNL     1       2.987  -1.344 -21.342  1.00  0.00     0.010 C 
ENDBRANCH   1  12
TORSDOF 1
ENDMDL
MODEL 2
REMARK VINA RESULT: -3.714510408      7.722      9.002
REMARK  1 active torsions:
REMARK  status: ('A' for Active; 'I' for Inactive)
REMARK    1  A    between atoms: C2_2  and  C3_3 
ROOT
HETATM    1  C3  UNL     1       4.481  -8.186 -29.433  1.00  0.00     0.130 C 
HETATM    2  C4  UNL     1       3.080  -8.634 -28.986  1.00  0.00     0.070 C 
HETATM    3  N1  UNL     1       4.526  -8.244 -30.834  1.00  0.00    -0.369 N 
ATOM      4  H1  UNL     1       3.813  -7.783 -31.401  1.00  0.00     0.157 HD
HETATM    5  C5  UNL     1       5.584  -8.958 -31.439  1.00  0.00     0.355 C 
HETATM    6  N2  UNL     1       6.770  -8.979 -30.620  1.00  0.00    -0.034 N 
ATOM      7  H21 UNL     1       7.227  -8.070 -30.555  1.00  0.00     0.282 HD
ATOM      8  H22 UNL     1       7.545  -9.485 -31.050  1.00  0.00     0.282 HD
HETATM    9  C6  UNL     1       6.390  -9.512 -29.335  1.00  0.00     0.321 C 
HETATM   10  C7  UNL     1       7.611  -9.506 -28.436  1.00  0.00     0.071 C 
HETATM   11  O1  UNL     1       5.384  -8.868 -28.710  1.00  0.00    -0.329 OA
ENDROOT
BRANCH   1  12
HETATM   12  C2  UNL     1       4.564  -6.710 -29.018  1.00  0.00     0.056 C 
HETATM   13  C1  UNL     1       3.466  -6.331 -28.077  1.00  0.00     0.010 C 
ENDBRANCH   1  12
TORSDOF 1
ENDMDL
MODEL 3
REMARK VINA RESULT: -3.607125856      9.810     10.912
REMARK  1 active torsions:
REMARK  status: ('A' for Active; 'I' for Inactive)
REMARK    1  A    between atoms: C2_2  and  C3_3 
ROOT
HETATM    1  C3  UNL     1       7.078  -9.160 -29.430  1.00  0.00     0.130 C 
HETATM    2  C4  UNL     1       6.915 -10.046 -28.185  1.00  0.00     0.070 C 
HETATM    3  N1  UNL     1       5.796  -8.849 -29.909  1.00  0.00    -0.369 N 
ATOM      4  H1  UNL     1       5.086  -8.456 -29.289  1.00  0.00     0.157 HD
HETATM    5  C5  UNL     1       5.515  -9.094 -31.271  1.00  0.00     0.355 C 
HETATM    6  N2  UNL     1       6.694  -9.019 -32.096  1.00  0.00    -0.034 N 
ATOM      7  H21 UNL     1       7.056  -8.071 -32.192  1.00  0.00     0.282 HD
ATOM      8  H22 UNL     1       6.503  -9.187 -33.084  1.00  0.00     0.282 HD
HETATM    9  C6  UNL     1       7.659  -9.938 -31.544  1.00  0.00     0.321 C 
HETATM   10  C7  UNL     1       8.929  -9.849 -32.367  1.00  0.00     0.071 C 
HETATM   11  O1  UNL     1       7.967  -9.750 -30.245  1.00  0.00    -0.329 OA
ENDROOT
BRANCH   1  12
HETATM   12  C2  UNL     1       7.712  -7.865 -28.900  1.00  0.00     0.056 C 
HETATM   13  C1  UNL     1       9.031  -8.116 -28.245  1.00  0.00     0.010 C 
ENDBRANCH   1  12
TORSDOF 1
ENDMDL
MODEL 4
REMARK VINA RESULT: -3.568006676      9.688     10.840
REMARK  1 active torsions:
REMARK  status: ('A' for Active; 'I' for Inactive)
REMARK    1  A    between atoms: C2_2  and  C3_3 
ROOT
HETATM    1  C3  UNL     1       8.312  -8.875 -29.684  1.00  0.00     0.130 C 
HETATM    2  C4  UNL     1       9.328  -7.724 -29.743  1.00  0.00     0.070 C 
HETATM    3  N1  UNL     1       8.336  -9.536 -30.923  1.00  0.00    -0.369 N 
ATOM      4  H1  UNL     1       9.215  -9.864 -31.325  1.00  0.00     0.157 HD
HETATM    5  C5  UNL     1       7.112  -9.734 -31.597  1.00  0.00     0.355 C 
HETATM    6  N2  UNL     1       5.994  -9.818 -30.691  1.00  0.00    -0.034 N 
ATOM      7  H21 UNL     1       5.993 -10.674 -30.136  1.00  0.00     0.282 HD
ATOM      8  H22 UNL     1       5.104  -9.970 -31.166  1.00  0.00     0.282 HD
HETATM    9  C6  UNL     1       6.009  -8.623 -29.886  1.00  0.00     0.321 C 
HETATM   10  C7  UNL     1       4.867  -8.704 -28.891  1.00  0.00     0.071 C 
HETATM   11  O1  UNL     1       7.154  -8.383 -29.216  1.00  0.00    -0.329 OA
ENDROOT
BRANCH   1  12
HETATM   12  C2  UNL     1       8.878  -9.834 -28.626  1.00  0.00     0.056 C 
HETATM   13  C1  UNL     1      10.070 -10.581 -29.130  1.00  0.00     0.010 C 
ENDBRANCH   1  12
TORSDOF 1
ENDMDL
MODEL 5
REMARK VINA RESULT: -3.538857188      1.268      1.877
REMARK  1 active torsions:
REMARK  status: ('A' for Active; 'I' for Inactive)
REMARK    1  A    between atoms: C2_2  and  C3_3 
ROOT
HETATM    1  C3  UNL     1       2.342  -2.507 -22.667  1.00  0.00     0.130 C 
HETATM    2  C4  UNL     1       2.719  -1.659 -21.441  1.00  0.00     0.070 C 
HETATM    3  N1  UNL     1       1.550  -1.714 -23.512  1.00  0.00    -0.369 N 
ATOM      4  H1  UNL     1       1.863  -0.789 -23.808  1.00  0.00     0.157 HD
HETATM    5  C5  UNL     1       0.308  -2.232 -23.941  1.00  0.00     0.355 C 
HETATM    6  N2  UNL     1       0.303  -3.672 -23.993  1.00  0.00    -0.034 N 
ATOM      7  H21 UNL     1       0.883  -4.048 -24.743  1.00  0.00     0.282 HD
ATOM      8  H22 UNL     1      -0.587  -4.058 -24.309  1.00  0.00     0.282 HD
HETATM    9  C6  UNL     1       0.692  -4.146 -22.688  1.00  0.00     0.321 C 
HETATM   10  C7  UNL     1       0.737  -5.661 -22.724  1.00  0.00     0.071 C 
HETATM   11  O1  UNL     1       1.872  -3.685 -22.227  1.00  0.00    -0.329 OA
ENDROOT
BRANCH   1  12
HETATM   12  C2  UNL     1       3.677  -2.769 -23.379  1.00  0.00     0.056 C 
HETATM   13  C1  UNL     1       3.497  -2.962 -24.850  1.00  0.00     0.010 C 
ENDBRANCH   1  12
TORSDOF 1
ENDMDL
