MODEL 1
REMARK VINA RESULT: -3.710700746      0.000      0.000
REMARK  3 active torsions:
REMARK  status: ('A' for Active; 'I' for Inactive)
REMARK    1  A    between atoms: C2_2  and  N1_3 
REMARK    2  A    between atoms: C2_2  and  C3_7 
REMARK    3  A    between atoms: C7_11  and  N2_12 
ROOT
HETATM    1  C3  UNL     1       2.901  -7.008 -27.874  1.00  0.00     0.017 C 
HETATM    2  C4  UNL     1       1.545  -7.305 -28.482  1.00  0.00     0.007 C 
HETATM    3  C5  UNL     1       1.632  -8.693 -29.053  1.00  0.00     0.002 C 
HETATM    4  C6  UNL     1       2.747  -8.921 -29.988  1.00  0.00     0.033 C 
HETATM    5  C7  UNL     1       4.003  -8.164 -29.747  1.00  0.00     0.184 C 
HETATM    6  C8  UNL     1       3.836  -6.852 -29.042  1.00  0.00     0.039 C 
ENDROOT
BRANCH   1   7
HETATM    7  C2  UNL     1       2.877  -5.791 -26.988  1.00  0.00     0.183 C 
HETATM    8  C1  UNL     1       1.758  -5.793 -26.005  1.00  0.00     0.040 C 
BRANCH   7   9
HETATM    9  N1  UNL     1       2.768  -4.628 -27.840  1.00  0.00    -0.075 N 
ATOM     10  H13 UNL     1       2.507  -3.791 -27.319  1.00  0.00     0.274 HD
ATOM     11  H12 UNL     1       3.676  -4.312 -28.179  1.00  0.00     0.274 HD
ATOM     12  H11 UNL     1       2.120  -4.825 -28.602  1.00  0.00     0.274 HD
ENDBRANCH   7   9
ENDBRANCH   1   7
BRANCH   5  13
HETATM   13  N2  UNL     1       4.975  -8.947 -28.997  1.00  0.00    -0.075 N 
ATOM     14  H23 UNL     1       5.058  -9.892 -29.372  1.00  0.00     0.274 HD
ATOM     15  H22 UNL     1       5.926  -8.622 -29.171  1.00  0.00     0.274 HD
ATOM     16  H21 UNL     1       4.764  -8.962 -28.000  1.00  0.00     0.274 HD
ENDBRANCH   5  13
TORSDOF 3
ENDMDL
MODEL 2
REMARK VINA RESULT: -3.710636193      5.347      7.158
REMARK  3 active torsions:
REMARK  status: ('A' for Active; 'I' for Inactive)
REMARK    1  A    between atoms: C2_2  and  N1_3 
REMARK    2  A    between atoms: C2_2  and  C3_7 
REMARK    3  A    between atoms: C7_11  and  N2_12 
ROOT
HETATM    1  C3  UNL     1      -0.795  -8.096 -22.846  1.00  0.00     0.017 C 
HETATM    2  C4  UNL     1      -1.540  -7.898 -24.151  1.00  0.00     0.007 C 
HETATM    3  C5  UNL     1      -0.597  -7.173 -25.070  1.00  0.00     0.002 C 
HETATM    4  C6  UNL     1      -0.031  -5.924 -24.534  1.00  0.00     0.033 C 
HETATM    5  C7  UNL     1       0.204  -5.857 -23.068  1.00  0.00     0.184 C 
HETATM    6  C8  UNL     1      -0.691  -6.725 -22.235  1.00  0.00     0.039 C 
ENDROOT
BRANCH   1   7
HETATM    7  C2  UNL     1      -1.482  -9.081 -21.937  1.00  0.00     0.183 C 
HETATM    8  C1  UNL     1      -1.827  -8.517 -20.603  1.00  0.00     0.040 C 
BRANCH   7   9
HETATM    9  N1  UNL     1      -0.600 -10.214 -21.769  1.00  0.00    -0.075 N 
ATOM     10  H13 UNL     1       0.378  -9.933 -21.692  1.00  0.00     0.274 HD
ATOM     11  H12 UNL     1      -0.700 -10.647 -20.851  1.00  0.00     0.274 HD
ATOM     12  H11 UNL     1      -0.752 -10.879 -22.527  1.00  0.00     0.274 HD
ENDBRANCH   7   9
ENDBRANCH   1   7
BRANCH   5  13
HETATM   13  N2  UNL     1       1.581  -6.182 -22.722  1.00  0.00    -0.075 N 
ATOM     14  H23 UNL     1       1.635  -6.644 -21.814  1.00  0.00     0.274 HD
ATOM     15  H22 UNL     1       1.942  -6.934 -23.307  1.00  0.00     0.274 HD
ATOM     16  H21 UNL     1       2.186  -5.362 -22.755  1.00  0.00     0.274 HD
ENDBRANCH   5  13
TORSDOF 3
ENDMDL
MODEL 3
REMARK VINA RESULT: -3.688023302      5.767      7.629
REMARK  3 active torsions:
REMARK  status: ('A' for Active; 'I' for Inactive)
REMARK    1  A    between atoms: C2_2  and  N1_3 
REMARK    2  A    between atoms: C2_2  and  C3_7 
REMARK    3  A    between atoms: C7_11  and  N2_12 
ROOT
HETATM    1  C3  UNL     1      -0.586  -7.035 -22.308  1.00  0.00     0.017 C 
HETATM    2  C4  UNL     1      -1.871  -6.416 -21.795  1.00  0.00     0.007 C 
HETATM    3  C5  UNL     1      -2.449  -7.394 -20.810  1.00  0.00     0.002 C 
HETATM    4  C6  UNL     1      -2.631  -8.764 -21.317  1.00  0.00     0.033 C 
HETATM    5  C7  UNL     1      -1.653  -9.253 -22.325  1.00  0.00     0.184 C 
HETATM    6  C8  UNL     1      -1.018  -8.190 -23.170  1.00  0.00     0.039 C 
ENDROOT
BRANCH   1   7
HETATM    7  C2  UNL     1       0.267  -6.045 -23.056  1.00  0.00     0.183 C 
HETATM    8  C1  UNL     1       0.179  -6.184 -24.536  1.00  0.00     0.040 C 
BRANCH   7   9
HETATM    9  N1  UNL     1       1.637  -6.239 -22.635  1.00  0.00    -0.075 N 
ATOM     10  H13 UNL     1       1.778  -7.144 -22.185  1.00  0.00     0.274 HD
ATOM     11  H12 UNL     1       2.268  -6.369 -23.425  1.00  0.00     0.274 HD
ATOM     12  H11 UNL     1       1.921  -5.463 -22.038  1.00  0.00     0.274 HD
ENDBRANCH   7   9
ENDBRANCH   1   7
BRANCH   5  13
HETATM   13  N2  UNL     1      -0.584 -10.030 -21.714  1.00  0.00    -0.075 N 
ATOM     14  H23 UNL     1      -0.417  -9.738 -20.752  1.00  0.00     0.274 HD
ATOM     15  H22 UNL     1      -0.876 -10.991 -21.542  1.00  0.00     0.274 HD
ATOM     16  H21 UNL     1       0.274  -9.996 -22.264  1.00  0.00     0.274 HD
ENDBRANCH   5  13
TORSDOF 3
ENDMDL
MODEL 4
REMARK VINA RESULT: -3.657540227      3.739      5.355
REMARK  3 active torsions:
REMARK  status: ('A' for Active; 'I' for Inactive)
REMARK    1  A    between atoms: C2_2  and  N1_3 
REMARK    2  A    between atoms: C2_2  and  C3_7 
REMARK    3  A    between atoms: C7_11  and  N2_12 
ROOT
HETATM    1  C3  UNL     1       6.591  -8.799 -29.637  1.00  0.00     0.017 C 
HETATM    2  C4  UNL     1       7.060  -9.614 -28.448  1.00  0.00     0.007 C 
HETATM    3  C5  UNL     1       8.560  -9.520 -28.436  1.00  0.00     0.002 C 
HETATM    4  C6  UNL     1       9.226  -9.900 -29.693  1.00  0.00     0.033 C 
HETATM    5  C7  UNL     1       8.499  -9.617 -30.960  1.00  0.00     0.184 C 
HETATM    6  C8  UNL     1       7.005  -9.589 -30.849  1.00  0.00     0.039 C 
ENDROOT
BRANCH   1   7
HETATM    7  C2  UNL     1       5.110  -8.532 -29.601  1.00  0.00     0.183 C 
HETATM    8  C1  UNL     1       4.443  -8.701 -30.922  1.00  0.00     0.040 C 
BRANCH   7   9
HETATM    9  N1  UNL     1       4.918  -7.177 -29.133  1.00  0.00    -0.075 N 
ATOM     10  H13 UNL     1       5.783  -6.763 -28.785  1.00  0.00     0.274 HD
ATOM     11  H12 UNL     1       4.742  -6.527 -29.898  1.00  0.00     0.274 HD
ATOM     12  H11 UNL     1       4.175  -7.161 -28.435  1.00  0.00     0.274 HD
ENDBRANCH   7   9
ENDBRANCH   1   7
BRANCH   5  13
HETATM   13  N2  UNL     1       8.922  -8.360 -31.561  1.00  0.00    -0.075 N 
ATOM     14  H23 UNL     1       9.136  -7.663 -30.849  1.00  0.00     0.274 HD
ATOM     15  H22 UNL     1       9.845  -8.445 -31.986  1.00  0.00     0.274 HD
ATOM     16  H21 UNL     1       8.236  -8.008 -32.229  1.00  0.00     0.274 HD
ENDBRANCH   5  13
TORSDOF 3
ENDMDL
MODEL 5
REMARK VINA RESULT: -3.657436991      6.570      8.545
REMARK  3 active torsions:
REMARK  status: ('A' for Active; 'I' for Inactive)
REMARK    1  A    between atoms: C2_2  and  N1_3 
REMARK    2  A    between atoms: C2_2  and  C3_7 
REMARK    3  A    between atoms: C7_11  and  N2_12 
ROOT
HETATM    1  C3  UNL     1       1.342  -3.781 -22.307  1.00  0.00     0.017 C 
HETATM    2  C4  UNL     1       2.466  -3.224 -23.158  1.00  0.00     0.007 C 
HETATM    3  C5  UNL     1       3.240  -2.284 -22.276  1.00  0.00     0.002 C 
HETATM    4  C6  UNL     1       2.441  -1.237 -21.618  1.00  0.00     0.033 C 
HETATM    5  C7  UNL     1       1.042  -1.578 -21.249  1.00  0.00     0.184 C 
HETATM    6  C8  UNL     1       0.394  -2.631 -22.097  1.00  0.00     0.039 C 
ENDROOT
BRANCH   1   7
HETATM    7  C2  UNL     1       0.675  -4.970 -22.945  1.00  0.00     0.183 C 
HETATM    8  C1  UNL     1      -0.699  -5.227 -22.431  1.00  0.00     0.040 C 
BRANCH   7   9
HETATM    9  N1  UNL     1       1.506  -6.126 -22.699  1.00  0.00    -0.075 N 
ATOM     10  H13 UNL     1       1.992  -6.069 -21.804  1.00  0.00     0.274 HD
ATOM     11  H12 UNL     1       0.956  -6.964 -22.513  1.00  0.00     0.274 HD
ATOM     12  H11 UNL     1       2.150  -6.254 -23.480  1.00  0.00     0.274 HD
ENDBRANCH   7   9
ENDBRANCH   1   7
BRANCH   5  13
HETATM   13  N2  UNL     1       0.932  -2.000 -19.860  1.00  0.00    -0.075 N 
ATOM     14  H23 UNL     1       1.836  -2.287 -19.488  1.00  0.00     0.274 HD
ATOM     15  H22 UNL     1       0.749  -1.207 -19.246  1.00  0.00     0.274 HD
ATOM     16  H21 UNL     1       0.233  -2.733 -19.739  1.00  0.00     0.274 HD
ENDBRANCH   5  13
TORSDOF 3
ENDMDL
