MODEL 1
REMARK VINA RESULT: -9.561356671      0.000      0.000
REMARK  12 active torsions:
REMARK  status: ('A' for Active; 'I' for Inactive)
REMARK    1  A    between atoms: O1_2  and  C2_3 
REMARK    2  A    between atoms: C4_7  and  C5_8 
REMARK    3  A    between atoms: C6_9  and  C7_10 
REMARK       I    between atoms: C7_10  and  N2_12 
REMARK    4  A    between atoms: N3_15  and  C10_16 
REMARK    5  A    between atoms: C10_16  and  C11_17 
REMARK    6  A    between atoms: C11_17  and  C12_18 
REMARK    7  A    between atoms: C12_18  and  C13_19 
REMARK    8  A    between atoms: C13_19  and  N4_20 
REMARK       I    between atoms: N4_20  and  C14_22 
REMARK    9  A    between atoms: C14_22  and  C15_24 
REMARK   10  A    between atoms: C15_24  and  C16_25 
REMARK   11  A    between atoms: C15_24  and  N5_36 
REMARK   12  A    between atoms: C16_25  and  C17_26 
ROOT
HETATM    1  N5  UNL     1     -10.498  17.641  27.994  1.00  0.00    -0.315 N 
ATOM      2  H5  UNL     1     -11.459  17.899  28.221  1.00  0.00     0.172 HD
HETATM    3  C27 UNL     1      -9.983  18.000  26.728  1.00  0.00     0.178 C 
HETATM    4  N6  UNL     1      -9.554  18.287  25.688  1.00  0.00    -0.172 NA
ENDROOT
BRANCH   1   5
HETATM    5  C15 UNL     1      -9.716  16.920  28.988  1.00  0.00     0.184 C 
BRANCH   5   6
HETATM    6  C14 UNL     1      -8.613  16.189  28.224  1.00  0.00     0.241 C 
HETATM    7  N4  UNL     1      -7.445  16.918  27.936  1.00  0.00    -0.359 N 
ATOM      8  H4  UNL     1      -7.372  17.888  28.244  1.00  0.00     0.162 HD
HETATM    9  O3  UNL     1      -8.734  15.008  27.872  1.00  0.00    -0.271 OA
BRANCH   7  10
HETATM   10  C13 UNL     1      -6.361  16.329  27.223  1.00  0.00     0.122 C 
BRANCH  10  11
HETATM   11  C12 UNL     1      -5.051  16.935  27.592  1.00  0.00     0.021 C 
BRANCH  11  12
HETATM   12  C11 UNL     1      -5.003  18.427  27.221  1.00  0.00     0.032 C 
BRANCH  12  13
HETATM   13  C10 UNL     1      -5.650  18.632  25.877  1.00  0.00     0.272 C 
BRANCH  13  14
HETATM   14  N3  UNL     1      -4.652  18.774  24.870  1.00  0.00     0.091 N 
HETATM   15  C9  UNL     1      -4.925  19.844  23.941  1.00  0.00     0.292 C 
HETATM   16  C8  UNL     1      -5.872  19.500  22.867  1.00  0.00     0.156 C 
HETATM   17  N2  UNL     1      -6.110  18.120  22.603  1.00  0.00    -0.345 N 
HETATM   18  C7  UNL     1      -7.070  17.733  21.555  1.00  0.00     0.243 C 
HETATM   19  C29 UNL     1      -5.456  17.071  23.296  1.00  0.00     0.156 C 
HETATM   20  O2  UNL     1      -7.557  18.694  20.974  1.00  0.00    -0.268 OA
HETATM   21  C28 UNL     1      -4.331  17.595  24.136  1.00  0.00     0.292 C 
BRANCH  18  22
HETATM   22  C6  UNL     1      -7.317  16.370  21.340  1.00  0.00     0.075 C 
HETATM   23  C5  UNL     1      -8.111  15.509  21.861  1.00  0.00     0.020 C 
BRANCH  23  24
HETATM   24  C4  UNL     1      -9.096  15.574  22.878  1.00  0.00    -0.005 A 
HETATM   25  C3  UNL     1      -8.772  14.939  24.097  1.00  0.00     0.104 A 
HETATM   26  N1  UNL     1      -9.687  14.885  25.055  1.00  0.00    -0.331 N 
HETATM   27  C2  UNL     1     -10.917  15.389  24.967  1.00  0.00     0.222 A 
ATOM     28  H1  UNL     1      -9.429  14.423  25.927  1.00  0.00     0.168 HD
HETATM   29  N7  UNL     1     -11.250  15.997  23.820  1.00  0.00    -0.331 N 
HETATM   30  C30 UNL     1     -10.338  16.083  22.783  1.00  0.00     0.104 A 
ATOM     31  H7  UNL     1     -12.181  16.399  23.710  1.00  0.00     0.168 HD
BRANCH  27  32
HETATM   32  O1  UNL     1     -11.782  15.273  26.032  1.00  0.00    -0.327 OA
HETATM   33  C1  UNL     1     -11.888  14.048  26.718  1.00  0.00     0.213 C 
ENDBRANCH  27  32
ENDBRANCH  23  24
ENDBRANCH  18  22
ENDBRANCH  13  14
ENDBRANCH  12  13
ENDBRANCH  11  12
ENDBRANCH  10  11
ENDBRANCH   7  10
ENDBRANCH   5   6
BRANCH   5  34
HETATM   34  C16 UNL     1     -10.448  15.873  29.727  1.00  0.00     0.045 C 
BRANCH  34  35
HETATM   35  C17 UNL     1     -10.213  15.712  31.181  1.00  0.00    -0.037 C 
HETATM   36  C18 UNL     1      -9.472  14.365  31.331  1.00  0.00     0.014 C 
HETATM   37  C19 UNL     1      -9.094  14.162  32.753  1.00  0.00    -0.013 C 
HETATM   38  C20 UNL     1     -10.403  14.067  33.540  1.00  0.00     0.009 C 
HETATM   39  C24 UNL     1      -8.250  15.247  33.337  1.00  0.00     0.009 C 
HETATM   40  C21 UNL     1     -11.108  15.376  33.459  1.00  0.00    -0.013 C 
HETATM   41  C22 UNL     1     -10.291  16.556  33.922  1.00  0.00     0.009 C 
HETATM   42  C26 UNL     1     -11.445  15.652  31.988  1.00  0.00     0.014 C 
HETATM   43  C23 UNL     1      -9.006  16.554  33.163  1.00  0.00    -0.013 C 
HETATM   44  C25 UNL     1      -9.219  16.744  31.700  1.00  0.00     0.014 C 
ENDBRANCH  34  35
ENDBRANCH   5  34
ENDBRANCH   1   5
TORSDOF 12
ENDMDL
MODEL 2
REMARK VINA RESULT: -9.148283380      2.644      5.358
REMARK  12 active torsions:
REMARK  status: ('A' for Active; 'I' for Inactive)
REMARK    1  A    between atoms: O1_2  and  C2_3 
REMARK    2  A    between atoms: C4_7  and  C5_8 
REMARK    3  A    between atoms: C6_9  and  C7_10 
REMARK       I    between atoms: C7_10  and  N2_12 
REMARK    4  A    between atoms: N3_15  and  C10_16 
REMARK    5  A    between atoms: C10_16  and  C11_17 
REMARK    6  A    between atoms: C11_17  and  C12_18 
REMARK    7  A    between atoms: C12_18  and  C13_19 
REMARK    8  A    between atoms: C13_19  and  N4_20 
REMARK       I    between atoms: N4_20  and  C14_22 
REMARK    9  A    between atoms: C14_22  and  C15_24 
REMARK   10  A    between atoms: C15_24  and  C16_25 
REMARK   11  A    between atoms: C15_24  and  N5_36 
REMARK   12  A    between atoms: C16_25  and  C17_26 
ROOT
HETATM    1  N5  UNL     1     -12.951  12.766  31.287  1.00  0.00    -0.315 N 
ATOM      2  H5  UNL     1     -12.152  12.207  30.986  1.00  0.00     0.172 HD
HETATM    3  C27 UNL     1     -13.908  12.172  32.139  1.00  0.00     0.178 C 
HETATM    4  N6  UNL     1     -14.703  11.690  32.837  1.00  0.00    -0.172 NA
ENDROOT
BRANCH   1   5
HETATM    5  C15 UNL     1     -13.056  14.140  30.818  1.00  0.00     0.184 C 
BRANCH   5   6
HETATM    6  C14 UNL     1     -13.751  14.083  29.459  1.00  0.00     0.241 C 
HETATM    7  N4  UNL     1     -12.925  14.011  28.322  1.00  0.00    -0.359 N 
ATOM      8  H4  UNL     1     -11.912  13.994  28.440  1.00  0.00     0.162 HD
HETATM    9  O3  UNL     1     -14.985  14.098  29.354  1.00  0.00    -0.271 OA
BRANCH   7  10
HETATM   10  C13 UNL     1     -13.476  13.961  27.008  1.00  0.00     0.122 C 
BRANCH  10  11
HETATM   11  C12 UNL     1     -12.429  13.754  25.970  1.00  0.00     0.021 C 
BRANCH  11  12
HETATM   12  C11 UNL     1     -11.686  15.063  25.657  1.00  0.00     0.032 C 
BRANCH  12  13
HETATM   13  C10 UNL     1     -10.209  14.792  25.553  1.00  0.00     0.272 C 
BRANCH  13  14
HETATM   14  N3  UNL     1      -9.610  14.839  26.845  1.00  0.00     0.091 N 
HETATM   15  C9  UNL     1      -9.916  16.047  27.574  1.00  0.00     0.292 C 
HETATM   16  C8  UNL     1      -9.086  17.209  27.214  1.00  0.00     0.156 C 
HETATM   17  N2  UNL     1      -7.862  16.969  26.526  1.00  0.00    -0.345 N 
HETATM   18  C7  UNL     1      -7.016  18.106  26.125  1.00  0.00     0.243 C 
HETATM   19  C29 UNL     1      -7.391  15.671  26.205  1.00  0.00     0.156 C 
HETATM   20  O2  UNL     1      -7.468  19.187  26.478  1.00  0.00    -0.268 OA
HETATM   21  C28 UNL     1      -8.203  14.615  26.892  1.00  0.00     0.292 C 
BRANCH  18  22
HETATM   22  C6  UNL     1      -5.836  17.847  25.415  1.00  0.00     0.075 C 
HETATM   23  C5  UNL     1      -5.541  17.742  24.172  1.00  0.00     0.020 C 
BRANCH  23  24
HETATM   24  C4  UNL     1      -6.291  17.857  22.974  1.00  0.00    -0.005 A 
HETATM   25  C3  UNL     1      -7.385  16.974  22.841  1.00  0.00     0.104 A 
HETATM   26  N1  UNL     1      -8.070  16.969  21.706  1.00  0.00    -0.331 N 
HETATM   27  C2  UNL     1      -7.811  17.742  20.652  1.00  0.00     0.222 A 
ATOM     28  H1  UNL     1      -8.857  16.324  21.633  1.00  0.00     0.168 HD
HETATM   29  N7  UNL     1      -6.777  18.589  20.753  1.00  0.00    -0.331 N 
HETATM   30  C30 UNL     1      -6.023  18.639  21.913  1.00  0.00     0.104 A 
ATOM     31  H7  UNL     1      -6.544  19.201  19.971  1.00  0.00     0.168 HD
BRANCH  27  32
HETATM   32  O1  UNL     1      -8.596  17.649  19.525  1.00  0.00    -0.327 OA
HETATM   33  C1  UNL     1      -9.492  16.571  19.383  1.00  0.00     0.213 C 
ENDBRANCH  27  32
ENDBRANCH  23  24
ENDBRANCH  18  22
ENDBRANCH  13  14
ENDBRANCH  12  13
ENDBRANCH  11  12
ENDBRANCH  10  11
ENDBRANCH   7  10
ENDBRANCH   5   6
BRANCH   5  34
HETATM   34  C16 UNL     1     -11.771  14.825  30.580  1.00  0.00     0.045 C 
BRANCH  34  35
HETATM   35  C17 UNL     1     -10.923  15.202  31.734  1.00  0.00    -0.037 C 
HETATM   36  C18 UNL     1     -10.040  13.965  32.017  1.00  0.00     0.014 C 
HETATM   37  C19 UNL     1      -9.073  14.283  33.097  1.00  0.00    -0.013 C 
HETATM   38  C20 UNL     1      -9.901  14.564  34.353  1.00  0.00     0.009 C 
HETATM   39  C24 UNL     1      -8.190  15.455  32.821  1.00  0.00     0.009 C 
HETATM   40  C21 UNL     1     -10.718  15.788  34.125  1.00  0.00    -0.013 C 
HETATM   41  C22 UNL     1      -9.921  17.006  33.727  1.00  0.00     0.009 C 
HETATM   42  C26 UNL     1     -11.678  15.518  32.960  1.00  0.00     0.014 C 
HETATM   43  C23 UNL     1      -9.091  16.646  32.541  1.00  0.00    -0.013 C 
HETATM   44  C25 UNL     1      -9.928  16.293  31.359  1.00  0.00     0.014 C 
ENDBRANCH  34  35
ENDBRANCH   5  34
ENDBRANCH   1   5
TORSDOF 12
ENDMDL
MODEL 3
REMARK VINA RESULT: -9.124133162      2.893      7.592
REMARK  12 active torsions:
REMARK  status: ('A' for Active; 'I' for Inactive)
REMARK    1  A    between atoms: O1_2  and  C2_3 
REMARK    2  A    between atoms: C4_7  and  C5_8 
REMARK    3  A    between atoms: C6_9  and  C7_10 
REMARK       I    between atoms: C7_10  and  N2_12 
REMARK    4  A    between atoms: N3_15  and  C10_16 
REMARK    5  A    between atoms: C10_16  and  C11_17 
REMARK    6  A    between atoms: C11_17  and  C12_18 
REMARK    7  A    between atoms: C12_18  and  C13_19 
REMARK    8  A    between atoms: C13_19  and  N4_20 
REMARK       I    between atoms: N4_20  and  C14_22 
REMARK    9  A    between atoms: C14_22  and  C15_24 
REMARK   10  A    between atoms: C15_24  and  C16_25 
REMARK   11  A    between atoms: C15_24  and  N5_36 
REMARK   12  A    between atoms: C16_25  and  C17_26 
ROOT
HETATM    1  N5  UNL     1     -12.001  14.607  25.787  1.00  0.00    -0.315 N 
ATOM      2  H5  UNL     1     -12.532  15.434  26.064  1.00  0.00     0.172 HD
HETATM    3  C27 UNL     1     -12.607  13.338  25.920  1.00  0.00     0.178 C 
HETATM    4  N6  UNL     1     -13.096  12.290  26.032  1.00  0.00    -0.172 NA
ENDROOT
BRANCH   1   5
HETATM    5  C15 UNL     1     -10.652  14.787  25.270  1.00  0.00     0.184 C 
BRANCH   5   6
HETATM    6  C14 UNL     1      -9.731  14.876  26.485  1.00  0.00     0.241 C 
HETATM    7  N4  UNL     1      -9.690  16.106  27.168  1.00  0.00    -0.359 N 
ATOM      8  H4  UNL     1     -10.268  16.879  26.839  1.00  0.00     0.162 HD
HETATM    9  O3  UNL     1      -9.047  13.913  26.859  1.00  0.00    -0.271 OA
BRANCH   7  10
HETATM   10  C13 UNL     1      -8.856  16.292  28.308  1.00  0.00     0.122 C 
BRANCH  10  11
HETATM   11  C12 UNL     1      -7.485  16.736  27.934  1.00  0.00     0.021 C 
BRANCH  11  12
HETATM   12  C11 UNL     1      -7.475  17.415  26.554  1.00  0.00     0.032 C 
BRANCH  12  13
HETATM   13  C10 UNL     1      -6.227  17.024  25.809  1.00  0.00     0.272 C 
BRANCH  13  14
HETATM   14  N3  UNL     1      -5.172  17.934  26.108  1.00  0.00     0.091 N 
HETATM   15  C9  UNL     1      -5.428  19.278  25.648  1.00  0.00     0.292 C 
HETATM   16  C8  UNL     1      -5.137  19.506  24.223  1.00  0.00     0.156 C 
HETATM   17  N2  UNL     1      -4.297  18.570  23.554  1.00  0.00    -0.345 N 
HETATM   18  C7  UNL     1      -4.003  18.747  22.122  1.00  0.00     0.243 C 
HETATM   19  C29 UNL     1      -3.704  17.456  24.200  1.00  0.00     0.156 C 
HETATM   20  O2  UNL     1      -4.514  19.753  21.650  1.00  0.00    -0.268 OA
HETATM   21  C28 UNL     1      -3.868  17.542  25.688  1.00  0.00     0.292 C 
BRANCH  18  22
HETATM   22  C6  UNL     1      -3.206  17.790  21.477  1.00  0.00     0.075 C 
HETATM   23  C5  UNL     1      -3.152  17.325  20.284  1.00  0.00     0.020 C 
BRANCH  23  24
HETATM   24  C4  UNL     1      -3.874  17.593  19.094  1.00  0.00    -0.005 A 
HETATM   25  C3  UNL     1      -3.132  18.158  18.033  1.00  0.00     0.104 A 
HETATM   26  N1  UNL     1      -3.768  18.517  16.926  1.00  0.00    -0.331 N 
HETATM   27  C2  UNL     1      -5.078  18.390  16.721  1.00  0.00     0.222 A 
ATOM     28  H1  UNL     1      -3.211  18.922  16.174  1.00  0.00     0.168 HD
HETATM   29  N7  UNL     1      -5.805  17.857  17.713  1.00  0.00    -0.331 N 
HETATM   30  C30 UNL     1      -5.198  17.464  18.893  1.00  0.00     0.104 A 
ATOM     31  H7  UNL     1      -6.812  17.739  17.598  1.00  0.00     0.168 HD
BRANCH  27  32
HETATM   32  O1  UNL     1      -5.627  18.799  15.526  1.00  0.00    -0.327 OA
HETATM   33  C1  UNL     1      -5.508  20.143  15.125  1.00  0.00     0.213 C 
ENDBRANCH  27  32
ENDBRANCH  23  24
ENDBRANCH  18  22
ENDBRANCH  13  14
ENDBRANCH  12  13
ENDBRANCH  11  12
ENDBRANCH  10  11
ENDBRANCH   7  10
ENDBRANCH   5   6
BRANCH   5  34
HETATM   34  C16 UNL     1     -10.429  16.032  24.510  1.00  0.00     0.045 C 
BRANCH  34  35
HETATM   35  C17 UNL     1      -9.583  15.999  23.294  1.00  0.00    -0.037 C 
HETATM   36  C18 UNL     1      -8.906  17.386  23.226  1.00  0.00     0.014 C 
HETATM   37  C19 UNL     1      -7.948  17.416  22.092  1.00  0.00    -0.013 C 
HETATM   38  C20 UNL     1      -8.777  17.236  20.818  1.00  0.00     0.009 C 
HETATM   39  C24 UNL     1      -6.891  16.363  22.139  1.00  0.00     0.009 C 
HETATM   40  C21 UNL     1      -9.394  15.881  20.834  1.00  0.00    -0.013 C 
HETATM   41  C22 UNL     1      -8.410  14.749  20.994  1.00  0.00     0.009 C 
HETATM   42  C26 UNL     1     -10.334  15.791  22.043  1.00  0.00     0.014 C 
HETATM   43  C23 UNL     1      -7.593  15.017  22.213  1.00  0.00    -0.013 C 
HETATM   44  C25 UNL     1      -8.422  15.025  23.452  1.00  0.00     0.014 C 
ENDBRANCH  34  35
ENDBRANCH   5  34
ENDBRANCH   1   5
TORSDOF 12
ENDMDL
MODEL 4
REMARK VINA RESULT: -9.045724845      1.411      2.267
REMARK  12 active torsions:
REMARK  status: ('A' for Active; 'I' for Inactive)
REMARK    1  A    between atoms: O1_2  and  C2_3 
REMARK    2  A    between atoms: C4_7  and  C5_8 
REMARK    3  A    between atoms: C6_9  and  C7_10 
REMARK       I    between atoms: C7_10  and  N2_12 
REMARK    4  A    between atoms: N3_15  and  C10_16 
REMARK    5  A    between atoms: C10_16  and  C11_17 
REMARK    6  A    between atoms: C11_17  and  C12_18 
REMARK    7  A    between atoms: C12_18  and  C13_19 
REMARK    8  A    between atoms: C13_19  and  N4_20 
REMARK       I    between atoms: N4_20  and  C14_22 
REMARK    9  A    between atoms: C14_22  and  C15_24 
REMARK   10  A    between atoms: C15_24  and  C16_25 
REMARK   11  A    between atoms: C15_24  and  N5_36 
REMARK   12  A    between atoms: C16_25  and  C17_26 
ROOT
HETATM    1  N5  UNL     1     -12.596  15.488  28.355  1.00  0.00    -0.315 N 
ATOM      2  H5  UNL     1     -12.672  15.806  27.388  1.00  0.00     0.172 HD
HETATM    3  C27 UNL     1     -13.600  14.639  28.868  1.00  0.00     0.178 C 
HETATM    4  N6  UNL     1     -14.425  13.944  29.300  1.00  0.00    -0.172 NA
ENDROOT
BRANCH   1   5
HETATM    5  C15 UNL     1     -11.455  15.929  29.145  1.00  0.00     0.184 C 
BRANCH   5   6
HETATM    6  C14 UNL     1     -10.536  16.691  28.192  1.00  0.00     0.241 C 
HETATM    7  N4  UNL     1      -9.198  16.261  28.114  1.00  0.00    -0.359 N 
ATOM      8  H4  UNL     1      -8.894  15.469  28.680  1.00  0.00     0.162 HD
HETATM    9  O3  UNL     1     -10.942  17.645  27.515  1.00  0.00    -0.271 OA
BRANCH   7  10
HETATM   10  C13 UNL     1      -8.260  16.910  27.260  1.00  0.00     0.122 C 
BRANCH  10  11
HETATM   11  C12 UNL     1      -6.904  16.302  27.353  1.00  0.00     0.021 C 
BRANCH  11  12
HETATM   12  C11 UNL     1      -5.808  17.380  27.367  1.00  0.00     0.032 C 
BRANCH  12  13
HETATM   13  C10 UNL     1      -6.117  18.425  26.328  1.00  0.00     0.272 C 
BRANCH  13  14
HETATM   14  N3  UNL     1      -4.966  18.674  25.526  1.00  0.00     0.091 N 
HETATM   15  C9  UNL     1      -5.098  19.836  24.680  1.00  0.00     0.292 C 
HETATM   16  C8  UNL     1      -5.843  19.604  23.430  1.00  0.00     0.156 C 
HETATM   17  N2  UNL     1      -6.006  18.260  22.988  1.00  0.00    -0.345 N 
HETATM   18  C7  UNL     1      -6.767  17.984  21.757  1.00  0.00     0.243 C 
HETATM   19  C29 UNL     1      -5.458  17.144  23.670  1.00  0.00     0.156 C 
HETATM   20  O2  UNL     1      -7.166  19.000  21.205  1.00  0.00    -0.268 OA
HETATM   21  C28 UNL     1      -4.502  17.580  24.739  1.00  0.00     0.292 C 
BRANCH  18  22
HETATM   22  C6  UNL     1      -6.947  16.651  21.364  1.00  0.00     0.075 C 
HETATM   23  C5  UNL     1      -7.758  15.717  21.702  1.00  0.00     0.020 C 
BRANCH  23  24
HETATM   24  C4  UNL     1      -8.837  15.641  22.618  1.00  0.00    -0.005 A 
HETATM   25  C3  UNL     1      -8.561  15.007  23.849  1.00  0.00     0.104 A 
HETATM   26  N1  UNL     1      -9.552  14.822  24.711  1.00  0.00    -0.331 N 
HETATM   27  C2  UNL     1     -10.817  15.190  24.513  1.00  0.00     0.222 A 
ATOM     28  H1  UNL     1      -9.328  14.363  25.594  1.00  0.00     0.168 HD
HETATM   29  N7  UNL     1     -11.105  15.794  23.351  1.00  0.00    -0.331 N 
HETATM   30  C30 UNL     1     -10.114  16.013  22.411  1.00  0.00     0.104 A 
ATOM     31  H7  UNL     1     -12.061  16.094  23.159  1.00  0.00     0.168 HD
BRANCH  27  32
HETATM   32  O1  UNL     1     -11.761  14.945  25.485  1.00  0.00    -0.327 OA
HETATM   33  C1  UNL     1     -12.375  13.680  25.562  1.00  0.00     0.213 C 
ENDBRANCH  27  32
ENDBRANCH  23  24
ENDBRANCH  18  22
ENDBRANCH  13  14
ENDBRANCH  12  13
ENDBRANCH  11  12
ENDBRANCH  10  11
ENDBRANCH   7  10
ENDBRANCH   5   6
BRANCH   5  34
HETATM   34  C16 UNL     1     -10.628  14.849  29.716  1.00  0.00     0.045 C 
BRANCH  34  35
HETATM   35  C17 UNL     1     -10.398  14.806  31.179  1.00  0.00    -0.037 C 
HETATM   36  C18 UNL     1     -10.211  16.278  31.609  1.00  0.00     0.014 C 
HETATM   37  C19 UNL     1     -10.078  16.350  33.086  1.00  0.00    -0.013 C 
HETATM   38  C20 UNL     1      -8.799  15.591  33.446  1.00  0.00     0.009 C 
HETATM   39  C24 UNL     1     -11.223  15.765  33.846  1.00  0.00     0.009 C 
HETATM   40  C21 UNL     1      -8.978  14.156  33.093  1.00  0.00    -0.013 C 
HETATM   41  C22 UNL     1     -10.182  13.502  33.725  1.00  0.00     0.009 C 
HETATM   42  C26 UNL     1      -9.195  14.053  31.578  1.00  0.00     0.014 C 
HETATM   43  C23 UNL     1     -11.381  14.324  33.391  1.00  0.00    -0.013 C 
HETATM   44  C25 UNL     1     -11.648  14.355  31.925  1.00  0.00     0.014 C 
ENDBRANCH  34  35
ENDBRANCH   5  34
ENDBRANCH   1   5
TORSDOF 12
ENDMDL
MODEL 5
REMARK VINA RESULT: -8.993907621      2.339      8.460
REMARK  12 active torsions:
REMARK  status: ('A' for Active; 'I' for Inactive)
REMARK    1  A    between atoms: O1_2  and  C2_3 
REMARK    2  A    between atoms: C4_7  and  C5_8 
REMARK    3  A    between atoms: C6_9  and  C7_10 
REMARK       I    between atoms: C7_10  and  N2_12 
REMARK    4  A    between atoms: N3_15  and  C10_16 
REMARK    5  A    between atoms: C10_16  and  C11_17 
REMARK    6  A    between atoms: C11_17  and  C12_18 
REMARK    7  A    between atoms: C12_18  and  C13_19 
REMARK    8  A    between atoms: C13_19  and  N4_20 
REMARK       I    between atoms: N4_20  and  C14_22 
REMARK    9  A    between atoms: C14_22  and  C15_24 
REMARK   10  A    between atoms: C15_24  and  C16_25 
REMARK   11  A    between atoms: C15_24  and  N5_36 
REMARK   12  A    between atoms: C16_25  and  C17_26 
ROOT
HETATM    1  N5  UNL     1      -5.628  20.082  23.433  1.00  0.00    -0.315 N 
ATOM      2  H5  UNL     1      -6.364  20.756  23.643  1.00  0.00     0.172 HD
HETATM    3  C27 UNL     1      -4.340  20.566  23.112  1.00  0.00     0.178 C 
HETATM    4  N6  UNL     1      -3.279  20.956  22.843  1.00  0.00    -0.172 NA
ENDROOT
BRANCH   1   5
HETATM    5  C15 UNL     1      -5.948  18.663  23.476  1.00  0.00     0.184 C 
BRANCH   5   6
HETATM    6  C14 UNL     1      -5.036  18.044  24.533  1.00  0.00     0.241 C 
HETATM    7  N4  UNL     1      -5.205  18.483  25.859  1.00  0.00    -0.359 N 
ATOM      8  H4  UNL     1      -5.919  19.180  26.068  1.00  0.00     0.162 HD
HETATM    9  O3  UNL     1      -4.183  17.193  24.244  1.00  0.00    -0.271 OA
BRANCH   7  10
HETATM   10  C13 UNL     1      -4.398  17.972  26.917  1.00  0.00     0.122 C 
BRANCH  10  11
HETATM   11  C12 UNL     1      -5.173  17.096  27.840  1.00  0.00     0.021 C 
BRANCH  11  12
HETATM   12  C11 UNL     1      -6.622  17.587  27.990  1.00  0.00     0.032 C 
BRANCH  12  13
HETATM   13  C10 UNL     1      -7.545  16.403  28.105  1.00  0.00     0.272 C 
BRANCH  13  14
HETATM   14  N3  UNL     1      -7.852  15.894  26.811  1.00  0.00     0.091 N 
HETATM   15  C9  UNL     1      -8.769  16.727  26.070  1.00  0.00     0.292 C 
HETATM   16  C8  UNL     1     -10.188  16.537  26.413  1.00  0.00     0.156 C 
HETATM   17  N2  UNL     1     -10.556  15.344  27.099  1.00  0.00    -0.345 N 
HETATM   18  C7  UNL     1     -11.961  15.127  27.484  1.00  0.00     0.243 C 
HETATM   19  C29 UNL     1      -9.632  14.322  27.433  1.00  0.00     0.156 C 
HETATM   20  O2  UNL     1     -12.700  16.032  27.121  1.00  0.00    -0.268 OA
HETATM   21  C28 UNL     1      -8.311  14.545  26.760  1.00  0.00     0.292 C 
BRANCH  18  22
HETATM   22  C6  UNL     1     -12.291  13.964  28.193  1.00  0.00     0.075 C 
HETATM   23  C5  UNL     1     -12.361  13.660  29.437  1.00  0.00     0.020 C 
BRANCH  23  24
HETATM   24  C4  UNL     1     -12.143  14.384  30.636  1.00  0.00    -0.005 A 
HETATM   25  C3  UNL     1     -10.845  14.910  30.815  1.00  0.00     0.104 A 
HETATM   26  N1  UNL     1     -10.552  15.518  31.956  1.00  0.00    -0.331 N 
HETATM   27  C2  UNL     1     -11.394  15.680  32.975  1.00  0.00     0.222 A 
ATOM     28  H1  UNL     1      -9.608  15.891  32.062  1.00  0.00     0.168 HD
HETATM   29  N7  UNL     1     -12.633  15.189  32.830  1.00  0.00    -0.331 N 
HETATM   30  C30 UNL     1     -12.998  14.543  31.663  1.00  0.00     0.104 A 
ATOM     31  H7  UNL     1     -13.311  15.292  33.585  1.00  0.00     0.168 HD
BRANCH  27  32
HETATM   32  O1  UNL     1     -10.975  16.332  34.113  1.00  0.00    -0.327 OA
HETATM   33  C1  UNL     1      -9.604  16.587  34.309  1.00  0.00     0.213 C 
ENDBRANCH  27  32
ENDBRANCH  23  24
ENDBRANCH  18  22
ENDBRANCH  13  14
ENDBRANCH  12  13
ENDBRANCH  11  12
ENDBRANCH  10  11
ENDBRANCH   7  10
ENDBRANCH   5   6
BRANCH   5  34
HETATM   34  C16 UNL     1      -5.678  17.917  22.232  1.00  0.00     0.045 C 
BRANCH  34  35
HETATM   35  C17 UNL     1      -6.750  17.088  21.634  1.00  0.00    -0.037 C 
HETATM   36  C18 UNL     1      -7.144  16.071  22.729  1.00  0.00     0.014 C 
HETATM   37  C19 UNL     1      -8.294  15.258  22.260  1.00  0.00    -0.013 C 
HETATM   38  C20 UNL     1      -7.802  14.470  21.044  1.00  0.00     0.009 C 
HETATM   39  C24 UNL     1      -9.502  16.046  21.875  1.00  0.00     0.009 C 
HETATM   40  C21 UNL     1      -7.472  15.427  19.953  1.00  0.00    -0.013 C 
HETATM   41  C22 UNL     1      -8.601  16.351  19.570  1.00  0.00     0.009 C 
HETATM   42  C26 UNL     1      -6.335  16.336  20.436  1.00  0.00     0.014 C 
HETATM   43  C23 UNL     1      -9.076  17.038  20.806  1.00  0.00    -0.013 C 
HETATM   44  C25 UNL     1      -8.019  17.901  21.407  1.00  0.00     0.014 C 
ENDBRANCH  34  35
ENDBRANCH   5  34
ENDBRANCH   1   5
TORSDOF 12
ENDMDL
