MODEL 1
REMARK VINA RESULT: -8.235326968      0.000      0.000
REMARK  14 active torsions:
REMARK  status: ('A' for Active; 'I' for Inactive)
REMARK    1  A    between atoms: C2_2  and  O1_3 
REMARK    2  A    between atoms: O1_3  and  C3_4 
REMARK    3  A    between atoms: C3_4  and  C4_5 
REMARK    4  A    between atoms: C4_5  and  C5_6 
REMARK    5  A    between atoms: C5_6  and  N1_7 
REMARK    6  A    between atoms: C15_17  and  N2_18 
REMARK    7  A    between atoms: N2_18  and  C16_19 
REMARK    8  A    between atoms: C16_19  and  C17_20 
REMARK    9  A    between atoms: C18_25  and  N4_26 
REMARK   10  A    between atoms: N4_26  and  C19_28 
REMARK   11  A    between atoms: N5_31  and  C22_32 
REMARK   12  A    between atoms: C22_32  and  C23_33 
REMARK   13  A    between atoms: C23_33  and  O5_35 
REMARK   14  A    between atoms: O5_35  and  C24_36 
ROOT
HETATM    1  N1  UNL     1      -9.050  16.766  29.567  1.00  0.00    -0.331 N 
HETATM    2  C6  UNL     1      -9.400  16.273  30.758  1.00  0.00     0.048 A 
HETATM    3  C7  UNL     1      -9.047  16.586  32.064  1.00  0.00     0.038 A 
HETATM    4  C8  UNL     1      -9.542  15.929  33.164  1.00  0.00    -0.054 A 
HETATM    5  C9  UNL     1      -9.126  16.314  34.542  1.00  0.00     0.049 C 
HETATM    6  C10 UNL     1     -10.434  14.909  32.942  1.00  0.00    -0.055 A 
HETATM    7  C11 UNL     1     -11.007  14.151  34.069  1.00  0.00     0.049 C 
HETATM    8  C12 UNL     1     -10.814  14.564  31.653  1.00  0.00     0.022 A 
HETATM    9  C13 UNL     1     -10.306  15.236  30.566  1.00  0.00     0.010 A 
HETATM   10  C14 UNL     1     -10.482  15.131  29.199  1.00  0.00     0.080 A 
HETATM   11  C15 UNL     1     -11.260  14.271  28.412  1.00  0.00     0.208 A 
HETATM   12  N3  UNL     1     -11.203  14.435  27.041  1.00  0.00    -0.163 N 
ATOM     13  H3  UNL     1     -11.762  13.822  26.447  1.00  0.00     0.187 HD
HETATM   14  C18 UNL     1     -10.450  15.358  26.479  1.00  0.00     0.682 A 
HETATM   15  N6  UNL     1      -9.688  16.191  27.275  1.00  0.00    -0.175 N 
ATOM     16  H6  UNL     1      -9.107  16.900  26.828  1.00  0.00     0.186 HD
HETATM   17  C28 UNL     1      -9.686  16.102  28.596  1.00  0.00     0.140 A 
ENDROOT
BRANCH  14  18
HETATM   18  N4  UNL     1     -10.403  15.579  25.244  1.00  0.00    -0.221 N 
ATOM     19  H4  UNL     1     -11.035  16.347  25.019  1.00  0.00     0.178 HD
BRANCH  18  20
HETATM   20  C19 UNL     1      -9.798  15.148  24.092  1.00  0.00     0.102 C 
HETATM   21  C20 UNL     1      -8.357  14.787  24.063  1.00  0.00     0.056 C 
HETATM   22  C21 UNL     1      -7.417  15.906  24.459  1.00  0.00     0.275 C 
HETATM   23  N5  UNL     1      -7.634  17.085  23.649  1.00  0.00     0.098 N 
HETATM   24  C26 UNL     1      -9.050  17.418  23.585  1.00  0.00     0.275 C 
HETATM   25  C27 UNL     1      -9.905  16.315  23.061  1.00  0.00     0.056 C 
BRANCH  23  26
HETATM   26  C22 UNL     1      -7.094  16.975  22.324  1.00  0.00     0.382 C 
BRANCH  26  27
HETATM   27  C23 UNL     1      -7.188  18.159  21.486  1.00  0.00     0.287 C 
HETATM   28  O4  UNL     1      -6.535  19.190  21.769  1.00  0.00    -0.263 OA
BRANCH  27  29
HETATM   29  O5  UNL     1      -7.991  18.196  20.356  1.00  0.00    -0.321 OA
BRANCH  29  30
HETATM   30  C24 UNL     1      -8.114  17.121  19.442  1.00  0.00     0.174 C 
HETATM   31  C25 UNL     1      -9.568  16.643  19.583  1.00  0.00     0.034 C 
ENDBRANCH  29  30
ENDBRANCH  27  29
ENDBRANCH  26  27
ENDBRANCH  23  26
ENDBRANCH  18  20
ENDBRANCH  14  18
BRANCH  11  32
HETATM   32  N2  UNL     1     -11.955  13.398  28.852  1.00  0.00    -0.392 NA
BRANCH  32  33
HETATM   33  C16 UNL     1     -12.731  12.449  29.328  1.00  0.00     0.269 C 
BRANCH  33  34
HETATM   34  C17 UNL     1     -13.865  12.954  30.172  1.00  0.00     0.228 C 
HETATM   35  O2  UNL     1     -14.785  13.567  29.576  1.00  0.00    -0.643 OA
HETATM   36  O3  UNL     1     -13.949  12.783  31.526  1.00  0.00    -0.643 OA
ENDBRANCH  33  34
ENDBRANCH  32  33
ENDBRANCH  11  32
BRANCH   1  37
HETATM   37  C5  UNL     1      -8.092  17.844  29.366  1.00  0.00     0.133 C 
BRANCH  37  38
HETATM   38  C4  UNL     1      -6.742  17.243  28.971  1.00  0.00     0.046 C 
BRANCH  38  39
HETATM   39  C3  UNL     1      -6.360  17.655  27.592  1.00  0.00     0.169 C 
BRANCH  39  40
HETATM   40  O1  UNL     1      -7.435  18.366  27.010  1.00  0.00    -0.391 OA
BRANCH  40  41
HETATM   41  C2  UNL     1      -6.944  19.453  26.265  1.00  0.00     0.163 C 
HETATM   42  C1  UNL     1      -5.555  19.132  25.709  1.00  0.00     0.033 C 
ENDBRANCH  40  41
ENDBRANCH  39  40
ENDBRANCH  38  39
ENDBRANCH  37  38
ENDBRANCH   1  37
TORSDOF 14
ENDMDL
MODEL 2
REMARK VINA RESULT: -8.172709765      0.997      1.488
REMARK  14 active torsions:
REMARK  status: ('A' for Active; 'I' for Inactive)
REMARK    1  A    between atoms: C2_2  and  O1_3 
REMARK    2  A    between atoms: O1_3  and  C3_4 
REMARK    3  A    between atoms: C3_4  and  C4_5 
REMARK    4  A    between atoms: C4_5  and  C5_6 
REMARK    5  A    between atoms: C5_6  and  N1_7 
REMARK    6  A    between atoms: C15_17  and  N2_18 
REMARK    7  A    between atoms: N2_18  and  C16_19 
REMARK    8  A    between atoms: C16_19  and  C17_20 
REMARK    9  A    between atoms: C18_25  and  N4_26 
REMARK   10  A    between atoms: N4_26  and  C19_28 
REMARK   11  A    between atoms: N5_31  and  C22_32 
REMARK   12  A    between atoms: C22_32  and  C23_33 
REMARK   13  A    between atoms: C23_33  and  O5_35 
REMARK   14  A    between atoms: O5_35  and  C24_36 
ROOT
HETATM    1  N1  UNL     1      -9.011  16.673  29.285  1.00  0.00    -0.331 N 
HETATM    2  C6  UNL     1      -9.424  16.232  30.475  1.00  0.00     0.048 A 
HETATM    3  C7  UNL     1      -9.114  16.578  31.784  1.00  0.00     0.038 A 
HETATM    4  C8  UNL     1      -9.675  15.974  32.883  1.00  0.00    -0.054 A 
HETATM    5  C9  UNL     1      -9.302  16.393  34.265  1.00  0.00     0.049 C 
HETATM    6  C10 UNL     1     -10.589  14.975  32.658  1.00  0.00    -0.055 A 
HETATM    7  C11 UNL     1     -11.231  14.274  33.784  1.00  0.00     0.049 C 
HETATM    8  C12 UNL     1     -10.927  14.598  31.366  1.00  0.00     0.022 A 
HETATM    9  C13 UNL     1     -10.354  15.217  30.280  1.00  0.00     0.010 A 
HETATM   10  C14 UNL     1     -10.478  15.071  28.910  1.00  0.00     0.080 A 
HETATM   11  C15 UNL     1     -11.250  14.209  28.120  1.00  0.00     0.208 A 
HETATM   12  N3  UNL     1     -11.133  14.325  26.749  1.00  0.00    -0.163 N 
ATOM     13  H3  UNL     1     -11.686  13.709  26.152  1.00  0.00     0.187 HD
HETATM   14  C18 UNL     1     -10.328  15.205  26.189  1.00  0.00     0.682 A 
HETATM   15  N6  UNL     1      -9.573  16.040  26.987  1.00  0.00    -0.175 N 
ATOM     16  H6  UNL     1      -8.952  16.716  26.543  1.00  0.00     0.186 HD
HETATM   17  C28 UNL     1      -9.627  15.996  28.310  1.00  0.00     0.140 A 
ENDROOT
BRANCH  14  18
HETATM   18  N4  UNL     1     -10.224  15.382  24.950  1.00  0.00    -0.221 N 
ATOM     19  H4  UNL     1      -9.802  14.554  24.530  1.00  0.00     0.178 HD
BRANCH  18  20
HETATM   20  C19 UNL     1     -10.479  16.300  23.965  1.00  0.00     0.102 C 
HETATM   21  C20 UNL     1     -10.408  15.932  22.527  1.00  0.00     0.056 C 
HETATM   22  C21 UNL     1      -9.060  15.416  22.072  1.00  0.00     0.275 C 
HETATM   23  N5  UNL     1      -8.006  16.358  22.380  1.00  0.00     0.098 N 
HETATM   24  C26 UNL     1      -8.098  16.808  23.762  1.00  0.00     0.275 C 
HETATM   25  C27 UNL     1      -9.409  17.426  24.108  1.00  0.00     0.056 C 
BRANCH  23  26
HETATM   26  C22 UNL     1      -7.976  17.489  21.496  1.00  0.00     0.382 C 
BRANCH  26  27
HETATM   27  C23 UNL     1      -8.179  17.211  20.083  1.00  0.00     0.287 C 
HETATM   28  O4  UNL     1      -9.202  17.632  19.494  1.00  0.00    -0.263 OA
BRANCH  27  29
HETATM   29  O5  UNL     1      -7.264  16.480  19.340  1.00  0.00    -0.321 OA
BRANCH  29  30
HETATM   30  C24 UNL     1      -5.871  16.473  19.596  1.00  0.00     0.174 C 
HETATM   31  C25 UNL     1      -5.214  16.353  18.212  1.00  0.00     0.034 C 
ENDBRANCH  29  30
ENDBRANCH  27  29
ENDBRANCH  26  27
ENDBRANCH  23  26
ENDBRANCH  18  20
ENDBRANCH  14  18
BRANCH  11  32
HETATM   32  N2  UNL     1     -11.990  13.373  28.559  1.00  0.00    -0.392 NA
BRANCH  32  33
HETATM   33  C16 UNL     1     -12.814  12.468  29.041  1.00  0.00     0.269 C 
BRANCH  33  34
HETATM   34  C17 UNL     1     -13.969  13.043  29.809  1.00  0.00     0.228 C 
HETATM   35  O2  UNL     1     -14.670  12.234  30.466  1.00  0.00    -0.643 OA
HETATM   36  O3  UNL     1     -14.289  14.372  29.833  1.00  0.00    -0.643 OA
ENDBRANCH  33  34
ENDBRANCH  32  33
ENDBRANCH  11  32
BRANCH   1  37
HETATM   37  C5  UNL     1      -8.011  17.714  29.088  1.00  0.00     0.133 C 
BRANCH  37  38
HETATM   38  C4  UNL     1      -6.707  17.069  28.617  1.00  0.00     0.046 C 
BRANCH  38  39
HETATM   39  C3  UNL     1      -6.356  17.522  27.242  1.00  0.00     0.169 C 
BRANCH  39  40
HETATM   40  O1  UNL     1      -7.340  18.433  26.793  1.00  0.00    -0.391 OA
BRANCH  40  41
HETATM   41  C2  UNL     1      -6.732  19.482  26.081  1.00  0.00     0.163 C 
HETATM   42  C1  UNL     1      -5.415  19.011  25.462  1.00  0.00     0.033 C 
ENDBRANCH  40  41
ENDBRANCH  39  40
ENDBRANCH  38  39
ENDBRANCH  37  38
ENDBRANCH   1  37
TORSDOF 14
ENDMDL
MODEL 3
REMARK VINA RESULT: -8.170876151      2.245      9.812
REMARK  14 active torsions:
REMARK  status: ('A' for Active; 'I' for Inactive)
REMARK    1  A    between atoms: C2_2  and  O1_3 
REMARK    2  A    between atoms: O1_3  and  C3_4 
REMARK    3  A    between atoms: C3_4  and  C4_5 
REMARK    4  A    between atoms: C4_5  and  C5_6 
REMARK    5  A    between atoms: C5_6  and  N1_7 
REMARK    6  A    between atoms: C15_17  and  N2_18 
REMARK    7  A    between atoms: N2_18  and  C16_19 
REMARK    8  A    between atoms: C16_19  and  C17_20 
REMARK    9  A    between atoms: C18_25  and  N4_26 
REMARK   10  A    between atoms: N4_26  and  C19_28 
REMARK   11  A    between atoms: N5_31  and  C22_32 
REMARK   12  A    between atoms: C22_32  and  C23_33 
REMARK   13  A    between atoms: C23_33  and  O5_35 
REMARK   14  A    between atoms: O5_35  and  C24_36 
ROOT
HETATM    1  N1  UNL     1     -10.814  15.798  26.177  1.00  0.00    -0.331 N 
HETATM    2  C6  UNL     1     -10.242  16.096  25.007  1.00  0.00     0.048 A 
HETATM    3  C7  UNL     1     -10.589  15.857  23.684  1.00  0.00     0.038 A 
HETATM    4  C8  UNL     1      -9.831  16.263  22.614  1.00  0.00    -0.054 A 
HETATM    5  C9  UNL     1     -10.259  15.978  21.214  1.00  0.00     0.049 C 
HETATM    6  C10 UNL     1      -8.668  16.942  22.884  1.00  0.00    -0.055 A 
HETATM    7  C11 UNL     1      -7.796  17.406  21.791  1.00  0.00     0.049 C 
HETATM    8  C12 UNL     1      -8.284  17.201  24.192  1.00  0.00     0.022 A 
HETATM    9  C13 UNL     1      -9.059  16.786  25.248  1.00  0.00     0.010 A 
HETATM   10  C14 UNL     1      -8.950  16.887  26.623  1.00  0.00     0.080 A 
HETATM   11  C15 UNL     1      -7.977  17.461  27.451  1.00  0.00     0.208 A 
HETATM   12  N3  UNL     1      -8.175  17.384  28.816  1.00  0.00    -0.163 N 
ATOM     13  H3  UNL     1      -7.481  17.796  29.441  1.00  0.00     0.187 HD
HETATM   14  C18 UNL     1      -9.232  16.794  29.336  1.00  0.00     0.682 A 
HETATM   15  N6  UNL     1     -10.175  16.231  28.500  1.00  0.00    -0.175 N 
ATOM     16  H6  UNL     1     -10.988  15.774  28.913  1.00  0.00     0.186 HD
HETATM   17  C28 UNL     1     -10.062  16.262  27.181  1.00  0.00     0.140 A 
ENDROOT
BRANCH  14  18
HETATM   18  N4  UNL     1      -9.482  16.741  30.566  1.00  0.00    -0.221 N 
ATOM     19  H4  UNL     1     -10.103  17.512  30.812  1.00  0.00     0.178 HD
BRANCH  18  20
HETATM   20  C19 UNL     1      -9.211  16.010  31.693  1.00  0.00     0.102 C 
HETATM   21  C20 UNL     1      -9.199  14.525  31.667  1.00  0.00     0.056 C 
HETATM   22  C21 UNL     1     -10.505  13.890  31.241  1.00  0.00     0.275 C 
HETATM   23  N5  UNL     1     -11.605  14.348  32.062  1.00  0.00     0.098 N 
HETATM   24  C26 UNL     1     -11.595  15.799  32.181  1.00  0.00     0.275 C 
HETATM   25  C27 UNL     1     -10.325  16.350  32.731  1.00  0.00     0.056 C 
BRANCH  23  26
HETATM   26  C22 UNL     1     -11.630  13.748  33.367  1.00  0.00     0.382 C 
BRANCH  26  27
HETATM   27  C23 UNL     1     -12.922  13.271  33.834  1.00  0.00     0.287 C 
HETATM   28  O4  UNL     1     -13.923  13.309  33.082  1.00  0.00    -0.263 OA
BRANCH  27  29
HETATM   29  O5  UNL     1     -13.097  12.762  35.112  1.00  0.00    -0.321 OA
BRANCH  29  30
HETATM   30  C24 UNL     1     -12.059  12.671  36.071  1.00  0.00     0.174 C 
HETATM   31  C25 UNL     1     -11.681  11.182  36.108  1.00  0.00     0.034 C 
ENDBRANCH  29  30
ENDBRANCH  27  29
ENDBRANCH  26  27
ENDBRANCH  23  26
ENDBRANCH  18  20
ENDBRANCH  14  18
BRANCH  11  32
HETATM   32  N2  UNL     1      -6.982  17.999  27.051  1.00  0.00    -0.392 NA
BRANCH  32  33
HETATM   33  C16 UNL     1      -5.887  18.573  26.604  1.00  0.00     0.269 C 
BRANCH  33  34
HETATM   34  C17 UNL     1      -4.620  17.952  27.117  1.00  0.00     0.228 C 
HETATM   35  O2  UNL     1      -4.625  17.557  28.308  1.00  0.00    -0.643 OA
HETATM   36  O3  UNL     1      -3.485  17.795  26.369  1.00  0.00    -0.643 OA
ENDBRANCH  33  34
ENDBRANCH  32  33
ENDBRANCH  11  32
BRANCH   1  37
HETATM   37  C5  UNL     1     -12.055  15.049  26.326  1.00  0.00     0.133 C 
BRANCH  37  38
HETATM   38  C4  UNL     1     -11.722  13.569  26.514  1.00  0.00     0.046 C 
BRANCH  38  39
HETATM   39  C3  UNL     1     -12.118  13.103  27.872  1.00  0.00     0.169 C 
BRANCH  39  40
HETATM   40  O1  UNL     1     -12.729  14.175  28.565  1.00  0.00    -0.391 OA
BRANCH  40  41
HETATM   41  C2  UNL     1     -13.792  13.695  29.349  1.00  0.00     0.163 C 
HETATM   42  C1  UNL     1     -13.575  12.219  29.693  1.00  0.00     0.033 C 
ENDBRANCH  40  41
ENDBRANCH  39  40
ENDBRANCH  38  39
ENDBRANCH  37  38
ENDBRANCH   1  37
TORSDOF 14
ENDMDL
MODEL 4
REMARK VINA RESULT: -8.161093733      2.358      3.205
REMARK  14 active torsions:
REMARK  status: ('A' for Active; 'I' for Inactive)
REMARK    1  A    between atoms: C2_2  and  O1_3 
REMARK    2  A    between atoms: O1_3  and  C3_4 
REMARK    3  A    between atoms: C3_4  and  C4_5 
REMARK    4  A    between atoms: C4_5  and  C5_6 
REMARK    5  A    between atoms: C5_6  and  N1_7 
REMARK    6  A    between atoms: C15_17  and  N2_18 
REMARK    7  A    between atoms: N2_18  and  C16_19 
REMARK    8  A    between atoms: C16_19  and  C17_20 
REMARK    9  A    between atoms: C18_25  and  N4_26 
REMARK   10  A    between atoms: N4_26  and  C19_28 
REMARK   11  A    between atoms: N5_31  and  C22_32 
REMARK   12  A    between atoms: C22_32  and  C23_33 
REMARK   13  A    between atoms: C23_33  and  O5_35 
REMARK   14  A    between atoms: O5_35  and  C24_36 
ROOT
HETATM    1  N1  UNL     1      -8.649  17.213  26.867  1.00  0.00    -0.331 N 
HETATM    2  C6  UNL     1      -9.104  16.860  28.072  1.00  0.00     0.048 A 
HETATM    3  C7  UNL     1      -8.676  17.114  29.368  1.00  0.00     0.038 A 
HETATM    4  C8  UNL     1      -9.313  16.636  30.487  1.00  0.00    -0.054 A 
HETATM    5  C9  UNL     1      -8.805  16.946  31.854  1.00  0.00     0.049 C 
HETATM    6  C10 UNL     1     -10.433  15.866  30.296  1.00  0.00    -0.055 A 
HETATM    7  C11 UNL     1     -11.171  15.310  31.445  1.00  0.00     0.049 C 
HETATM    8  C12 UNL     1     -10.895  15.587  29.017  1.00  0.00     0.022 A 
HETATM    9  C13 UNL     1     -10.242  16.077  27.911  1.00  0.00     0.010 A 
HETATM   10  C14 UNL     1     -10.447  15.978  26.547  1.00  0.00     0.080 A 
HETATM   11  C15 UNL     1     -11.420  15.317  25.786  1.00  0.00     0.208 A 
HETATM   12  N3  UNL     1     -11.332  15.419  24.411  1.00  0.00    -0.163 N 
ATOM     13  H3  UNL     1     -12.030  14.948  23.835  1.00  0.00     0.187 HD
HETATM   14  C18 UNL     1     -10.375  16.106  23.822  1.00  0.00     0.682 A 
HETATM   15  N6  UNL     1      -9.425  16.746  24.593  1.00  0.00    -0.175 N 
ATOM     16  H6  UNL     1      -8.687  17.272  24.126  1.00  0.00     0.186 HD
HETATM   17  C28 UNL     1      -9.437  16.699  25.916  1.00  0.00     0.140 A 
ENDROOT
BRANCH  14  18
HETATM   18  N4  UNL     1     -10.282  16.271  22.580  1.00  0.00    -0.221 N 
ATOM     19  H4  UNL     1     -10.619  17.203  22.342  1.00  0.00     0.178 HD
BRANCH  18  20
HETATM   20  C19 UNL     1      -9.885  15.634  21.434  1.00  0.00     0.102 C 
HETATM   21  C20 UNL     1      -8.688  14.754  21.412  1.00  0.00     0.056 C 
HETATM   22  C21 UNL     1      -7.395  15.435  21.805  1.00  0.00     0.275 C 
HETATM   23  N5  UNL     1      -7.147  16.602  20.987  1.00  0.00     0.098 N 
HETATM   24  C26 UNL     1      -8.331  17.447  20.914  1.00  0.00     0.275 C 
HETATM   25  C27 UNL     1      -9.540  16.747  20.395  1.00  0.00     0.056 C 
BRANCH  23  26
HETATM   26  C22 UNL     1      -6.688  16.285  19.664  1.00  0.00     0.382 C 
BRANCH  26  27
HETATM   27  C23 UNL     1      -5.275  16.502  19.401  1.00  0.00     0.287 C 
HETATM   28  O4  UNL     1      -4.724  17.576  19.735  1.00  0.00    -0.263 OA
BRANCH  27  29
HETATM   29  O5  UNL     1      -4.489  15.542  18.778  1.00  0.00    -0.321 OA
BRANCH  29  30
HETATM   30  C24 UNL     1      -3.968  15.681  17.469  1.00  0.00     0.174 C 
HETATM   31  C25 UNL     1      -2.634  14.917  17.489  1.00  0.00     0.034 C 
ENDBRANCH  29  30
ENDBRANCH  27  29
ENDBRANCH  26  27
ENDBRANCH  23  26
ENDBRANCH  18  20
ENDBRANCH  14  18
BRANCH  11  32
HETATM   32  N2  UNL     1     -12.308  14.659  26.252  1.00  0.00    -0.392 NA
BRANCH  32  33
HETATM   33  C16 UNL     1     -13.294  13.948  26.753  1.00  0.00     0.269 C 
BRANCH  33  34
HETATM   34  C17 UNL     1     -12.898  12.558  27.160  1.00  0.00     0.228 C 
HETATM   35  O2  UNL     1     -11.841  12.102  26.661  1.00  0.00    -0.643 OA
HETATM   36  O3  UNL     1     -13.612  11.781  28.030  1.00  0.00    -0.643 OA
ENDBRANCH  33  34
ENDBRANCH  32  33
ENDBRANCH  11  32
BRANCH   1  37
HETATM   37  C5  UNL     1      -7.452  18.010  26.634  1.00  0.00     0.133 C 
BRANCH  37  38
HETATM   38  C4  UNL     1      -6.251  17.074  26.496  1.00  0.00     0.046 C 
BRANCH  38  39
HETATM   39  C3  UNL     1      -5.764  17.038  25.088  1.00  0.00     0.169 C 
BRANCH  39  40
HETATM   40  O1  UNL     1      -6.519  17.954  24.318  1.00  0.00    -0.391 OA
BRANCH  40  41
HETATM   41  C2  UNL     1      -5.665  18.690  23.478  1.00  0.00     0.163 C 
HETATM   42  C1  UNL     1      -5.071  19.880  24.234  1.00  0.00     0.033 C 
ENDBRANCH  40  41
ENDBRANCH  39  40
ENDBRANCH  38  39
ENDBRANCH  37  38
ENDBRANCH   1  37
TORSDOF 14
ENDMDL
MODEL 5
REMARK VINA RESULT: -8.104215762      2.319      9.737
REMARK  14 active torsions:
REMARK  status: ('A' for Active; 'I' for Inactive)
REMARK    1  A    between atoms: C2_2  and  O1_3 
REMARK    2  A    between atoms: O1_3  and  C3_4 
REMARK    3  A    between atoms: C3_4  and  C4_5 
REMARK    4  A    between atoms: C4_5  and  C5_6 
REMARK    5  A    between atoms: C5_6  and  N1_7 
REMARK    6  A    between atoms: C15_17  and  N2_18 
REMARK    7  A    between atoms: N2_18  and  C16_19 
REMARK    8  A    between atoms: C16_19  and  C17_20 
REMARK    9  A    between atoms: C18_25  and  N4_26 
REMARK   10  A    between atoms: N4_26  and  C19_28 
REMARK   11  A    between atoms: N5_31  and  C22_32 
REMARK   12  A    between atoms: C22_32  and  C23_33 
REMARK   13  A    between atoms: C23_33  and  O5_35 
REMARK   14  A    between atoms: O5_35  and  C24_36 
ROOT
HETATM    1  N1  UNL     1     -10.982  15.737  26.551  1.00  0.00    -0.331 N 
HETATM    2  C6  UNL     1     -10.371  16.025  25.399  1.00  0.00     0.048 A 
HETATM    3  C7  UNL     1     -10.688  15.801  24.067  1.00  0.00     0.038 A 
HETATM    4  C8  UNL     1      -9.890  16.193  23.019  1.00  0.00    -0.054 A 
HETATM    5  C9  UNL     1     -10.288  15.925  21.607  1.00  0.00     0.049 C 
HETATM    6  C10 UNL     1      -8.719  16.839  23.324  1.00  0.00    -0.055 A 
HETATM    7  C11 UNL     1      -7.805  17.285  22.257  1.00  0.00     0.049 C 
HETATM    8  C12 UNL     1      -8.363  17.083  24.643  1.00  0.00     0.022 A 
HETATM    9  C13 UNL     1      -9.177  16.683  25.676  1.00  0.00     0.010 A 
HETATM   10  C14 UNL     1      -9.103  16.775  27.054  1.00  0.00     0.080 A 
HETATM   11  C15 UNL     1      -8.139  17.320  27.912  1.00  0.00     0.208 A 
HETATM   12  N3  UNL     1      -8.375  17.242  29.270  1.00  0.00    -0.163 N 
ATOM     13  H3  UNL     1      -7.688  17.632  29.915  1.00  0.00     0.187 HD
HETATM   14  C18 UNL     1      -9.461  16.677  29.758  1.00  0.00     0.682 A 
HETATM   15  N6  UNL     1     -10.396  16.143  28.894  1.00  0.00    -0.175 N 
ATOM     16  H6  UNL     1     -11.232  15.705  29.282  1.00  0.00     0.186 HD
HETATM   17  C28 UNL     1     -10.247  16.177  27.578  1.00  0.00     0.140 A 
ENDROOT
BRANCH  14  18
HETATM   18  N4  UNL     1      -9.746  16.626  30.980  1.00  0.00    -0.221 N 
ATOM     19  H4  UNL     1     -10.705  16.948  31.112  1.00  0.00     0.178 HD
BRANCH  18  20
HETATM   20  C19 UNL     1      -9.218  16.288  32.199  1.00  0.00     0.102 C 
HETATM   21  C20 UNL     1      -8.744  14.908  32.481  1.00  0.00     0.056 C 
HETATM   22  C21 UNL     1      -9.801  13.835  32.337  1.00  0.00     0.275 C 
HETATM   23  N5  UNL     1     -10.956  14.123  33.158  1.00  0.00     0.098 N 
HETATM   24  C26 UNL     1     -11.397  15.498  32.972  1.00  0.00     0.275 C 
HETATM   25  C27 UNL     1     -10.343  16.512  33.257  1.00  0.00     0.056 C 
BRANCH  23  26
HETATM   26  C22 UNL     1     -10.744  13.859  34.554  1.00  0.00     0.382 C 
BRANCH  26  27
HETATM   27  C23 UNL     1     -11.455  12.721  35.113  1.00  0.00     0.287 C 
HETATM   28  O4  UNL     1     -12.102  12.837  36.179  1.00  0.00    -0.263 OA
BRANCH  27  29
HETATM   29  O5  UNL     1     -11.447  11.477  34.497  1.00  0.00    -0.321 OA
BRANCH  29  30
HETATM   30  C24 UNL     1     -12.609  10.696  34.287  1.00  0.00     0.174 C 
HETATM   31  C25 UNL     1     -13.432  11.479  33.251  1.00  0.00     0.034 C 
ENDBRANCH  29  30
ENDBRANCH  27  29
ENDBRANCH  26  27
ENDBRANCH  23  26
ENDBRANCH  18  20
ENDBRANCH  14  18
BRANCH  11  32
HETATM   32  N2  UNL     1      -7.119  17.832  27.541  1.00  0.00    -0.392 NA
BRANCH  32  33
HETATM   33  C16 UNL     1      -6.005  18.388  27.119  1.00  0.00     0.269 C 
BRANCH  33  34
HETATM   34  C17 UNL     1      -4.846  17.439  27.029  1.00  0.00     0.228 C 
HETATM   35  O2  UNL     1      -5.085  16.295  26.571  1.00  0.00    -0.643 OA
HETATM   36  O3  UNL     1      -3.569  17.749  27.407  1.00  0.00    -0.643 OA
ENDBRANCH  33  34
ENDBRANCH  32  33
ENDBRANCH  11  32
BRANCH   1  37
HETATM   37  C5  UNL     1     -12.246  15.021  26.663  1.00  0.00     0.133 C 
BRANCH  37  38
HETATM   38  C4  UNL     1     -11.971  13.517  26.607  1.00  0.00     0.046 C 
BRANCH  38  39
HETATM   39  C3  UNL     1     -12.495  12.836  27.824  1.00  0.00     0.169 C 
BRANCH  39  40
HETATM   40  O1  UNL     1     -11.886  13.404  28.967  1.00  0.00    -0.391 OA
BRANCH  40  41
HETATM   41  C2  UNL     1     -12.794  13.407  30.041  1.00  0.00     0.163 C 
HETATM   42  C1  UNL     1     -14.148  13.960  29.591  1.00  0.00     0.033 C 
ENDBRANCH  40  41
ENDBRANCH  39  40
ENDBRANCH  38  39
ENDBRANCH  37  38
ENDBRANCH   1  37
TORSDOF 14
ENDMDL
