MODEL 1
REMARK VINA RESULT: -7.747452273      0.000      0.000
REMARK  16 active torsions:
REMARK  status: ('A' for Active; 'I' for Inactive)
REMARK    1  A    between atoms: C2_2  and  C3_3 
REMARK    2  A    between atoms: C3_3  and  C4_4 
REMARK    3  A    between atoms: N1_6  and  C6_7 
REMARK    4  A    between atoms: C8_9  and  C9_10 
REMARK       I    between atoms: C9_10  and  N2_12 
REMARK    5  A    between atoms: N2_12  and  C10_14 
REMARK    6  A    between atoms: C10_14  and  C11_15 
REMARK    7  A    between atoms: C10_14  and  C17_23 
REMARK    8  A    between atoms: C11_15  and  C12_16 
REMARK    9  A    between atoms: C12_16  and  O3_18 
REMARK   10  A    between atoms: O3_18  and  C13_19 
REMARK   11  A    between atoms: C17_23  and  O5_25 
REMARK   12  A    between atoms: O5_25  and  C18_26 
REMARK   13  A    between atoms: C18_26  and  C19_27 
REMARK   14  A    between atoms: C19_27  and  C20_28 
REMARK   15  A    between atoms: C24_35  and  C25_36 
REMARK       I    between atoms: C25_36  and  N4_38 
REMARK   16  A    between atoms: N4_38  and  C26_40 
ROOT
HETATM    1  C9  UNL     1      -8.681  16.766  26.042  1.00  0.00     0.269 C 
HETATM    2  O1  UNL     1      -7.593  16.096  25.990  1.00  0.00    -0.269 OA
HETATM    3  N2  UNL     1      -9.347  16.793  27.283  1.00  0.00    -0.344 N 
ATOM      4  H2  UNL     1     -10.216  17.318  27.379  1.00  0.00     0.163 HD
ENDROOT
BRANCH   1   5
HETATM    5  C8  UNL     1      -9.134  17.449  24.803  1.00  0.00     0.379 C 
HETATM    6  N1  UNL     1     -10.003  16.648  24.030  1.00  0.00    -0.359 N 
HETATM    7  C5  UNL     1      -9.387  15.563  23.306  1.00  0.00     0.131 C 
HETATM    8  C4  UNL     1      -8.575  16.174  22.175  1.00  0.00     0.044 C 
HETATM    9  C24 UNL     1      -8.181  17.546  22.581  1.00  0.00     0.285 C 
HETATM   10  N3  UNL     1      -7.889  17.583  23.999  1.00  0.00    -0.032 N 
ATOM     11  H32 UNL     1      -7.364  18.419  24.254  1.00  0.00     0.281 HD
ATOM     12  H31 UNL     1      -7.196  16.880  24.258  1.00  0.00     0.281 HD
BRANCH   6  13
HETATM   13  C6  UNL     1     -11.294  16.348  24.488  1.00  0.00     0.056 C 
HETATM   14  C7  UNL     1     -11.795  14.963  24.327  1.00  0.00     0.054 C 
ENDBRANCH   6  13
BRANCH   8  15
HETATM   15  C3  UNL     1      -7.426  15.287  21.778  1.00  0.00     0.008 C 
BRANCH  15  16
HETATM   16  C2  UNL     1      -7.272  15.246  20.252  1.00  0.00    -0.004 C 
HETATM   17  C1  UNL     1      -8.589  15.683  19.606  1.00  0.00     0.005 C 
ENDBRANCH  15  16
ENDBRANCH   8  15
BRANCH   9  18
HETATM   18  C25 UNL     1      -7.036  18.126  21.860  1.00  0.00     0.249 C 
HETATM   19  O6  UNL     1      -7.263  18.778  20.796  1.00  0.00    -0.271 OA
HETATM   20  N4  UNL     1      -5.706  17.956  22.349  1.00  0.00    -0.351 N 
ATOM     21  H4  UNL     1      -5.567  17.427  23.210  1.00  0.00     0.163 HD
BRANCH  20  22
HETATM   22  C26 UNL     1      -4.553  18.499  21.682  1.00  0.00     0.022 C 
HETATM   23  C27 UNL     1      -4.507  19.990  21.934  1.00  0.00     0.037 C 
HETATM   24  C28 UNL     1      -3.274  17.938  22.314  1.00  0.00     0.037 C 
HETATM   25  C29 UNL     1      -4.489  18.197  20.223  1.00  0.00     0.037 C 
ENDBRANCH  20  22
ENDBRANCH   9  18
ENDBRANCH   1   5
BRANCH   3  26
HETATM   26  C10 UNL     1      -8.814  16.089  28.412  1.00  0.00     0.193 C 
BRANCH  26  27
HETATM   27  C11 UNL     1      -9.448  14.789  28.739  1.00  0.00     0.146 C 
BRANCH  27  28
HETATM   28  C12 UNL     1     -10.428  14.295  27.771  1.00  0.00     0.262 C 
HETATM   29  O2  UNL     1     -10.041  13.596  26.795  1.00  0.00    -0.265 OA
BRANCH  28  30
HETATM   30  O3  UNL     1     -11.783  14.534  27.837  1.00  0.00    -0.311 OA
BRANCH  30  31
HETATM   31  C13 UNL     1     -12.713  13.736  28.499  1.00  0.00     0.060 C 
HETATM   32  C14 UNL     1     -12.461  13.587  29.977  1.00  0.00     0.045 C 
HETATM   33  C15 UNL     1     -12.874  12.358  27.910  1.00  0.00     0.045 C 
HETATM   34  C16 UNL     1     -14.078  14.426  28.364  1.00  0.00     0.045 C 
ENDBRANCH  30  31
ENDBRANCH  28  30
ENDBRANCH  27  28
ENDBRANCH  26  27
BRANCH  26  35
HETATM   35  C17 UNL     1      -8.795  16.973  29.637  1.00  0.00     0.282 C 
HETATM   36  O4  UNL     1      -7.855  17.791  29.713  1.00  0.00    -0.263 OA
BRANCH  35  37
HETATM   37  O5  UNL     1      -9.731  16.908  30.625  1.00  0.00    -0.320 OA
BRANCH  37  38
HETATM   38  C18 UNL     1      -9.438  16.600  31.983  1.00  0.00     0.179 C 
BRANCH  38  39
HETATM   39  C19 UNL     1     -10.457  15.571  32.413  1.00  0.00     0.035 C 
BRANCH  39  40
HETATM   40  C20 UNL     1      -9.838  14.530  33.328  1.00  0.00    -0.050 C 
HETATM   41  C21 UNL     1      -8.773  13.767  32.589  1.00  0.00     0.014 C 
HETATM   42  C22 UNL     1      -9.263  15.236  34.534  1.00  0.00     0.014 C 
HETATM   43  C23 UNL     1     -10.884  13.560  33.809  1.00  0.00     0.014 C 
ENDBRANCH  39  40
ENDBRANCH  38  39
ENDBRANCH  37  38
ENDBRANCH  35  37
ENDBRANCH  26  35
ENDBRANCH   3  26
TORSDOF 16
ENDMDL
MODEL 2
REMARK VINA RESULT: -7.384754251      2.242      3.610
REMARK  16 active torsions:
REMARK  status: ('A' for Active; 'I' for Inactive)
REMARK    1  A    between atoms: C2_2  and  C3_3 
REMARK    2  A    between atoms: C3_3  and  C4_4 
REMARK    3  A    between atoms: N1_6  and  C6_7 
REMARK    4  A    between atoms: C8_9  and  C9_10 
REMARK       I    between atoms: C9_10  and  N2_12 
REMARK    5  A    between atoms: N2_12  and  C10_14 
REMARK    6  A    between atoms: C10_14  and  C11_15 
REMARK    7  A    between atoms: C10_14  and  C17_23 
REMARK    8  A    between atoms: C11_15  and  C12_16 
REMARK    9  A    between atoms: C12_16  and  O3_18 
REMARK   10  A    between atoms: O3_18  and  C13_19 
REMARK   11  A    between atoms: C17_23  and  O5_25 
REMARK   12  A    between atoms: O5_25  and  C18_26 
REMARK   13  A    between atoms: C18_26  and  C19_27 
REMARK   14  A    between atoms: C19_27  and  C20_28 
REMARK   15  A    between atoms: C24_35  and  C25_36 
REMARK       I    between atoms: C25_36  and  N4_38 
REMARK   16  A    between atoms: N4_38  and  C26_40 
ROOT
HETATM    1  C9  UNL     1      -7.962  15.039  27.709  1.00  0.00     0.269 C 
HETATM    2  O1  UNL     1      -8.102  13.778  27.558  1.00  0.00    -0.269 OA
HETATM    3  N2  UNL     1      -8.607  15.619  28.819  1.00  0.00    -0.344 N 
ATOM      4  H2  UNL     1      -8.521  16.621  28.987  1.00  0.00     0.163 HD
ENDROOT
BRANCH   1   5
HETATM    5  C8  UNL     1      -7.136  15.767  26.712  1.00  0.00     0.379 C 
HETATM    6  N1  UNL     1      -7.288  17.169  26.803  1.00  0.00    -0.359 N 
HETATM    7  C5  UNL     1      -8.526  17.704  26.292  1.00  0.00     0.131 C 
HETATM    8  C4  UNL     1      -8.486  17.578  24.777  1.00  0.00     0.044 C 
HETATM    9  C24 UNL     1      -7.591  16.445  24.434  1.00  0.00     0.285 C 
HETATM   10  N3  UNL     1      -7.736  15.381  25.406  1.00  0.00    -0.032 N 
ATOM     11  H32 UNL     1      -7.354  14.501  25.062  1.00  0.00     0.281 HD
ATOM     12  H31 UNL     1      -8.711  15.097  25.509  1.00  0.00     0.281 HD
BRANCH   6  13
HETATM   13  C6  UNL     1      -6.795  17.870  27.911  1.00  0.00     0.056 C 
HETATM   14  C7  UNL     1      -5.352  17.759  28.231  1.00  0.00     0.054 C 
ENDBRANCH   6  13
BRANCH   8  15
HETATM   15  C3  UNL     1      -9.869  17.478  24.193  1.00  0.00     0.008 C 
BRANCH  15  16
HETATM   16  C2  UNL     1     -10.626  16.283  24.788  1.00  0.00    -0.004 C 
HETATM   17  C1  UNL     1     -11.384  15.566  23.668  1.00  0.00     0.005 C 
ENDBRANCH  15  16
ENDBRANCH   8  15
BRANCH   9  18
HETATM   18  C25 UNL     1      -7.769  15.868  23.091  1.00  0.00     0.249 C 
HETATM   19  O6  UNL     1      -7.872  14.608  22.987  1.00  0.00    -0.271 OA
HETATM   20  N4  UNL     1      -7.824  16.709  21.939  1.00  0.00    -0.351 N 
ATOM     21  H4  UNL     1      -7.739  17.717  22.067  1.00  0.00     0.163 HD
BRANCH  20  22
HETATM   22  C26 UNL     1      -7.993  16.196  20.606  1.00  0.00     0.022 C 
HETATM   23  C27 UNL     1      -9.367  15.572  20.499  1.00  0.00     0.037 C 
HETATM   24  C28 UNL     1      -7.991  17.353  19.599  1.00  0.00     0.037 C 
HETATM   25  C29 UNL     1      -6.933  15.240  20.176  1.00  0.00     0.037 C 
ENDBRANCH  20  22
ENDBRANCH   9  18
ENDBRANCH   1   5
BRANCH   3  26
HETATM   26  C10 UNL     1      -9.383  14.812  29.713  1.00  0.00     0.193 C 
BRANCH  26  27
HETATM   27  C11 UNL     1     -10.856  14.887  29.560  1.00  0.00     0.146 C 
BRANCH  27  28
HETATM   28  C12 UNL     1     -11.343  15.230  28.223  1.00  0.00     0.262 C 
HETATM   29  O2  UNL     1     -11.459  16.442  27.896  1.00  0.00    -0.265 OA
BRANCH  28  30
HETATM   30  O3  UNL     1     -11.695  14.312  27.258  1.00  0.00    -0.311 OA
BRANCH  30  31
HETATM   31  C13 UNL     1     -12.806  13.473  27.309  1.00  0.00     0.060 C 
HETATM   32  C14 UNL     1     -14.028  14.100  27.929  1.00  0.00     0.045 C 
HETATM   33  C15 UNL     1     -12.555  12.156  27.996  1.00  0.00     0.045 C 
HETATM   34  C16 UNL     1     -13.185  13.140  25.858  1.00  0.00     0.045 C 
ENDBRANCH  30  31
ENDBRANCH  28  30
ENDBRANCH  27  28
ENDBRANCH  26  27
BRANCH  26  35
HETATM   35  C17 UNL     1      -9.004  15.084  31.151  1.00  0.00     0.282 C 
HETATM   36  O4  UNL     1      -8.923  16.286  31.481  1.00  0.00    -0.263 OA
BRANCH  35  37
HETATM   37  O5  UNL     1      -8.755  14.102  32.061  1.00  0.00    -0.320 OA
BRANCH  37  38
HETATM   38  C18 UNL     1      -9.356  14.040  33.350  1.00  0.00     0.179 C 
BRANCH  38  39
HETATM   39  C19 UNL     1     -10.784  13.598  33.130  1.00  0.00     0.035 C 
BRANCH  39  40
HETATM   40  C20 UNL     1     -11.765  14.577  33.749  1.00  0.00    -0.050 C 
HETATM   41  C21 UNL     1     -12.825  14.943  32.748  1.00  0.00     0.014 C 
HETATM   42  C22 UNL     1     -12.373  13.935  34.975  1.00  0.00     0.014 C 
HETATM   43  C23 UNL     1     -11.055  15.833  34.183  1.00  0.00     0.014 C 
ENDBRANCH  39  40
ENDBRANCH  38  39
ENDBRANCH  37  38
ENDBRANCH  35  37
ENDBRANCH  26  35
ENDBRANCH   3  26
TORSDOF 16
ENDMDL
MODEL 3
REMARK VINA RESULT: -7.338549825      2.458      3.981
REMARK  16 active torsions:
REMARK  status: ('A' for Active; 'I' for Inactive)
REMARK    1  A    between atoms: C2_2  and  C3_3 
REMARK    2  A    between atoms: C3_3  and  C4_4 
REMARK    3  A    between atoms: N1_6  and  C6_7 
REMARK    4  A    between atoms: C8_9  and  C9_10 
REMARK       I    between atoms: C9_10  and  N2_12 
REMARK    5  A    between atoms: N2_12  and  C10_14 
REMARK    6  A    between atoms: C10_14  and  C11_15 
REMARK    7  A    between atoms: C10_14  and  C17_23 
REMARK    8  A    between atoms: C11_15  and  C12_16 
REMARK    9  A    between atoms: C12_16  and  O3_18 
REMARK   10  A    between atoms: O3_18  and  C13_19 
REMARK   11  A    between atoms: C17_23  and  O5_25 
REMARK   12  A    between atoms: O5_25  and  C18_26 
REMARK   13  A    between atoms: C18_26  and  C19_27 
REMARK   14  A    between atoms: C19_27  and  C20_28 
REMARK   15  A    between atoms: C24_35  and  C25_36 
REMARK       I    between atoms: C25_36  and  N4_38 
REMARK   16  A    between atoms: N4_38  and  C26_40 
ROOT
HETATM    1  C9  UNL     1      -7.684  16.006  22.669  1.00  0.00     0.269 C 
HETATM    2  O1  UNL     1      -7.567  14.850  22.138  1.00  0.00    -0.269 OA
HETATM    3  N2  UNL     1      -8.180  16.049  23.986  1.00  0.00    -0.344 N 
ATOM      4  H2  UNL     1      -8.287  16.948  24.457  1.00  0.00     0.163 HD
ENDROOT
BRANCH   1   5
HETATM    5  C8  UNL     1      -7.286  17.184  21.856  1.00  0.00     0.379 C 
HETATM    6  N1  UNL     1      -7.784  17.124  20.536  1.00  0.00    -0.359 N 
HETATM    7  C5  UNL     1      -7.128  16.190  19.654  1.00  0.00     0.131 C 
HETATM    8  C4  UNL     1      -5.745  16.745  19.350  1.00  0.00     0.044 C 
HETATM    9  C24 UNL     1      -5.336  17.608  20.486  1.00  0.00     0.285 C 
HETATM   10  N3  UNL     1      -5.809  17.047  21.735  1.00  0.00    -0.032 N 
ATOM     11  H32 UNL     1      -5.326  17.452  22.536  1.00  0.00     0.281 HD
ATOM     12  H31 UNL     1      -5.511  16.078  21.848  1.00  0.00     0.281 HD
BRANCH   6  13
HETATM   13  C6  UNL     1      -9.157  17.256  20.284  1.00  0.00     0.056 C 
HETATM   14  C7  UNL     1      -9.831  16.206  19.485  1.00  0.00     0.054 C 
ENDBRANCH   6  13
BRANCH   8  15
HETATM   15  C3  UNL     1      -4.771  15.648  19.018  1.00  0.00     0.008 C 
BRANCH  15  16
HETATM   16  C2  UNL     1      -4.186  15.846  17.613  1.00  0.00    -0.004 C 
HETATM   17  C1  UNL     1      -2.849  15.108  17.521  1.00  0.00     0.005 C 
ENDBRANCH  15  16
ENDBRANCH   8  15
BRANCH   9  18
HETATM   18  C25 UNL     1      -3.891  17.862  20.613  1.00  0.00     0.249 C 
HETATM   19  O6  UNL     1      -3.406  18.876  20.026  1.00  0.00    -0.271 OA
HETATM   20  N4  UNL     1      -3.064  16.987  21.378  1.00  0.00    -0.351 N 
ATOM     21  H4  UNL     1      -3.495  16.184  21.836  1.00  0.00     0.163 HD
BRANCH  20  22
HETATM   22  C26 UNL     1      -1.647  17.188  21.531  1.00  0.00     0.022 C 
HETATM   23  C27 UNL     1      -1.423  18.330  22.497  1.00  0.00     0.037 C 
HETATM   24  C28 UNL     1      -1.017  15.959  22.198  1.00  0.00     0.037 C 
HETATM   25  C29 UNL     1      -0.917  17.414  20.251  1.00  0.00     0.037 C 
ENDBRANCH  20  22
ENDBRANCH   9  18
ENDBRANCH   1   5
BRANCH   3  26
HETATM   26  C10 UNL     1      -8.536  14.842  24.671  1.00  0.00     0.193 C 
BRANCH  26  27
HETATM   27  C11 UNL     1      -9.986  14.600  24.871  1.00  0.00     0.146 C 
BRANCH  27  28
HETATM   28  C12 UNL     1     -10.733  15.685  25.506  1.00  0.00     0.262 C 
HETATM   29  O2  UNL     1     -10.271  16.858  25.478  1.00  0.00    -0.265 OA
BRANCH  28  30
HETATM   30  O3  UNL     1     -11.940  15.532  26.152  1.00  0.00    -0.311 OA
BRANCH  30  31
HETATM   31  C13 UNL     1     -12.379  14.367  26.777  1.00  0.00     0.060 C 
HETATM   32  C14 UNL     1     -11.358  13.727  27.682  1.00  0.00     0.045 C 
HETATM   33  C15 UNL     1     -12.891  13.313  25.829  1.00  0.00     0.045 C 
HETATM   34  C16 UNL     1     -13.563  14.755  27.674  1.00  0.00     0.045 C 
ENDBRANCH  30  31
ENDBRANCH  28  30
ENDBRANCH  27  28
ENDBRANCH  26  27
BRANCH  26  35
HETATM   35  C17 UNL     1      -7.812  14.739  25.993  1.00  0.00     0.282 C 
HETATM   36  O4  UNL     1      -8.034  13.710  26.665  1.00  0.00    -0.263 OA
BRANCH  35  37
HETATM   37  O5  UNL     1      -6.960  15.694  26.460  1.00  0.00    -0.320 OA
BRANCH  37  38
HETATM   38  C18 UNL     1      -6.973  16.190  27.794  1.00  0.00     0.179 C 
BRANCH  38  39
HETATM   39  C19 UNL     1      -8.219  17.036  27.919  1.00  0.00     0.035 C 
BRANCH  39  40
HETATM   40  C20 UNL     1      -8.959  16.740  29.210  1.00  0.00    -0.050 C 
HETATM   41  C21 UNL     1      -8.848  15.277  29.540  1.00  0.00     0.014 C 
HETATM   42  C22 UNL     1      -8.366  17.591  30.308  1.00  0.00     0.014 C 
HETATM   43  C23 UNL     1     -10.416  17.097  29.077  1.00  0.00     0.014 C 
ENDBRANCH  39  40
ENDBRANCH  38  39
ENDBRANCH  37  38
ENDBRANCH  35  37
ENDBRANCH  26  35
ENDBRANCH   3  26
TORSDOF 16
ENDMDL
MODEL 4
REMARK VINA RESULT: -7.311876771      2.362      9.438
REMARK  16 active torsions:
REMARK  status: ('A' for Active; 'I' for Inactive)
REMARK    1  A    between atoms: C2_2  and  C3_3 
REMARK    2  A    between atoms: C3_3  and  C4_4 
REMARK    3  A    between atoms: N1_6  and  C6_7 
REMARK    4  A    between atoms: C8_9  and  C9_10 
REMARK       I    between atoms: C9_10  and  N2_12 
REMARK    5  A    between atoms: N2_12  and  C10_14 
REMARK    6  A    between atoms: C10_14  and  C11_15 
REMARK    7  A    between atoms: C10_14  and  C17_23 
REMARK    8  A    between atoms: C11_15  and  C12_16 
REMARK    9  A    between atoms: C12_16  and  O3_18 
REMARK   10  A    between atoms: O3_18  and  C13_19 
REMARK   11  A    between atoms: C17_23  and  O5_25 
REMARK   12  A    between atoms: O5_25  and  C18_26 
REMARK   13  A    between atoms: C18_26  and  C19_27 
REMARK   14  A    between atoms: C19_27  and  C20_28 
REMARK   15  A    between atoms: C24_35  and  C25_36 
REMARK       I    between atoms: C25_36  and  N4_38 
REMARK   16  A    between atoms: N4_38  and  C26_40 
ROOT
HETATM    1  C9  UNL     1      -9.093  14.386  25.880  1.00  0.00     0.269 C 
HETATM    2  O1  UNL     1      -7.934  13.863  26.015  1.00  0.00    -0.269 OA
HETATM    3  N2  UNL     1      -9.276  15.237  24.773  1.00  0.00    -0.344 N 
ATOM      4  H2  UNL     1     -10.185  15.675  24.617  1.00  0.00     0.163 HD
ENDROOT
BRANCH   1   5
HETATM    5  C8  UNL     1     -10.128  14.046  26.891  1.00  0.00     0.379 C 
HETATM    6  N1  UNL     1     -11.259  14.888  26.810  1.00  0.00    -0.359 N 
HETATM    7  C5  UNL     1     -11.087  16.229  27.315  1.00  0.00     0.131 C 
HETATM    8  C4  UNL     1     -10.980  16.135  28.829  1.00  0.00     0.044 C 
HETATM    9  C24 UNL     1     -10.453  14.790  29.170  1.00  0.00     0.285 C 
HETATM   10  N3  UNL     1      -9.475  14.373  28.188  1.00  0.00    -0.032 N 
ATOM     11  H32 UNL     1      -8.906  13.599  28.528  1.00  0.00     0.281 HD
ATOM     12  H31 UNL     1      -8.737  15.069  28.073  1.00  0.00     0.281 HD
BRANCH   6  13
HETATM   13  C6  UNL     1     -12.127  14.815  25.712  1.00  0.00     0.056 C 
HETATM   14  C7  UNL     1     -12.730  13.503  25.377  1.00  0.00     0.054 C 
ENDBRANCH   6  13
BRANCH   8  15
HETATM   15  C3  UNL     1     -10.186  17.279  29.398  1.00  0.00     0.008 C 
BRANCH  15  16
HETATM   16  C2  UNL     1      -8.753  17.274  28.851  1.00  0.00    -0.004 C 
HETATM   17  C1  UNL     1      -7.800  17.762  29.944  1.00  0.00     0.005 C 
ENDBRANCH  15  16
ENDBRANCH   8  15
BRANCH   9  18
HETATM   18  C25 UNL     1      -9.850  14.657  30.507  1.00  0.00     0.249 C 
HETATM   19  O6  UNL     1      -8.726  14.078  30.603  1.00  0.00    -0.271 OA
HETATM   20  N4  UNL     1     -10.517  15.166  31.661  1.00  0.00    -0.351 N 
ATOM     21  H4  UNL     1     -11.419  15.627  31.539  1.00  0.00     0.163 HD
BRANCH  20  22
HETATM   22  C26 UNL     1      -9.973  15.058  32.988  1.00  0.00     0.022 C 
HETATM   23  C27 UNL     1      -8.771  15.972  33.093  1.00  0.00     0.037 C 
HETATM   24  C28 UNL     1     -10.983  15.595  34.009  1.00  0.00     0.037 C 
HETATM   25  C29 UNL     1      -9.629  13.668  33.400  1.00  0.00     0.037 C 
ENDBRANCH  20  22
ENDBRANCH   9  18
ENDBRANCH   1   5
BRANCH   3  26
HETATM   26  C10 UNL     1      -8.199  15.493  23.864  1.00  0.00     0.193 C 
BRANCH  26  27
HETATM   27  C11 UNL     1      -7.520  16.805  23.999  1.00  0.00     0.146 C 
BRANCH  27  28
HETATM   28  C12 UNL     1      -7.485  17.371  25.347  1.00  0.00     0.262 C 
HETATM   29  O2  UNL     1      -8.443  18.087  25.747  1.00  0.00    -0.265 OA
BRANCH  28  30
HETATM   30  O3  UNL     1      -6.462  17.181  26.250  1.00  0.00    -0.311 OA
BRANCH  30  31
HETATM   31  C13 UNL     1      -5.246  17.862  26.247  1.00  0.00     0.060 C 
HETATM   32  C14 UNL     1      -5.326  19.270  25.717  1.00  0.00     0.045 C 
HETATM   33  C15 UNL     1      -4.140  17.147  25.516  1.00  0.00     0.045 C 
HETATM   34  C16 UNL     1      -4.793  17.980  27.710  1.00  0.00     0.045 C 
ENDBRANCH  30  31
ENDBRANCH  28  30
ENDBRANCH  27  28
ENDBRANCH  26  27
BRANCH  26  35
HETATM   35  C17 UNL     1      -8.641  15.290  22.433  1.00  0.00     0.282 C 
HETATM   36  O4  UNL     1      -9.789  15.690  22.149  1.00  0.00    -0.263 OA
BRANCH  35  37
HETATM   37  O5  UNL     1      -7.861  14.707  21.481  1.00  0.00    -0.320 OA
BRANCH  37  38
HETATM   38  C18 UNL     1      -7.731  15.192  20.150  1.00  0.00     0.179 C 
BRANCH  38  39
HETATM   39  C19 UNL     1      -6.319  15.716  20.026  1.00  0.00     0.035 C 
BRANCH  39  40
HETATM   40  C20 UNL     1      -6.306  17.212  19.775  1.00  0.00    -0.050 C 
HETATM   41  C21 UNL     1      -5.532  17.515  18.522  1.00  0.00     0.014 C 
HETATM   42  C22 UNL     1      -7.735  17.690  19.660  1.00  0.00     0.014 C 
HETATM   43  C23 UNL     1      -5.662  17.935  20.929  1.00  0.00     0.014 C 
ENDBRANCH  39  40
ENDBRANCH  38  39
ENDBRANCH  37  38
ENDBRANCH  35  37
ENDBRANCH  26  35
ENDBRANCH   3  26
TORSDOF 16
ENDMDL
MODEL 5
REMARK VINA RESULT: -7.252442270      1.851      4.805
REMARK  16 active torsions:
REMARK  status: ('A' for Active; 'I' for Inactive)
REMARK    1  A    between atoms: C2_2  and  C3_3 
REMARK    2  A    between atoms: C3_3  and  C4_4 
REMARK    3  A    between atoms: N1_6  and  C6_7 
REMARK    4  A    between atoms: C8_9  and  C9_10 
REMARK       I    between atoms: C9_10  and  N2_12 
REMARK    5  A    between atoms: N2_12  and  C10_14 
REMARK    6  A    between atoms: C10_14  and  C11_15 
REMARK    7  A    between atoms: C10_14  and  C17_23 
REMARK    8  A    between atoms: C11_15  and  C12_16 
REMARK    9  A    between atoms: C12_16  and  O3_18 
REMARK   10  A    between atoms: O3_18  and  C13_19 
REMARK   11  A    between atoms: C17_23  and  O5_25 
REMARK   12  A    between atoms: O5_25  and  C18_26 
REMARK   13  A    between atoms: C18_26  and  C19_27 
REMARK   14  A    between atoms: C19_27  and  C20_28 
REMARK   15  A    between atoms: C24_35  and  C25_36 
REMARK       I    between atoms: C25_36  and  N4_38 
REMARK   16  A    between atoms: N4_38  and  C26_40 
ROOT
HETATM    1  C9  UNL     1      -8.483  16.751  26.028  1.00  0.00     0.269 C 
HETATM    2  O1  UNL     1      -9.009  17.811  25.544  1.00  0.00    -0.269 OA
HETATM    3  N2  UNL     1      -9.212  16.087  27.035  1.00  0.00    -0.344 N 
ATOM      4  H2  UNL     1      -8.839  15.234  27.449  1.00  0.00     0.163 HD
ENDROOT
BRANCH   1   5
HETATM    5  C8  UNL     1      -7.168  16.321  25.487  1.00  0.00     0.379 C 
HETATM    6  N1  UNL     1      -6.088  17.015  26.076  1.00  0.00    -0.359 N 
HETATM    7  C5  UNL     1      -5.909  18.383  25.652  1.00  0.00     0.131 C 
HETATM    8  C4  UNL     1      -5.405  18.352  24.217  1.00  0.00     0.044 C 
HETATM    9  C24 UNL     1      -5.880  17.094  23.590  1.00  0.00     0.285 C 
HETATM   10  N3  UNL     1      -7.208  16.768  24.068  1.00  0.00    -0.032 N 
ATOM     11  H32 UNL     1      -7.665  16.080  23.470  1.00  0.00     0.281 HD
ATOM     12  H31 UNL     1      -7.856  17.544  23.935  1.00  0.00     0.281 HD
BRANCH   6  13
HETATM   13  C6  UNL     1      -5.748  16.800  27.418  1.00  0.00     0.056 C 
HETATM   14  C7  UNL     1      -5.040  17.879  28.148  1.00  0.00     0.054 C 
ENDBRANCH   6  13
BRANCH   8  15
HETATM   15  C3  UNL     1      -5.785  19.603  23.472  1.00  0.00     0.008 C 
BRANCH  15  16
HETATM   16  C2  UNL     1      -4.669  20.652  23.563  1.00  0.00    -0.004 C 
HETATM   17  C1  UNL     1      -3.496  20.208  22.686  1.00  0.00     0.005 C 
ENDBRANCH  15  16
ENDBRANCH   8  15
BRANCH   9  18
HETATM   18  C25 UNL     1      -5.905  17.079  22.117  1.00  0.00     0.249 C 
HETATM   19  O6  UNL     1      -4.925  17.589  21.495  1.00  0.00    -0.271 OA
HETATM   20  N4  UNL     1      -7.006  16.505  21.414  1.00  0.00    -0.351 N 
ATOM     21  H4  UNL     1      -7.773  16.103  21.953  1.00  0.00     0.163 HD
BRANCH  20  22
HETATM   22  C26 UNL     1      -7.080  16.468  19.978  1.00  0.00     0.022 C 
HETATM   23  C27 UNL     1      -8.356  15.758  19.579  1.00  0.00     0.037 C 
HETATM   24  C28 UNL     1      -7.217  17.892  19.427  1.00  0.00     0.037 C 
HETATM   25  C29 UNL     1      -5.894  15.855  19.317  1.00  0.00     0.037 C 
ENDBRANCH  20  22
ENDBRANCH   9  18
ENDBRANCH   1   5
BRANCH   3  26
HETATM   26  C10 UNL     1     -10.473  16.601  27.480  1.00  0.00     0.193 C 
BRANCH  26  27
HETATM   27  C11 UNL     1     -10.626  16.798  28.942  1.00  0.00     0.146 C 
BRANCH  27  28
HETATM   28  C12 UNL     1      -9.407  16.651  29.737  1.00  0.00     0.262 C 
HETATM   29  O2  UNL     1      -8.479  17.495  29.616  1.00  0.00    -0.265 OA
BRANCH  28  30
HETATM   30  O3  UNL     1      -9.179  15.635  30.640  1.00  0.00    -0.311 OA
BRANCH  30  31
HETATM   31  C13 UNL     1      -9.488  15.677  31.997  1.00  0.00     0.060 C 
HETATM   32  C14 UNL     1     -10.962  15.766  32.296  1.00  0.00     0.045 C 
HETATM   33  C15 UNL     1      -8.790  16.777  32.756  1.00  0.00     0.045 C 
HETATM   34  C16 UNL     1      -9.005  14.354  32.610  1.00  0.00     0.045 C 
ENDBRANCH  30  31
ENDBRANCH  28  30
ENDBRANCH  27  28
ENDBRANCH  26  27
BRANCH  26  35
HETATM   35  C17 UNL     1     -11.613  15.760  26.954  1.00  0.00     0.282 C 
HETATM   36  O4  UNL     1     -11.325  14.936  26.062  1.00  0.00    -0.263 OA
BRANCH  35  37
HETATM   37  O5  UNL     1     -12.895  15.867  27.403  1.00  0.00    -0.320 OA
BRANCH  37  38
HETATM   38  C18 UNL     1     -13.817  14.783  27.446  1.00  0.00     0.179 C 
BRANCH  38  39
HETATM   39  C19 UNL     1     -13.921  14.373  28.897  1.00  0.00     0.035 C 
BRANCH  39  40
HETATM   40  C20 UNL     1     -13.170  13.081  29.159  1.00  0.00    -0.050 C 
HETATM   41  C21 UNL     1     -11.786  13.385  29.660  1.00  0.00     0.014 C 
HETATM   42  C22 UNL     1     -13.949  12.272  30.171  1.00  0.00     0.014 C 
HETATM   43  C23 UNL     1     -13.061  12.268  27.896  1.00  0.00     0.014 C 
ENDBRANCH  39  40
ENDBRANCH  38  39
ENDBRANCH  37  38
ENDBRANCH  35  37
ENDBRANCH  26  35
ENDBRANCH   3  26
TORSDOF 16
ENDMDL
