MODEL 1
REMARK VINA RESULT: -8.692182184      0.000      0.000
REMARK  11 active torsions:
REMARK  status: ('A' for Active; 'I' for Inactive)
REMARK    1  A    between atoms: C5_7  and  N2_8 
REMARK       I    between atoms: N3_14  and  C11_15 
REMARK       I    between atoms: C11_15  and  N4_17 
REMARK    2  A    between atoms: N4_17  and  C12_18 
REMARK    3  A    between atoms: C12_18  and  C13_19 
REMARK    4  A    between atoms: C12_18  and  C19_31 
REMARK       I    between atoms: C13_19  and  N5_21 
REMARK    5  A    between atoms: N5_21  and  C14_23 
REMARK    6  A    between atoms: C14_23  and  C15_24 
REMARK    7  A    between atoms: C15_24  and  S1_25 
REMARK    8  A    between atoms: S1_25  and  S2_26 
REMARK    9  A    between atoms: S2_26  and  C16_27 
REMARK   10  A    between atoms: C16_27  and  C17_28 
REMARK   11  A    between atoms: C17_28  and  C18_29 
ROOT
HETATM    1  N2  UNL     1     -10.593  15.044  31.670  1.00  0.00    -0.374 N 
HETATM    2  C6  UNL     1      -9.604  14.360  30.817  1.00  0.00     0.124 C 
HETATM    3  C7  UNL     1      -9.362  15.268  29.618  1.00  0.00     0.031 C 
HETATM    4  C8  UNL     1     -10.684  15.956  29.506  1.00  0.00    -0.020 C 
HETATM    5  C9  UNL     1     -11.724  14.995  29.034  1.00  0.00     0.031 C 
HETATM    6  C10 UNL     1     -12.091  15.366  27.578  1.00  0.00     0.129 C 
HETATM    7  N3  UNL     1     -10.861  15.651  26.889  1.00  0.00    -0.322 N 
HETATM    8  C11 UNL     1     -10.378  14.721  25.895  1.00  0.00     0.391 C 
HETATM    9  O1  UNL     1     -11.148  13.720  25.742  1.00  0.00    -0.230 OA
HETATM   10  N4  UNL     1      -9.209  14.980  25.255  1.00  0.00    -0.381 NA
HETATM   11  C22 UNL     1     -10.160  16.859  27.256  1.00  0.00     0.129 C 
HETATM   12  C23 UNL     1     -10.615  17.212  28.680  1.00  0.00     0.031 C 
HETATM   13  C24 UNL     1     -10.929  16.250  30.991  1.00  0.00     0.133 C 
ENDROOT
BRANCH  10  14
HETATM   14  C12 UNL     1      -8.017  15.241  24.602  1.00  0.00     0.263 C 
BRANCH  14  15
HETATM   15  C13 UNL     1      -7.166  16.290  25.263  1.00  0.00     0.254 C 
HETATM   16  O2  UNL     1      -6.486  15.952  26.257  1.00  0.00    -0.270 OA
HETATM   17  N5  UNL     1      -7.112  17.623  24.808  1.00  0.00    -0.358 N 
ATOM     18  H5  UNL     1      -7.678  17.862  23.994  1.00  0.00     0.162 HD
BRANCH  17  19
HETATM   19  C14 UNL     1      -6.333  18.663  25.389  1.00  0.00     0.133 C 
BRANCH  19  20
HETATM   20  C15 UNL     1      -4.955  18.842  24.800  1.00  0.00     0.105 C 
BRANCH  20  21
HETATM   21  S1  UNL     1      -4.993  19.977  23.386  1.00  0.00    -0.096 SA
BRANCH  21  22
HETATM   22  S2  UNL     1      -5.083  18.957  21.533  1.00  0.00    -0.097 SA
BRANCH  22  23
HETATM   23  C16 UNL     1      -6.752  18.423  21.166  1.00  0.00     0.093 C 
BRANCH  23  24
HETATM   24  C17 UNL     1      -6.822  17.665  19.878  1.00  0.00     0.080 C 
BRANCH  24  25
HETATM   25  C18 UNL     1      -8.159  17.070  19.615  1.00  0.00     0.231 C 
HETATM   26  O3  UNL     1      -9.127  17.811  19.606  1.00  0.00    -0.307 OA
ENDBRANCH  24  25
ENDBRANCH  23  24
ENDBRANCH  22  23
ENDBRANCH  21  22
ENDBRANCH  20  21
ENDBRANCH  19  20
ENDBRANCH  17  19
ENDBRANCH  14  15
BRANCH  14  27
HETATM   27  C19 UNL     1      -8.162  15.610  23.130  1.00  0.00     0.023 C 
HETATM   28  C20 UNL     1      -7.784  14.457  22.222  1.00  0.00     0.013 C 
HETATM   29  C21 UNL     1      -9.612  15.965  22.825  1.00  0.00     0.013 C 
ENDBRANCH  14  27
ENDBRANCH  10  14
BRANCH   1  30
HETATM   30  C5  UNL     1     -11.009  14.448  32.895  1.00  0.00     0.121 A 
HETATM   31  C3  UNL     1     -10.364  14.667  34.085  1.00  0.00     0.039 A 
HETATM   32  N1  UNL     1     -10.846  14.073  35.237  1.00  0.00    -0.348 N 
HETATM   33  C4  UNL     1      -9.159  15.492  34.184  1.00  0.00     0.071 C 
HETATM   34  C2  UNL     1     -11.914  13.286  35.273  1.00  0.00     0.080 A 
ATOM     35  H1  UNL     1     -10.352  14.251  36.112  1.00  0.00     0.167 HD
HETATM   36  C1  UNL     1     -12.388  12.666  36.561  1.00  0.00     0.089 C 
HETATM   37  N6  UNL     1     -12.550  13.060  34.124  1.00  0.00    -0.311 N 
HETATM   38  C25 UNL     1     -12.127  13.613  32.971  1.00  0.00     0.275 A 
ATOM     39  H6  UNL     1     -13.373  12.457  34.118  1.00  0.00     0.170 HD
HETATM   40  O4  UNL     1     -12.749  13.384  31.895  1.00  0.00    -0.266 OA
ENDBRANCH   1  30
TORSDOF 11
ENDMDL
MODEL 2
REMARK VINA RESULT: -8.532416164      4.183     10.109
REMARK  11 active torsions:
REMARK  status: ('A' for Active; 'I' for Inactive)
REMARK    1  A    between atoms: C5_7  and  N2_8 
REMARK       I    between atoms: N3_14  and  C11_15 
REMARK       I    between atoms: C11_15  and  N4_17 
REMARK    2  A    between atoms: N4_17  and  C12_18 
REMARK    3  A    between atoms: C12_18  and  C13_19 
REMARK    4  A    between atoms: C12_18  and  C19_31 
REMARK       I    between atoms: C13_19  and  N5_21 
REMARK    5  A    between atoms: N5_21  and  C14_23 
REMARK    6  A    between atoms: C14_23  and  C15_24 
REMARK    7  A    between atoms: C15_24  and  S1_25 
REMARK    8  A    between atoms: S1_25  and  S2_26 
REMARK    9  A    between atoms: S2_26  and  C16_27 
REMARK   10  A    between atoms: C16_27  and  C17_28 
REMARK   11  A    between atoms: C17_28  and  C18_29 
ROOT
HETATM    1  N2  UNL     1      -7.186  17.126  24.917  1.00  0.00    -0.374 N 
HETATM    2  C6  UNL     1      -7.960  15.872  24.936  1.00  0.00     0.124 C 
HETATM    3  C7  UNL     1      -9.297  16.195  25.593  1.00  0.00     0.031 C 
HETATM    4  C8  UNL     1      -8.905  17.309  26.509  1.00  0.00    -0.020 C 
HETATM    5  C9  UNL     1      -8.065  16.784  27.626  1.00  0.00     0.031 C 
HETATM    6  C10 UNL     1      -8.911  16.827  28.920  1.00  0.00     0.129 C 
HETATM    7  N3  UNL     1     -10.226  16.351  28.585  1.00  0.00    -0.322 N 
HETATM    8  C11 UNL     1     -10.651  15.057  29.065  1.00  0.00     0.391 C 
HETATM    9  O1  UNL     1      -9.763  14.477  29.769  1.00  0.00    -0.230 OA
HETATM   10  N4  UNL     1     -11.885  14.597  28.737  1.00  0.00    -0.381 NA
HETATM   11  C22 UNL     1     -11.047  17.200  27.754  1.00  0.00     0.129 C 
HETATM   12  C23 UNL     1     -10.086  18.114  26.979  1.00  0.00     0.031 C 
HETATM   13  C24 UNL     1      -8.005  18.102  25.553  1.00  0.00     0.133 C 
ENDROOT
BRANCH  10  14
HETATM   14  C12 UNL     1     -13.143  14.127  28.403  1.00  0.00     0.263 C 
BRANCH  14  15
HETATM   15  C13 UNL     1     -13.867  13.441  29.527  1.00  0.00     0.254 C 
HETATM   16  O2  UNL     1     -15.114  13.535  29.567  1.00  0.00    -0.270 OA
HETATM   17  N5  UNL     1     -13.198  12.707  30.527  1.00  0.00    -0.358 N 
ATOM     18  H5  UNL     1     -12.181  12.651  30.463  1.00  0.00     0.162 HD
BRANCH  17  19
HETATM   19  C14 UNL     1     -13.819  12.039  31.619  1.00  0.00     0.133 C 
BRANCH  19  20
HETATM   20  C15 UNL     1     -13.464  12.571  32.987  1.00  0.00     0.105 C 
BRANCH  20  21
HETATM   21  S1  UNL     1     -12.347  13.994  32.863  1.00  0.00    -0.096 SA
BRANCH  21  22
HETATM   22  S2  UNL     1     -10.571  13.730  33.985  1.00  0.00    -0.097 SA
BRANCH  22  23
HETATM   23  C16 UNL     1      -9.131  14.241  33.052  1.00  0.00     0.093 C 
BRANCH  23  24
HETATM   24  C17 UNL     1      -9.038  15.731  32.947  1.00  0.00     0.080 C 
BRANCH  24  25
HETATM   25  C18 UNL     1      -9.466  16.437  34.183  1.00  0.00     0.231 C 
HETATM   26  O3  UNL     1     -10.501  17.081  34.148  1.00  0.00    -0.307 OA
ENDBRANCH  24  25
ENDBRANCH  23  24
ENDBRANCH  22  23
ENDBRANCH  21  22
ENDBRANCH  20  21
ENDBRANCH  19  20
ENDBRANCH  17  19
ENDBRANCH  14  15
BRANCH  14  27
HETATM   27  C19 UNL     1     -13.180  13.209  27.187  1.00  0.00     0.023 C 
HETATM   28  C20 UNL     1     -12.481  13.828  25.993  1.00  0.00     0.013 C 
HETATM   29  C21 UNL     1     -12.460  11.903  27.502  1.00  0.00     0.013 C 
ENDBRANCH  14  27
ENDBRANCH  10  14
BRANCH   1  30
HETATM   30  C5  UNL     1      -5.886  17.152  24.334  1.00  0.00     0.121 A 
HETATM   31  C3  UNL     1      -5.661  17.525  23.034  1.00  0.00     0.039 A 
HETATM   32  N1  UNL     1      -4.367  17.550  22.550  1.00  0.00    -0.348 N 
HETATM   33  C4  UNL     1      -6.748  17.878  22.120  1.00  0.00     0.071 C 
HETATM   34  C2  UNL     1      -3.300  17.229  23.271  1.00  0.00     0.080 A 
ATOM     35  H1  UNL     1      -4.222  17.832  21.580  1.00  0.00     0.167 HD
HETATM   36  C1  UNL     1      -1.914  17.273  22.684  1.00  0.00     0.089 C 
HETATM   37  N6  UNL     1      -3.502  16.860  24.536  1.00  0.00    -0.311 N 
HETATM   38  C25 UNL     1      -4.741  16.819  25.063  1.00  0.00     0.275 A 
ATOM     39  H6  UNL     1      -2.702  16.604  25.116  1.00  0.00     0.170 HD
HETATM   40  O4  UNL     1      -4.905  16.467  26.265  1.00  0.00    -0.266 OA
ENDBRANCH   1  30
TORSDOF 11
ENDMDL
MODEL 3
REMARK VINA RESULT: -8.495239502      3.921     11.168
REMARK  11 active torsions:
REMARK  status: ('A' for Active; 'I' for Inactive)
REMARK    1  A    between atoms: C5_7  and  N2_8 
REMARK       I    between atoms: N3_14  and  C11_15 
REMARK       I    between atoms: C11_15  and  N4_17 
REMARK    2  A    between atoms: N4_17  and  C12_18 
REMARK    3  A    between atoms: C12_18  and  C13_19 
REMARK    4  A    between atoms: C12_18  and  C19_31 
REMARK       I    between atoms: C13_19  and  N5_21 
REMARK    5  A    between atoms: N5_21  and  C14_23 
REMARK    6  A    between atoms: C14_23  and  C15_24 
REMARK    7  A    between atoms: C15_24  and  S1_25 
REMARK    8  A    between atoms: S1_25  and  S2_26 
REMARK    9  A    between atoms: S2_26  and  C16_27 
REMARK   10  A    between atoms: C16_27  and  C17_28 
REMARK   11  A    between atoms: C17_28  and  C18_29 
ROOT
HETATM    1  N2  UNL     1      -7.729  16.642  21.987  1.00  0.00    -0.374 N 
HETATM    2  C6  UNL     1      -7.612  15.465  22.866  1.00  0.00     0.124 C 
HETATM    3  C7  UNL     1      -8.557  15.702  24.038  1.00  0.00     0.031 C 
HETATM    4  C8  UNL     1      -8.544  17.194  24.121  1.00  0.00    -0.020 C 
HETATM    5  C9  UNL     1      -7.219  17.670  24.617  1.00  0.00     0.031 C 
HETATM    6  C10 UNL     1      -7.410  18.196  26.058  1.00  0.00     0.129 C 
HETATM    7  N3  UNL     1      -8.256  17.259  26.745  1.00  0.00    -0.322 N 
HETATM    8  C11 UNL     1      -7.689  16.414  27.770  1.00  0.00     0.391 C 
HETATM    9  O1  UNL     1      -6.447  16.626  27.950  1.00  0.00    -0.230 OA
HETATM   10  N4  UNL     1      -8.482  15.517  28.409  1.00  0.00    -0.381 NA
HETATM   11  C22 UNL     1      -9.643  17.200  26.344  1.00  0.00     0.129 C 
HETATM   12  C23 UNL     1      -9.705  17.739  24.907  1.00  0.00     0.031 C 
HETATM   13  C24 UNL     1      -8.652  17.519  22.626  1.00  0.00     0.133 C 
ENDROOT
BRANCH  10  14
HETATM   14  C12 UNL     1      -9.290  14.601  29.060  1.00  0.00     0.263 C 
BRANCH  14  15
HETATM   15  C13 UNL     1     -10.613  14.355  28.390  1.00  0.00     0.254 C 
HETATM   16  O2  UNL     1     -10.625  13.649  27.358  1.00  0.00    -0.270 OA
HETATM   17  N5  UNL     1     -11.823  14.889  28.876  1.00  0.00    -0.358 N 
ATOM     18  H5  UNL     1     -11.775  15.459  29.721  1.00  0.00     0.162 HD
BRANCH  17  19
HETATM   19  C14 UNL     1     -13.105  14.700  28.289  1.00  0.00     0.133 C 
BRANCH  19  20
HETATM   20  C15 UNL     1     -14.142  14.075  29.192  1.00  0.00     0.105 C 
BRANCH  20  21
HETATM   21  S1  UNL     1     -13.358  13.134  30.530  1.00  0.00    -0.096 SA
BRANCH  21  22
HETATM   22  S2  UNL     1     -13.169  14.263  32.311  1.00  0.00    -0.097 SA
BRANCH  22  23
HETATM   23  C16 UNL     1     -12.077  13.457  33.478  1.00  0.00     0.093 C 
BRANCH  23  24
HETATM   24  C17 UNL     1     -11.228  14.444  34.216  1.00  0.00     0.080 C 
BRANCH  24  25
HETATM   25  C18 UNL     1     -11.382  15.839  33.725  1.00  0.00     0.231 C 
HETATM   26  O3  UNL     1     -10.667  16.701  34.206  1.00  0.00    -0.307 OA
ENDBRANCH  24  25
ENDBRANCH  23  24
ENDBRANCH  22  23
ENDBRANCH  21  22
ENDBRANCH  20  21
ENDBRANCH  19  20
ENDBRANCH  17  19
ENDBRANCH  14  15
BRANCH  14  27
HETATM   27  C19 UNL     1      -9.555  14.913  30.528  1.00  0.00     0.023 C 
HETATM   28  C20 UNL     1      -8.755  14.013  31.448  1.00  0.00     0.013 C 
HETATM   29  C21 UNL     1      -9.145  16.348  30.836  1.00  0.00     0.013 C 
ENDBRANCH  14  27
ENDBRANCH  10  14
BRANCH   1  30
HETATM   30  C5  UNL     1      -6.977  16.705  20.779  1.00  0.00     0.121 A 
HETATM   31  C3  UNL     1      -7.464  16.262  19.576  1.00  0.00     0.039 A 
HETATM   32  N1  UNL     1      -6.683  16.383  18.442  1.00  0.00    -0.348 N 
HETATM   33  C4  UNL     1      -8.780  15.637  19.445  1.00  0.00     0.071 C 
HETATM   34  C2  UNL     1      -5.464  16.908  18.435  1.00  0.00     0.080 A 
ATOM     35  H1  UNL     1      -7.065  16.048  17.557  1.00  0.00     0.167 HD
HETATM   36  C1  UNL     1      -4.661  17.010  17.164  1.00  0.00     0.089 C 
HETATM   37  N6  UNL     1      -4.974  17.341  19.597  1.00  0.00    -0.311 N 
HETATM   38  C25 UNL     1      -5.691  17.251  20.734  1.00  0.00     0.275 A 
ATOM     39  H6  UNL     1      -4.039  17.748  19.625  1.00  0.00     0.170 HD
HETATM   40  O4  UNL     1      -5.204  17.670  21.822  1.00  0.00    -0.266 OA
ENDBRANCH   1  30
TORSDOF 11
ENDMDL
MODEL 4
REMARK VINA RESULT: -8.467302404      0.887      1.407
REMARK  11 active torsions:
REMARK  status: ('A' for Active; 'I' for Inactive)
REMARK    1  A    between atoms: C5_7  and  N2_8 
REMARK       I    between atoms: N3_14  and  C11_15 
REMARK       I    between atoms: C11_15  and  N4_17 
REMARK    2  A    between atoms: N4_17  and  C12_18 
REMARK    3  A    between atoms: C12_18  and  C13_19 
REMARK    4  A    between atoms: C12_18  and  C19_31 
REMARK       I    between atoms: C13_19  and  N5_21 
REMARK    5  A    between atoms: N5_21  and  C14_23 
REMARK    6  A    between atoms: C14_23  and  C15_24 
REMARK    7  A    between atoms: C15_24  and  S1_25 
REMARK    8  A    between atoms: S1_25  and  S2_26 
REMARK    9  A    between atoms: S2_26  and  C16_27 
REMARK   10  A    between atoms: C16_27  and  C17_28 
REMARK   11  A    between atoms: C17_28  and  C18_29 
ROOT
HETATM    1  N2  UNL     1     -10.537  15.074  31.467  1.00  0.00    -0.374 N 
HETATM    2  C6  UNL     1      -9.625  14.334  30.577  1.00  0.00     0.124 C 
HETATM    3  C7  UNL     1      -9.337  15.247  29.392  1.00  0.00     0.031 C 
HETATM    4  C8  UNL     1     -10.602  16.040  29.325  1.00  0.00    -0.020 C 
HETATM    5  C9  UNL     1     -11.726  15.176  28.858  1.00  0.00     0.031 C 
HETATM    6  C10 UNL     1     -12.092  15.608  27.419  1.00  0.00     0.129 C 
HETATM    7  N3  UNL     1     -10.859  15.810  26.707  1.00  0.00    -0.322 N 
HETATM    8  C11 UNL     1     -10.473  14.868  25.683  1.00  0.00     0.391 C 
HETATM    9  O1  UNL     1     -11.323  13.935  25.527  1.00  0.00    -0.230 OA
HETATM   10  N4  UNL     1      -9.301  15.048  25.021  1.00  0.00    -0.381 NA
HETATM   11  C22 UNL     1     -10.056  16.950  27.084  1.00  0.00     0.129 C 
HETATM   12  C23 UNL     1     -10.450  17.305  28.525  1.00  0.00     0.031 C 
HETATM   13  C24 UNL     1     -10.790  16.318  30.822  1.00  0.00     0.133 C 
ENDROOT
BRANCH  10  14
HETATM   14  C12 UNL     1      -8.107  15.229  24.346  1.00  0.00     0.263 C 
BRANCH  14  15
HETATM   15  C13 UNL     1      -7.189  16.243  24.972  1.00  0.00     0.254 C 
HETATM   16  O2  UNL     1      -6.606  15.930  26.033  1.00  0.00    -0.270 OA
HETATM   17  N5  UNL     1      -6.970  17.518  24.413  1.00  0.00    -0.358 N 
ATOM     18  H5  UNL     1      -7.462  17.738  23.547  1.00  0.00     0.162 HD
BRANCH  17  19
HETATM   19  C14 UNL     1      -6.122  18.523  24.955  1.00  0.00     0.133 C 
BRANCH  19  20
HETATM   20  C15 UNL     1      -4.747  18.608  24.337  1.00  0.00     0.105 C 
BRANCH  20  21
HETATM   21  S1  UNL     1      -4.762  19.653  22.855  1.00  0.00    -0.096 SA
BRANCH  21  22
HETATM   22  S2  UNL     1      -4.393  18.551  21.085  1.00  0.00    -0.097 SA
BRANCH  22  23
HETATM   23  C16 UNL     1      -5.733  17.418  20.733  1.00  0.00     0.093 C 
BRANCH  23  24
HETATM   24  C17 UNL     1      -7.015  18.141  20.463  1.00  0.00     0.080 C 
BRANCH  24  25
HETATM   25  C18 UNL     1      -7.952  17.378  19.596  1.00  0.00     0.231 C 
HETATM   26  O3  UNL     1      -9.131  17.687  19.611  1.00  0.00    -0.307 OA
ENDBRANCH  24  25
ENDBRANCH  23  24
ENDBRANCH  22  23
ENDBRANCH  21  22
ENDBRANCH  20  21
ENDBRANCH  19  20
ENDBRANCH  17  19
ENDBRANCH  14  15
BRANCH  14  27
HETATM   27  C19 UNL     1      -8.253  15.573  22.869  1.00  0.00     0.023 C 
HETATM   28  C20 UNL     1      -7.853  14.414  21.979  1.00  0.00     0.013 C 
HETATM   29  C21 UNL     1      -9.708  15.900  22.554  1.00  0.00     0.013 C 
ENDBRANCH  14  27
ENDBRANCH  10  14
BRANCH   1  30
HETATM   30  C5  UNL     1     -10.974  14.485  32.688  1.00  0.00     0.121 A 
HETATM   31  C3  UNL     1     -12.113  13.728  32.784  1.00  0.00     0.039 A 
HETATM   32  N1  UNL     1     -12.456  13.167  34.000  1.00  0.00    -0.348 N 
HETATM   33  C4  UNL     1     -13.006  13.508  31.645  1.00  0.00     0.071 C 
HETATM   34  C2  UNL     1     -11.742  13.314  35.109  1.00  0.00     0.080 A 
ATOM     35  H1  UNL     1     -13.307  12.607  34.048  1.00  0.00     0.167 HD
HETATM   36  C1  UNL     1     -12.170  12.679  36.407  1.00  0.00     0.089 C 
HETATM   37  N6  UNL     1     -10.633  14.050  35.035  1.00  0.00    -0.311 N 
HETATM   38  C25 UNL     1     -10.249  14.619  33.876  1.00  0.00     0.275 A 
ATOM     39  H6  UNL     1     -10.064  14.183  35.871  1.00  0.00     0.170 HD
HETATM   40  O4  UNL     1      -9.193  15.310  33.831  1.00  0.00    -0.266 OA
ENDBRANCH   1  30
TORSDOF 11
ENDMDL
MODEL 5
REMARK VINA RESULT: -8.449354305      3.866     11.098
REMARK  11 active torsions:
REMARK  status: ('A' for Active; 'I' for Inactive)
REMARK    1  A    between atoms: C5_7  and  N2_8 
REMARK       I    between atoms: N3_14  and  C11_15 
REMARK       I    between atoms: C11_15  and  N4_17 
REMARK    2  A    between atoms: N4_17  and  C12_18 
REMARK    3  A    between atoms: C12_18  and  C13_19 
REMARK    4  A    between atoms: C12_18  and  C19_31 
REMARK       I    between atoms: C13_19  and  N5_21 
REMARK    5  A    between atoms: N5_21  and  C14_23 
REMARK    6  A    between atoms: C14_23  and  C15_24 
REMARK    7  A    between atoms: C15_24  and  S1_25 
REMARK    8  A    between atoms: S1_25  and  S2_26 
REMARK    9  A    between atoms: S2_26  and  C16_27 
REMARK   10  A    between atoms: C16_27  and  C17_28 
REMARK   11  A    between atoms: C17_28  and  C18_29 
ROOT
HETATM    1  N2  UNL     1      -7.650  16.683  21.942  1.00  0.00    -0.374 N 
HETATM    2  C6  UNL     1      -7.534  15.499  22.812  1.00  0.00     0.124 C 
HETATM    3  C7  UNL     1      -8.499  15.714  23.971  1.00  0.00     0.031 C 
HETATM    4  C8  UNL     1      -8.505  17.206  24.068  1.00  0.00    -0.020 C 
HETATM    5  C9  UNL     1      -7.193  17.692  24.588  1.00  0.00     0.031 C 
HETATM    6  C10 UNL     1      -7.412  18.203  26.031  1.00  0.00     0.129 C 
HETATM    7  N3  UNL     1      -8.258  17.250  26.696  1.00  0.00    -0.322 N 
HETATM    8  C11 UNL     1      -7.697  16.403  27.723  1.00  0.00     0.391 C 
HETATM    9  O1  UNL     1      -6.461  16.628  27.923  1.00  0.00    -0.230 OA
HETATM   10  N4  UNL     1      -8.490  15.491  28.341  1.00  0.00    -0.381 NA
HETATM   11  C22 UNL     1      -9.638  17.179  26.273  1.00  0.00     0.129 C 
HETATM   12  C23 UNL     1      -9.684  17.731  24.840  1.00  0.00     0.031 C 
HETATM   13  C24 UNL     1      -8.593  17.543  22.574  1.00  0.00     0.133 C 
ENDROOT
BRANCH  10  14
HETATM   14  C12 UNL     1      -9.297  14.561  28.971  1.00  0.00     0.263 C 
BRANCH  14  15
HETATM   15  C13 UNL     1     -10.600  14.295  28.270  1.00  0.00     0.254 C 
HETATM   16  O2  UNL     1     -10.584  13.554  27.263  1.00  0.00    -0.270 OA
HETATM   17  N5  UNL     1     -11.822  14.847  28.703  1.00  0.00    -0.358 N 
ATOM     18  H5  UNL     1     -11.798  15.446  29.528  1.00  0.00     0.162 HD
BRANCH  17  19
HETATM   19  C14 UNL     1     -13.087  14.641  28.084  1.00  0.00     0.133 C 
BRANCH  19  20
HETATM   20  C15 UNL     1     -14.196  14.208  29.013  1.00  0.00     0.105 C 
BRANCH  20  21
HETATM   21  S1  UNL     1     -13.535  13.304  30.439  1.00  0.00    -0.096 SA
BRANCH  21  22
HETATM   22  S2  UNL     1     -13.272  14.546  32.134  1.00  0.00    -0.097 SA
BRANCH  22  23
HETATM   23  C16 UNL     1     -12.012  13.895  33.226  1.00  0.00     0.093 C 
BRANCH  23  24
HETATM   24  C17 UNL     1     -11.712  14.836  34.351  1.00  0.00     0.080 C 
BRANCH  24  25
HETATM   25  C18 UNL     1     -10.510  15.677  34.112  1.00  0.00     0.231 C 
HETATM   26  O3  UNL     1     -10.643  16.889  34.128  1.00  0.00    -0.307 OA
ENDBRANCH  24  25
ENDBRANCH  23  24
ENDBRANCH  22  23
ENDBRANCH  21  22
ENDBRANCH  20  21
ENDBRANCH  19  20
ENDBRANCH  17  19
ENDBRANCH  14  15
BRANCH  14  27
HETATM   27  C19 UNL     1      -9.600  14.864  30.434  1.00  0.00     0.023 C 
HETATM   28  C20 UNL     1      -8.777  14.003  31.370  1.00  0.00     0.013 C 
HETATM   29  C21 UNL     1      -9.259  16.317  30.743  1.00  0.00     0.013 C 
ENDBRANCH  14  27
ENDBRANCH  10  14
BRANCH   1  30
HETATM   30  C5  UNL     1      -6.880  16.765  20.746  1.00  0.00     0.121 A 
HETATM   31  C3  UNL     1      -5.632  17.331  20.702  1.00  0.00     0.039 A 
HETATM   32  N1  UNL     1      -4.937  17.349  19.508  1.00  0.00    -0.348 N 
HETATM   33  C4  UNL     1      -5.009  17.947  21.875  1.00  0.00     0.071 C 
HETATM   34  C2  UNL     1      -5.403  16.846  18.372  1.00  0.00     0.080 A 
ATOM     35  H1  UNL     1      -4.009  17.774  19.498  1.00  0.00     0.167 HD
HETATM   36  C1  UNL     1      -4.596  16.899  17.101  1.00  0.00     0.089 C 
HETATM   37  N6  UNL     1      -6.617  16.295  18.396  1.00  0.00    -0.311 N 
HETATM   38  C25 UNL     1      -7.340  16.247  19.532  1.00  0.00     0.275 A 
ATOM     39  H6  UNL     1      -7.004  15.901  17.539  1.00  0.00     0.170 HD
HETATM   40  O4  UNL     1      -8.487  15.718  19.528  1.00  0.00    -0.266 OA
ENDBRANCH   1  30
TORSDOF 11
ENDMDL
