MODEL 1
REMARK VINA RESULT: -9.437178782      0.000      0.000
REMARK  13 active torsions:
REMARK  status: ('A' for Active; 'I' for Inactive)
REMARK    1  A    between atoms: C4_4  and  C5_5 
REMARK    2  A    between atoms: C5_5  and  N1_6 
REMARK    3  A    between atoms: C11_13  and  N2_14 
REMARK    4  A    between atoms: N2_14  and  C12_16 
REMARK    5  A    between atoms: C16_24  and  O2_25 
REMARK    6  A    between atoms: O2_25  and  C17_26 
REMARK    7  A    between atoms: C17_26  and  C18_27 
REMARK    8  A    between atoms: C18_27  and  N5_28 
REMARK    9  A    between atoms: N5_28  and  C19_31 
REMARK   10  A    between atoms: C19_31  and  C20_32 
REMARK   11  A    between atoms: C20_32  and  N6_33 
REMARK   12  A    between atoms: C26_40  and  O3_41 
REMARK   13  A    between atoms: O3_41  and  C27_42 
ROOT
HETATM    1  C12 UNL     1      19.226  30.383  13.099  1.00  0.00     0.119 A 
HETATM    2  N3  UNL     1      18.009  30.374  13.679  1.00  0.00    -0.338 N 
ATOM      3  H3  UNL     1      17.624  31.213  14.111  1.00  0.00     0.168 HD
HETATM    4  C13 UNL     1      17.323  29.218  13.666  1.00  0.00     0.182 A 
HETATM    5  N4  UNL     1      17.796  28.094  13.106  1.00  0.00    -0.351 N 
ATOM      6  H4  UNL     1      17.232  27.244  13.124  1.00  0.00     0.166 HD
HETATM    7  C14 UNL     1      19.007  28.077  12.522  1.00  0.00     0.050 A 
HETATM    8  C15 UNL     1      19.522  26.930  11.937  1.00  0.00     0.070 A 
HETATM    9  C16 UNL     1      20.738  26.871  11.339  1.00  0.00     0.104 A 
HETATM   10  C26 UNL     1      21.525  28.063  11.321  1.00  0.00     0.103 A 
HETATM   11  C31 UNL     1      20.988  29.208  11.913  1.00  0.00     0.057 A 
HETATM   12  C32 UNL     1      19.749  29.224  12.506  1.00  0.00     0.038 A 
ENDROOT
BRANCH   1  13
HETATM   13  N2  UNL     1      19.984  31.399  13.088  1.00  0.00    -0.340 N 
ATOM     14  H2  UNL     1      20.429  31.674  12.213  1.00  0.00     0.167 HD
BRANCH  13  15
HETATM   15  C11 UNL     1      20.236  32.167  14.255  1.00  0.00     0.066 A 
HETATM   16  C4  UNL     1      19.366  33.090  14.786  1.00  0.00    -0.011 A 
HETATM   17  C3  UNL     1      19.734  33.771  15.911  1.00  0.00     0.021 A 
HETATM   18  C2  UNL     1      20.964  33.568  16.544  1.00  0.00    -0.021 A 
HETATM   19  C1  UNL     1      21.280  34.320  17.768  1.00  0.00     0.051 C 
HETATM   20  C34 UNL     1      21.827  32.626  15.980  1.00  0.00     0.146 A 
HETATM   21  C33 UNL     1      21.485  31.931  14.858  1.00  0.00     0.100 A 
HETATM   22  F1  UNL     1      23.031  32.439  16.600  1.00  0.00    -0.204 F 
HETATM   23 CL1  UNL     1      22.617  30.771  14.198  1.00  0.00    -0.079 Cl
BRANCH  16  24
HETATM   24  C5  UNL     1      18.080  33.307  14.144  1.00  0.00     0.166 C 
BRANCH  24  25
HETATM   25  N1  UNL     1      17.000  33.671  15.053  1.00  0.00    -0.348 N 
HETATM   26  C6  UNL     1      16.471  35.035  15.046  1.00  0.00     0.126 C 
HETATM   27  C7  UNL     1      16.054  35.474  16.395  1.00  0.00     0.020 C 
HETATM   28  C8  UNL     1      15.356  34.487  17.255  1.00  0.00     0.011 C 
HETATM   29  C9  UNL     1      15.191  33.124  16.640  1.00  0.00     0.103 C 
HETATM   30  C10 UNL     1      16.453  32.723  15.921  1.00  0.00     0.220 C 
HETATM   31  O1  UNL     1      16.995  31.604  16.080  1.00  0.00    -0.273 OA
ENDBRANCH  24  25
ENDBRANCH  16  24
ENDBRANCH  13  15
ENDBRANCH   1  13
BRANCH  10  32
HETATM   32  O3  UNL     1      22.693  28.026  10.752  1.00  0.00    -0.341 OA
BRANCH  32  33
HETATM   33  C27 UNL     1      23.983  27.779  10.646  1.00  0.00     0.154 C 
HETATM   34  C28 UNL     1      24.403  26.816   9.576  1.00  0.00     0.061 C 
HETATM   35  C29 UNL     1      24.586  25.529  10.340  1.00  0.00     0.170 C 
HETATM   36  O4  UNL     1      24.615  25.801  11.696  1.00  0.00    -0.389 OA
HETATM   37  C30 UNL     1      24.639  27.143  11.888  1.00  0.00     0.200 C 
ENDBRANCH  32  33
ENDBRANCH  10  32
BRANCH   9  38
HETATM   38  O2  UNL     1      21.246  25.769  10.750  1.00  0.00    -0.347 OA
BRANCH  38  39
HETATM   39  C17 UNL     1      20.644  24.791   9.949  1.00  0.00     0.203 C 
BRANCH  39  40
HETATM   40  C18 UNL     1      21.398  24.634   8.644  1.00  0.00     0.259 C 
BRANCH  40  41
HETATM   41  N5  UNL     1      21.532  25.857   7.915  1.00  0.00    -0.071 N 
ATOM     42  H52 UNL     1      21.005  26.605   8.367  1.00  0.00     0.277 HD
ATOM     43  H51 UNL     1      22.476  26.231   8.011  1.00  0.00     0.277 HD
BRANCH  41  44
HETATM   44  C19 UNL     1      21.162  25.743   6.504  1.00  0.00     0.262 C 
BRANCH  44  45
HETATM   45  C20 UNL     1      19.868  24.956   6.392  1.00  0.00     0.300 C 
BRANCH  45  46
HETATM   46  N6  UNL     1      18.823  25.675   5.735  1.00  0.00     0.093 N 
HETATM   47  C21 UNL     1      19.076  27.089   5.649  1.00  0.00     0.302 C 
HETATM   48  C22 UNL     1      18.405  27.907   6.711  1.00  0.00     0.302 C 
HETATM   49  N7  UNL     1      18.355  27.225   7.976  1.00  0.00     0.087 N 
HETATM   50  C23 UNL     1      17.843  28.105   8.986  1.00  0.00     0.310 C 
HETATM   51  C24 UNL     1      17.537  26.044   7.814  1.00  0.00     0.302 C 
HETATM   52  C25 UNL     1      17.530  25.529   6.398  1.00  0.00     0.302 C 
ENDBRANCH  45  46
ENDBRANCH  44  45
ENDBRANCH  41  44
ENDBRANCH  40  41
ENDBRANCH  39  40
ENDBRANCH  38  39
ENDBRANCH   9  38
TORSDOF 13
ENDMDL
MODEL 2
REMARK VINA RESULT: -9.406239493      2.643      4.999
REMARK  13 active torsions:
REMARK  status: ('A' for Active; 'I' for Inactive)
REMARK    1  A    between atoms: C4_4  and  C5_5 
REMARK    2  A    between atoms: C5_5  and  N1_6 
REMARK    3  A    between atoms: C11_13  and  N2_14 
REMARK    4  A    between atoms: N2_14  and  C12_16 
REMARK    5  A    between atoms: C16_24  and  O2_25 
REMARK    6  A    between atoms: O2_25  and  C17_26 
REMARK    7  A    between atoms: C17_26  and  C18_27 
REMARK    8  A    between atoms: C18_27  and  N5_28 
REMARK    9  A    between atoms: N5_28  and  C19_31 
REMARK   10  A    between atoms: C19_31  and  C20_32 
REMARK   11  A    between atoms: C20_32  and  N6_33 
REMARK   12  A    between atoms: C26_40  and  O3_41 
REMARK   13  A    between atoms: O3_41  and  C27_42 
ROOT
HETATM    1  C12 UNL     1      18.090  30.701  15.252  1.00  0.00     0.119 A 
HETATM    2  N3  UNL     1      18.538  30.721  16.524  1.00  0.00    -0.338 N 
ATOM      3  H3  UNL     1      18.096  31.309  17.231  1.00  0.00     0.168 HD
HETATM    4  C13 UNL     1      19.589  29.939  16.825  1.00  0.00     0.182 A 
HETATM    5  N4  UNL     1      20.196  29.152  15.923  1.00  0.00    -0.351 N 
ATOM      6  H4  UNL     1      20.990  28.578  16.206  1.00  0.00     0.166 HD
HETATM    7  C14 UNL     1      19.769  29.115  14.649  1.00  0.00     0.050 A 
HETATM    8  C15 UNL     1      20.378  28.314  13.695  1.00  0.00     0.070 A 
HETATM    9  C16 UNL     1      19.978  28.248  12.401  1.00  0.00     0.104 A 
HETATM   10  C26 UNL     1      18.869  29.059  12.009  1.00  0.00     0.103 A 
HETATM   11  C31 UNL     1      18.268  29.857  12.984  1.00  0.00     0.057 A 
HETATM   12  C32 UNL     1      18.704  29.892  14.286  1.00  0.00     0.038 A 
ENDROOT
BRANCH   1  13
HETATM   13  N2  UNL     1      17.137  31.429  14.839  1.00  0.00    -0.340 N 
ATOM     14  H2  UNL     1      16.470  31.037  14.175  1.00  0.00     0.167 HD
BRANCH  13  15
HETATM   15  C11 UNL     1      16.968  32.771  15.269  1.00  0.00     0.066 A 
HETATM   16  C4  UNL     1      17.808  33.808  14.941  1.00  0.00    -0.011 A 
HETATM   17  C3  UNL     1      17.539  35.054  15.429  1.00  0.00     0.021 A 
HETATM   18  C2  UNL     1      16.440  35.317  16.253  1.00  0.00    -0.021 A 
HETATM   19  C1  UNL     1      16.198  36.691  16.720  1.00  0.00     0.051 C 
HETATM   20  C34 UNL     1      15.606  34.243  16.571  1.00  0.00     0.146 A 
HETATM   21  C33 UNL     1      15.852  32.988  16.097  1.00  0.00     0.100 A 
HETATM   22  F1  UNL     1      14.539  34.505  17.384  1.00  0.00    -0.204 F 
HETATM   23 CL1  UNL     1      14.772  31.685  16.540  1.00  0.00    -0.079 Cl
BRANCH  16  24
HETATM   24  C5  UNL     1      18.951  33.553  14.079  1.00  0.00     0.166 C 
BRANCH  24  25
HETATM   25  N1  UNL     1      20.194  33.269  14.787  1.00  0.00    -0.348 N 
HETATM   26  C6  UNL     1      20.394  33.782  16.142  1.00  0.00     0.126 C 
HETATM   27  C7  UNL     1      21.806  34.135  16.398  1.00  0.00     0.020 C 
HETATM   28  C8  UNL     1      22.850  33.226  15.864  1.00  0.00     0.011 C 
HETATM   29  C9  UNL     1      22.322  32.054  15.082  1.00  0.00     0.103 C 
HETATM   30  C10 UNL     1      21.191  32.494  14.189  1.00  0.00     0.220 C 
HETATM   31  O1  UNL     1      21.131  32.190  12.974  1.00  0.00    -0.273 OA
ENDBRANCH  24  25
ENDBRANCH  16  24
ENDBRANCH  13  15
ENDBRANCH   1  13
BRANCH  10  32
HETATM   32  O3  UNL     1      18.472  29.009  10.772  1.00  0.00    -0.341 OA
BRANCH  32  33
HETATM   33  C27 UNL     1      17.804  28.559   9.730  1.00  0.00     0.154 C 
HETATM   34  C28 UNL     1      16.798  27.476   9.986  1.00  0.00     0.061 C 
HETATM   35  C29 UNL     1      17.547  26.227   9.592  1.00  0.00     0.170 C 
HETATM   36  O4  UNL     1      18.680  26.578   8.881  1.00  0.00    -0.389 OA
HETATM   37  C30 UNL     1      18.661  27.909   8.625  1.00  0.00     0.200 C 
ENDBRANCH  32  33
ENDBRANCH  10  32
BRANCH   9  38
HETATM   38  O2  UNL     1      20.547  27.461  11.466  1.00  0.00    -0.347 OA
BRANCH  38  39
HETATM   39  C17 UNL     1      21.616  26.559  11.545  1.00  0.00     0.203 C 
BRANCH  39  40
HETATM   40  C18 UNL     1      22.913  27.234  11.142  1.00  0.00     0.259 C 
BRANCH  40  41
HETATM   41  N5  UNL     1      24.068  26.422  11.368  1.00  0.00    -0.071 N 
ATOM     42  H52 UNL     1      24.535  26.692  12.234  1.00  0.00     0.277 HD
ATOM     43  H51 UNL     1      23.797  25.469  11.609  1.00  0.00     0.277 HD
BRANCH  41  44
HETATM   44  C19 UNL     1      25.013  26.423  10.250  1.00  0.00     0.262 C 
BRANCH  44  45
HETATM   45  C20 UNL     1      24.238  26.397   8.945  1.00  0.00     0.300 C 
BRANCH  45  46
HETATM   46  N6  UNL     1      24.209  25.110   8.327  1.00  0.00     0.093 N 
HETATM   47  C21 UNL     1      24.301  25.169   6.892  1.00  0.00     0.302 C 
HETATM   48  C22 UNL     1      22.985  25.080   6.180  1.00  0.00     0.302 C 
HETATM   49  N7  UNL     1      21.930  25.745   6.896  1.00  0.00     0.087 N 
HETATM   50  C23 UNL     1      20.735  25.760   6.104  1.00  0.00     0.310 C 
HETATM   51  C24 UNL     1      21.744  25.058   8.155  1.00  0.00     0.302 C 
HETATM   52  C25 UNL     1      22.992  24.362   8.630  1.00  0.00     0.302 C 
ENDBRANCH  45  46
ENDBRANCH  44  45
ENDBRANCH  41  44
ENDBRANCH  40  41
ENDBRANCH  39  40
ENDBRANCH  38  39
ENDBRANCH   9  38
TORSDOF 13
ENDMDL
MODEL 3
REMARK VINA RESULT: -9.324298821      3.291     10.315
REMARK  13 active torsions:
REMARK  status: ('A' for Active; 'I' for Inactive)
REMARK    1  A    between atoms: C4_4  and  C5_5 
REMARK    2  A    between atoms: C5_5  and  N1_6 
REMARK    3  A    between atoms: C11_13  and  N2_14 
REMARK    4  A    between atoms: N2_14  and  C12_16 
REMARK    5  A    between atoms: C16_24  and  O2_25 
REMARK    6  A    between atoms: O2_25  and  C17_26 
REMARK    7  A    between atoms: C17_26  and  C18_27 
REMARK    8  A    between atoms: C18_27  and  N5_28 
REMARK    9  A    between atoms: N5_28  and  C19_31 
REMARK   10  A    between atoms: C19_31  and  C20_32 
REMARK   11  A    between atoms: C20_32  and  N6_33 
REMARK   12  A    between atoms: C26_40  and  O3_41 
REMARK   13  A    between atoms: O3_41  and  C27_42 
ROOT
HETATM    1  C12 UNL     1      19.381  26.131   9.233  1.00  0.00     0.119 A 
HETATM    2  N3  UNL     1      18.653  25.021   9.001  1.00  0.00    -0.338 N 
ATOM      3  H3  UNL     1      18.785  24.469   8.153  1.00  0.00     0.168 HD
HETATM    4  C13 UNL     1      17.746  24.668   9.929  1.00  0.00     0.182 A 
HETATM    5  N4  UNL     1      17.544  25.367  11.056  1.00  0.00    -0.351 N 
ATOM      6  H4  UNL     1      16.843  25.053  11.727  1.00  0.00     0.166 HD
HETATM    7  C14 UNL     1      18.258  26.477  11.310  1.00  0.00     0.050 A 
HETATM    8  C15 UNL     1      18.069  27.221  12.465  1.00  0.00     0.070 A 
HETATM    9  C16 UNL     1      18.767  28.346  12.758  1.00  0.00     0.104 A 
HETATM   10  C26 UNL     1      19.745  28.783  11.813  1.00  0.00     0.103 A 
HETATM   11  C31 UNL     1      19.921  28.020  10.657  1.00  0.00     0.057 A 
HETATM   12  C32 UNL     1      19.194  26.884  10.401  1.00  0.00     0.038 A 
ENDROOT
BRANCH   1  13
HETATM   13  N2  UNL     1      20.233  26.588   8.412  1.00  0.00    -0.340 N 
ATOM     14  H2  UNL     1      20.450  27.585   8.430  1.00  0.00     0.167 HD
BRANCH  13  15
HETATM   15  C11 UNL     1      20.895  25.760   7.468  1.00  0.00     0.066 A 
HETATM   16  C4  UNL     1      21.845  24.818   7.786  1.00  0.00    -0.011 A 
HETATM   17  C3  UNL     1      22.414  24.091   6.781  1.00  0.00     0.021 A 
HETATM   18  C2  UNL     1      22.070  24.268   5.437  1.00  0.00    -0.021 A 
HETATM   19  C1  UNL     1      22.706  23.429   4.411  1.00  0.00     0.051 C 
HETATM   20  C34 UNL     1      21.103  25.234   5.145  1.00  0.00     0.146 A 
HETATM   21  C33 UNL     1      20.519  25.973   6.130  1.00  0.00     0.100 A 
HETATM   22  F1  UNL     1      20.778  25.407   3.829  1.00  0.00    -0.204 F 
HETATM   23 CL1  UNL     1      19.321  27.173   5.695  1.00  0.00    -0.079 Cl
BRANCH  16  24
HETATM   24  C5  UNL     1      22.209  24.616   9.179  1.00  0.00     0.166 C 
BRANCH  24  25
HETATM   25  N1  UNL     1      23.065  25.655   9.740  1.00  0.00    -0.348 N 
HETATM   26  C6  UNL     1      24.152  26.215   8.936  1.00  0.00     0.126 C 
HETATM   27  C7  UNL     1      25.325  26.570   9.762  1.00  0.00     0.020 C 
HETATM   28  C8  UNL     1      25.073  27.201  11.081  1.00  0.00     0.011 C 
HETATM   29  C9  UNL     1      23.618  27.367  11.428  1.00  0.00     0.103 C 
HETATM   30  C10 UNL     1      22.845  26.136  11.033  1.00  0.00     0.220 C 
HETATM   31  O1  UNL     1      22.045  25.562  11.808  1.00  0.00    -0.273 OA
ENDBRANCH  24  25
ENDBRANCH  16  24
ENDBRANCH  13  15
ENDBRANCH   1  13
BRANCH  10  32
HETATM   32  O3  UNL     1      20.424  29.861  12.077  1.00  0.00    -0.341 OA
BRANCH  32  33
HETATM   33  C27 UNL     1      21.397  30.586  12.588  1.00  0.00     0.154 C 
HETATM   34  C28 UNL     1      22.039  30.072  13.842  1.00  0.00     0.061 C 
HETATM   35  C29 UNL     1      21.357  30.879  14.919  1.00  0.00     0.170 C 
HETATM   36  O4  UNL     1      20.689  31.943  14.341  1.00  0.00    -0.389 OA
HETATM   37  C30 UNL     1      21.001  32.012  13.023  1.00  0.00     0.200 C 
ENDBRANCH  32  33
ENDBRANCH  10  32
BRANCH   9  38
HETATM   38  O2  UNL     1      18.610  29.070  13.885  1.00  0.00    -0.347 OA
BRANCH  38  39
HETATM   39  C17 UNL     1      17.552  29.876  14.323  1.00  0.00     0.203 C 
BRANCH  39  40
HETATM   40  C18 UNL     1      17.486  31.156  13.513  1.00  0.00     0.259 C 
BRANCH  40  41
HETATM   41  N5  UNL     1      17.476  32.338  14.318  1.00  0.00    -0.071 N 
ATOM     42  H52 UNL     1      18.428  32.661  14.495  1.00  0.00     0.277 HD
ATOM     43  H51 UNL     1      17.121  33.132  13.787  1.00  0.00     0.277 HD
BRANCH  41  44
HETATM   44  C19 UNL     1      16.741  32.185  15.574  1.00  0.00     0.262 C 
BRANCH  44  45
HETATM   45  C20 UNL     1      16.039  33.491  15.901  1.00  0.00     0.300 C 
BRANCH  45  46
HETATM   46  N6  UNL     1      15.913  33.733  17.303  1.00  0.00     0.093 N 
HETATM   47  C21 UNL     1      14.878  34.680  17.623  1.00  0.00     0.302 C 
HETATM   48  C22 UNL     1      15.365  36.080  17.848  1.00  0.00     0.302 C 
HETATM   49  N7  UNL     1      16.461  36.424  16.982  1.00  0.00     0.087 N 
HETATM   50  C23 UNL     1      16.786  37.813  17.131  1.00  0.00     0.310 C 
HETATM   51  C24 UNL     1      17.575  35.563  17.310  1.00  0.00     0.302 C 
HETATM   52  C25 UNL     1      17.141  34.247  17.903  1.00  0.00     0.302 C 
ENDBRANCH  45  46
ENDBRANCH  44  45
ENDBRANCH  41  44
ENDBRANCH  40  41
ENDBRANCH  39  40
ENDBRANCH  38  39
ENDBRANCH   9  38
TORSDOF 13
ENDMDL
MODEL 4
REMARK VINA RESULT: -9.153407031      1.019      1.704
REMARK  13 active torsions:
REMARK  status: ('A' for Active; 'I' for Inactive)
REMARK    1  A    between atoms: C4_4  and  C5_5 
REMARK    2  A    between atoms: C5_5  and  N1_6 
REMARK    3  A    between atoms: C11_13  and  N2_14 
REMARK    4  A    between atoms: N2_14  and  C12_16 
REMARK    5  A    between atoms: C16_24  and  O2_25 
REMARK    6  A    between atoms: O2_25  and  C17_26 
REMARK    7  A    between atoms: C17_26  and  C18_27 
REMARK    8  A    between atoms: C18_27  and  N5_28 
REMARK    9  A    between atoms: N5_28  and  C19_31 
REMARK   10  A    between atoms: C19_31  and  C20_32 
REMARK   11  A    between atoms: C20_32  and  N6_33 
REMARK   12  A    between atoms: C26_40  and  O3_41 
REMARK   13  A    between atoms: O3_41  and  C27_42 
ROOT
HETATM    1  C12 UNL     1      19.188  30.718  13.122  1.00  0.00     0.119 A 
HETATM    2  N3  UNL     1      17.955  30.769  13.665  1.00  0.00    -0.338 N 
ATOM      3  H3  UNL     1      17.603  31.623  14.098  1.00  0.00     0.168 HD
HETATM    4  C13 UNL     1      17.208  29.653  13.616  1.00  0.00     0.182 A 
HETATM    5  N4  UNL     1      17.635  28.511  13.055  1.00  0.00    -0.351 N 
ATOM      6  H4  UNL     1      17.025  27.694  13.045  1.00  0.00     0.166 HD
HETATM    7  C14 UNL     1      18.860  28.435  12.507  1.00  0.00     0.050 A 
HETATM    8  C15 UNL     1      19.329  27.268  11.923  1.00  0.00     0.070 A 
HETATM    9  C16 UNL     1      20.558  27.149  11.360  1.00  0.00     0.104 A 
HETATM   10  C26 UNL     1      21.409  28.296  11.382  1.00  0.00     0.103 A 
HETATM   11  C31 UNL     1      20.918  29.462  11.973  1.00  0.00     0.057 A 
HETATM   12  C32 UNL     1      19.664  29.540  12.530  1.00  0.00     0.038 A 
ENDROOT
BRANCH   1  13
HETATM   13  N2  UNL     1      20.000  31.691  13.148  1.00  0.00    -0.340 N 
ATOM     14  H2  UNL     1      20.482  31.954  12.288  1.00  0.00     0.167 HD
BRANCH  13  15
HETATM   15  C11 UNL     1      20.263  32.426  14.333  1.00  0.00     0.066 A 
HETATM   16  C4  UNL     1      19.395  33.329  14.901  1.00  0.00    -0.011 A 
HETATM   17  C3  UNL     1      19.773  33.979  16.040  1.00  0.00     0.021 A 
HETATM   18  C2  UNL     1      21.011  33.764  16.653  1.00  0.00    -0.021 A 
HETATM   19  C1  UNL     1      21.338  34.482  17.894  1.00  0.00     0.051 C 
HETATM   20  C34 UNL     1      21.872  32.843  16.052  1.00  0.00     0.146 A 
HETATM   21  C33 UNL     1      21.520  32.179  14.914  1.00  0.00     0.100 A 
HETATM   22  F1  UNL     1      23.084  32.644  16.651  1.00  0.00    -0.204 F 
HETATM   23 CL1  UNL     1      22.648  31.044  14.207  1.00  0.00    -0.079 Cl
BRANCH  16  24
HETATM   24  C5  UNL     1      18.100  33.559  14.280  1.00  0.00     0.166 C 
BRANCH  24  25
HETATM   25  N1  UNL     1      17.030  33.891  15.212  1.00  0.00    -0.348 N 
HETATM   26  C6  UNL     1      16.478  35.246  15.235  1.00  0.00     0.126 C 
HETATM   27  C7  UNL     1      16.077  35.657  16.597  1.00  0.00     0.020 C 
HETATM   28  C8  UNL     1      15.409  34.646  17.453  1.00  0.00     0.011 C 
HETATM   29  C9  UNL     1      15.255  33.290  16.819  1.00  0.00     0.103 C 
HETATM   30  C10 UNL     1      16.512  32.921  16.074  1.00  0.00     0.220 C 
HETATM   31  O1  UNL     1      17.074  31.808  16.206  1.00  0.00    -0.273 OA
ENDBRANCH  24  25
ENDBRANCH  16  24
ENDBRANCH  13  15
ENDBRANCH   1  13
BRANCH  10  32
HETATM   32  O3  UNL     1      22.591  28.201  10.848  1.00  0.00    -0.341 OA
BRANCH  32  33
HETATM   33  C27 UNL     1      23.873  27.910  10.786  1.00  0.00     0.154 C 
HETATM   34  C28 UNL     1      24.298  26.941   9.723  1.00  0.00     0.061 C 
HETATM   35  C29 UNL     1      24.408  25.642  10.482  1.00  0.00     0.170 C 
HETATM   36  O4  UNL     1      24.396  25.902  11.840  1.00  0.00    -0.389 OA
HETATM   37  C30 UNL     1      24.461  27.241  12.045  1.00  0.00     0.200 C 
ENDBRANCH  32  33
ENDBRANCH  10  32
BRANCH   9  38
HETATM   38  O2  UNL     1      21.022  26.028  10.772  1.00  0.00    -0.347 OA
BRANCH  38  39
HETATM   39  C17 UNL     1      20.968  24.687  11.170  1.00  0.00     0.203 C 
BRANCH  39  40
HETATM   40  C18 UNL     1      19.968  23.921  10.327  1.00  0.00     0.259 C 
BRANCH  40  41
HETATM   41  N5  UNL     1      18.640  23.952  10.854  1.00  0.00    -0.071 N 
ATOM     42  H52 UNL     1      18.480  23.160  11.477  1.00  0.00     0.277 HD
ATOM     43  H51 UNL     1      18.535  24.717  11.521  1.00  0.00     0.277 HD
BRANCH  41  44
HETATM   44  C19 UNL     1      17.602  24.017   9.825  1.00  0.00     0.262 C 
BRANCH  44  45
HETATM   45  C20 UNL     1      17.582  25.413   9.227  1.00  0.00     0.300 C 
BRANCH  45  46
HETATM   46  N6  UNL     1      17.401  25.420   7.810  1.00  0.00     0.093 N 
HETATM   47  C21 UNL     1      18.027  24.303   7.153  1.00  0.00     0.302 C 
HETATM   48  C22 UNL     1      19.373  24.603   6.565  1.00  0.00     0.302 C 
HETATM   49  N7  UNL     1      20.129  25.526   7.368  1.00  0.00     0.087 N 
HETATM   50  C23 UNL     1      21.456  25.659   6.844  1.00  0.00     0.310 C 
HETATM   51  C24 UNL     1      19.418  26.785   7.387  1.00  0.00     0.302 C 
HETATM   52  C25 UNL     1      17.936  26.622   7.175  1.00  0.00     0.302 C 
ENDBRANCH  45  46
ENDBRANCH  44  45
ENDBRANCH  41  44
ENDBRANCH  40  41
ENDBRANCH  39  40
ENDBRANCH  38  39
ENDBRANCH   9  38
TORSDOF 13
ENDMDL
MODEL 5
REMARK VINA RESULT: -9.140963277      3.191     10.649
REMARK  13 active torsions:
REMARK  status: ('A' for Active; 'I' for Inactive)
REMARK    1  A    between atoms: C4_4  and  C5_5 
REMARK    2  A    between atoms: C5_5  and  N1_6 
REMARK    3  A    between atoms: C11_13  and  N2_14 
REMARK    4  A    between atoms: N2_14  and  C12_16 
REMARK    5  A    between atoms: C16_24  and  O2_25 
REMARK    6  A    between atoms: O2_25  and  C17_26 
REMARK    7  A    between atoms: C17_26  and  C18_27 
REMARK    8  A    between atoms: C18_27  and  N5_28 
REMARK    9  A    between atoms: N5_28  and  C19_31 
REMARK   10  A    between atoms: C19_31  and  C20_32 
REMARK   11  A    between atoms: C20_32  and  N6_33 
REMARK   12  A    between atoms: C26_40  and  O3_41 
REMARK   13  A    between atoms: O3_41  and  C27_42 
ROOT
HETATM    1  C12 UNL     1      19.250  28.663  12.561  1.00  0.00     0.119 A 
HETATM    2  N3  UNL     1      18.440  27.585  12.551  1.00  0.00    -0.338 N 
ATOM      3  H3  UNL     1      18.524  26.868  11.832  1.00  0.00     0.168 HD
HETATM    4  C13 UNL     1      17.519  27.492  13.526  1.00  0.00     0.182 A 
HETATM    5  N4  UNL     1      17.379  28.415  14.490  1.00  0.00    -0.351 N 
ATOM      6  H4  UNL     1      16.663  28.292  15.206  1.00  0.00     0.166 HD
HETATM    7  C14 UNL     1      18.174  29.498  14.521  1.00  0.00     0.050 A 
HETATM    8  C15 UNL     1      18.051  30.468  15.504  1.00  0.00     0.070 A 
HETATM    9  C16 UNL     1      18.832  31.575  15.571  1.00  0.00     0.104 A 
HETATM   10  C26 UNL     1      19.830  31.742  14.562  1.00  0.00     0.103 A 
HETATM   11  C31 UNL     1      19.939  30.754  13.583  1.00  0.00     0.057 A 
HETATM   12  C32 UNL     1      19.128  29.645  13.554  1.00  0.00     0.038 A 
ENDROOT
BRANCH   1  13
HETATM   13  N2  UNL     1      20.125  28.884  11.670  1.00  0.00    -0.340 N 
ATOM     14  H2  UNL     1      20.273  29.841  11.350  1.00  0.00     0.167 HD
BRANCH  13  15
HETATM   15  C11 UNL     1      20.906  27.843  11.102  1.00  0.00     0.066 A 
HETATM   16  C4  UNL     1      20.554  27.123   9.986  1.00  0.00    -0.011 A 
HETATM   17  C3  UNL     1      21.391  26.138   9.546  1.00  0.00     0.021 A 
HETATM   18  C2  UNL     1      22.595  25.832  10.189  1.00  0.00    -0.021 A 
HETATM   19  C1  UNL     1      23.459  24.775   9.642  1.00  0.00     0.051 C 
HETATM   20  C34 UNL     1      22.924  26.580  11.322  1.00  0.00     0.146 A 
HETATM   21  C33 UNL     1      22.106  27.569  11.783  1.00  0.00     0.100 A 
HETATM   22  F1  UNL     1      24.097  26.270  11.950  1.00  0.00    -0.204 F 
HETATM   23 CL1  UNL     1      22.574  28.462  13.212  1.00  0.00    -0.079 Cl
BRANCH  16  24
HETATM   24  C5  UNL     1      19.309  27.433   9.301  1.00  0.00     0.166 C 
BRANCH  24  25
HETATM   25  N1  UNL     1      18.478  26.275   8.997  1.00  0.00    -0.348 N 
HETATM   26  C6  UNL     1      17.915  25.476  10.087  1.00  0.00     0.126 C 
HETATM   27  C7  UNL     1      17.833  24.042   9.737  1.00  0.00     0.020 C 
HETATM   28  C8  UNL     1      17.406  23.693   8.359  1.00  0.00     0.011 C 
HETATM   29  C9  UNL     1      17.141  24.875   7.466  1.00  0.00     0.103 C 
HETATM   30  C10 UNL     1      18.198  25.929   7.673  1.00  0.00     0.220 C 
HETATM   31  O1  UNL     1      18.802  26.477   6.721  1.00  0.00    -0.273 OA
ENDBRANCH  24  25
ENDBRANCH  16  24
ENDBRANCH  13  15
ENDBRANCH   1  13
BRANCH  10  32
HETATM   32  O3  UNL     1      20.587  32.798  14.609  1.00  0.00    -0.341 OA
BRANCH  32  33
HETATM   33  C27 UNL     1      21.630  33.528  14.947  1.00  0.00     0.154 C 
HETATM   34  C28 UNL     1      22.766  32.816  15.621  1.00  0.00     0.061 C 
HETATM   35  C29 UNL     1      22.532  33.123  17.079  1.00  0.00     0.170 C 
HETATM   36  O4  UNL     1      21.612  34.150  17.189  1.00  0.00    -0.389 OA
HETATM   37  C30 UNL     1      21.348  34.656  15.960  1.00  0.00     0.200 C 
ENDBRANCH  32  33
ENDBRANCH  10  32
BRANCH   9  38
HETATM   38  O2  UNL     1      18.738  32.519  16.529  1.00  0.00    -0.347 OA
BRANCH  38  39
HETATM   39  C17 UNL     1      17.626  33.180  17.067  1.00  0.00     0.203 C 
BRANCH  39  40
HETATM   40  C18 UNL     1      18.006  34.574  17.525  1.00  0.00     0.259 C 
BRANCH  40  41
HETATM   41  N5  UNL     1      18.831  34.583  18.694  1.00  0.00    -0.071 N 
ATOM     42  H52 UNL     1      18.349  34.141  19.477  1.00  0.00     0.277 HD
ATOM     43  H51 UNL     1      19.613  33.937  18.587  1.00  0.00     0.277 HD
BRANCH  41  44
HETATM   44  C19 UNL     1      19.307  35.915  19.065  1.00  0.00     0.262 C 
BRANCH  44  45
HETATM   45  C20 UNL     1      18.851  36.916  18.019  1.00  0.00     0.300 C 
BRANCH  45  46
HETATM   46  N6  UNL     1      18.461  38.175  18.569  1.00  0.00     0.093 N 
HETATM   47  C21 UNL     1      17.643  38.954  17.678  1.00  0.00     0.302 C 
HETATM   48  C22 UNL     1      18.389  39.996  16.900  1.00  0.00     0.302 C 
HETATM   49  N7  UNL     1      19.708  39.559  16.526  1.00  0.00     0.087 N 
HETATM   50  C23 UNL     1      20.316  40.526  15.660  1.00  0.00     0.310 C 
HETATM   51  C24 UNL     1      20.469  39.353  17.738  1.00  0.00     0.302 C 
HETATM   52  C25 UNL     1      19.601  39.017  18.922  1.00  0.00     0.302 C 
ENDBRANCH  45  46
ENDBRANCH  44  45
ENDBRANCH  41  44
ENDBRANCH  40  41
ENDBRANCH  39  40
ENDBRANCH  38  39
ENDBRANCH   9  38
TORSDOF 13
ENDMDL
