MODEL 1
REMARK VINA RESULT: -8.863550981      0.000      0.000
REMARK  16 active torsions:
REMARK  status: ('A' for Active; 'I' for Inactive)
REMARK    1  A    between atoms: C2_2  and  C3_3 
REMARK    2  A    between atoms: C3_3  and  C4_5 
REMARK    3  A    between atoms: C4_5  and  N1_6 
REMARK    4  A    between atoms: C4_5  and  C19_27 
REMARK       I    between atoms: N1_6  and  C5_8 
REMARK    5  A    between atoms: C5_8  and  C6_10 
REMARK    6  A    between atoms: C6_10  and  C7_11 
REMARK    7  A    between atoms: C6_10  and  N2_18 
REMARK    8  A    between atoms: C7_11  and  C8_12 
REMARK       I    between atoms: N2_18  and  C14_20 
REMARK    9  A    between atoms: C14_20  and  O4_22 
REMARK   10  A    between atoms: O4_22  and  C15_23 
REMARK   11  A    between atoms: C19_27  and  O5_28 
REMARK   12  A    between atoms: C19_27  and  C31_44 
REMARK   13  A    between atoms: O5_28  and  C20_29 
REMARK       I    between atoms: C20_29  and  N3_31 
REMARK   14  A    between atoms: N4_34  and  C23_35 
REMARK   15  A    between atoms: C23_35  and  C24_36 
REMARK       I    between atoms: C31_44  and  N5_46 
REMARK   16  A    between atoms: N5_46  and  C32_48 
ROOT
HETATM    1  C4  UNL     1      19.314  28.708  10.434  1.00  0.00     0.193 C 
ENDROOT
BRANCH   1   2
HETATM    2  C3  UNL     1      18.165  28.482  11.413  1.00  0.00     0.152 C 
HETATM    3  O1  UNL     1      18.085  27.413  12.038  1.00  0.00    -0.296 OA
BRANCH   2   4
HETATM    4  C2  UNL     1      17.119  29.495  11.657  1.00  0.00     0.076 C 
HETATM    5  C1  UNL     1      16.189  29.487  10.429  1.00  0.00     0.013 C 
ENDBRANCH   2   4
ENDBRANCH   1   2
BRANCH   1   6
HETATM    6  N1  UNL     1      19.502  27.525   9.646  1.00  0.00    -0.342 N 
HETATM    7  C5  UNL     1      19.103  27.347   8.328  1.00  0.00     0.264 C 
HETATM    8  O2  UNL     1      18.485  28.357   7.808  1.00  0.00    -0.266 OA
ATOM      9  H1  UNL     1      19.974  26.740  10.097  1.00  0.00     0.163 HD
BRANCH   7  10
HETATM   10  C6  UNL     1      19.253  26.211   7.432  1.00  0.00     0.082 C 
BRANCH  10  11
HETATM   11  C7  UNL     1      18.121  25.764   6.614  1.00  0.00     0.067 C 
BRANCH  11  12
HETATM   12  C8  UNL     1      18.134  26.128   5.158  1.00  0.00    -0.009 C 
HETATM   13  C9  UNL     1      18.162  24.883   4.284  1.00  0.00     0.005 C 
HETATM   14  C10 UNL     1      18.391  25.315   2.859  1.00  0.00     0.000 C 
HETATM   15  C11 UNL     1      17.359  26.315   2.370  1.00  0.00     0.000 C 
HETATM   16  C12 UNL     1      17.160  27.441   3.336  1.00  0.00     0.000 C 
HETATM   17  C13 UNL     1      16.896  26.904   4.753  1.00  0.00     0.005 C 
ENDBRANCH  11  12
ENDBRANCH  10  11
BRANCH  10  18
HETATM   18  N2  UNL     1      20.494  26.231   6.695  1.00  0.00    -0.301 N 
HETATM   19  C14 UNL     1      21.765  25.957   7.252  1.00  0.00     0.365 C 
HETATM   20  O3  UNL     1      21.977  25.665   8.447  1.00  0.00    -0.238 OA
ATOM     21  H2  UNL     1      20.451  26.460   5.702  1.00  0.00     0.171 HD
BRANCH  19  22
HETATM   22  O4  UNL     1      22.917  25.997   6.452  1.00  0.00    -0.294 OA
BRANCH  22  23
HETATM   23  C15 UNL     1      23.538  24.902   5.869  1.00  0.00     0.061 C 
HETATM   24  C16 UNL     1      23.841  25.246   4.416  1.00  0.00     0.046 C 
HETATM   25  C17 UNL     1      22.680  23.654   5.815  1.00  0.00     0.046 C 
HETATM   26  C18 UNL     1      24.853  24.568   6.536  1.00  0.00     0.046 C 
ENDBRANCH  22  23
ENDBRANCH  19  22
ENDBRANCH  10  18
ENDBRANCH   7  10
ENDBRANCH   1   6
BRANCH   1  27
HETATM   27  C19 UNL     1      20.531  29.087  11.228  1.00  0.00     0.255 C 
BRANCH  27  28
HETATM   28  O5  UNL     1      20.155  29.407  12.559  1.00  0.00    -0.286 OA
BRANCH  28  29
HETATM   29  C20 UNL     1      20.557  30.470  13.325  1.00  0.00     0.363 C 
HETATM   30  O6  UNL     1      21.654  31.007  13.038  1.00  0.00    -0.238 OA
HETATM   31  N3  UNL     1      19.800  30.975  14.395  1.00  0.00    -0.325 N 
HETATM   32  C21 UNL     1      18.521  30.381  14.740  1.00  0.00     0.158 C 
HETATM   33  C30 UNL     1      20.208  32.097  15.178  1.00  0.00     0.158 C 
HETATM   34  C22 UNL     1      17.453  31.491  14.688  1.00  0.00     0.292 C 
HETATM   35  N4  UNL     1      17.787  32.526  15.585  1.00  0.00     0.091 N 
HETATM   36  C29 UNL     1      19.107  32.552  16.113  1.00  0.00     0.292 C 
BRANCH  35  37
HETATM   37  C23 UNL     1      17.435  33.858  15.158  1.00  0.00     0.277 C 
BRANCH  37  38
HETATM   38  C24 UNL     1      16.186  34.384  15.797  1.00  0.00     0.018 C 
HETATM   39  C25 UNL     1      16.541  35.617  16.593  1.00  0.00     0.032 C 
HETATM   40  C26 UNL     1      16.840  35.312  18.055  1.00  0.00     0.168 C 
HETATM   41  O7  UNL     1      15.824  34.670  18.711  1.00  0.00    -0.391 OA
HETATM   42  C27 UNL     1      14.926  33.993  17.928  1.00  0.00     0.168 C 
HETATM   43  C28 UNL     1      15.595  33.367  16.723  1.00  0.00     0.032 C 
ENDBRANCH  37  38
ENDBRANCH  35  37
ENDBRANCH  28  29
ENDBRANCH  27  28
BRANCH  27  44
HETATM   44  C31 UNL     1      21.524  27.982  11.331  1.00  0.00     0.250 C 
HETATM   45  O8  UNL     1      21.246  27.009  12.069  1.00  0.00    -0.271 OA
HETATM   46  N5  UNL     1      22.731  28.050  10.611  1.00  0.00    -0.354 N 
ATOM     47  H5  UNL     1      22.917  28.862  10.022  1.00  0.00     0.162 HD
BRANCH  46  48
HETATM   48  C32 UNL     1      23.724  26.980  10.693  1.00  0.00     0.084 A 
HETATM   49  C33 UNL     1      25.036  27.285  11.332  1.00  0.00     0.027 A 
HETATM   50  C34 UNL     1      24.944  26.963   9.879  1.00  0.00     0.027 A 
ENDBRANCH  46  48
ENDBRANCH  27  44
ENDBRANCH   1  27
TORSDOF 16
ENDMDL
MODEL 2
REMARK VINA RESULT: -8.853584960      1.105      1.702
REMARK  16 active torsions:
REMARK  status: ('A' for Active; 'I' for Inactive)
REMARK    1  A    between atoms: C2_2  and  C3_3 
REMARK    2  A    between atoms: C3_3  and  C4_5 
REMARK    3  A    between atoms: C4_5  and  N1_6 
REMARK    4  A    between atoms: C4_5  and  C19_27 
REMARK       I    between atoms: N1_6  and  C5_8 
REMARK    5  A    between atoms: C5_8  and  C6_10 
REMARK    6  A    between atoms: C6_10  and  C7_11 
REMARK    7  A    between atoms: C6_10  and  N2_18 
REMARK    8  A    between atoms: C7_11  and  C8_12 
REMARK       I    between atoms: N2_18  and  C14_20 
REMARK    9  A    between atoms: C14_20  and  O4_22 
REMARK   10  A    between atoms: O4_22  and  C15_23 
REMARK   11  A    between atoms: C19_27  and  O5_28 
REMARK   12  A    between atoms: C19_27  and  C31_44 
REMARK   13  A    between atoms: O5_28  and  C20_29 
REMARK       I    between atoms: C20_29  and  N3_31 
REMARK   14  A    between atoms: N4_34  and  C23_35 
REMARK   15  A    between atoms: C23_35  and  C24_36 
REMARK       I    between atoms: C31_44  and  N5_46 
REMARK   16  A    between atoms: N5_46  and  C32_48 
ROOT
HETATM    1  C4  UNL     1      19.384  28.682  10.418  1.00  0.00     0.193 C 
ENDROOT
BRANCH   1   2
HETATM    2  C3  UNL     1      18.220  28.421  11.370  1.00  0.00     0.152 C 
HETATM    3  O1  UNL     1      18.120  27.323  11.940  1.00  0.00    -0.296 OA
BRANCH   2   4
HETATM    4  C2  UNL     1      17.183  29.434  11.652  1.00  0.00     0.076 C 
HETATM    5  C1  UNL     1      16.212  29.430  10.456  1.00  0.00     0.013 C 
ENDBRANCH   2   4
ENDBRANCH   1   2
BRANCH   1   6
HETATM    6  N1  UNL     1      19.547  27.550   9.552  1.00  0.00    -0.342 N 
HETATM    7  C5  UNL     1      19.065  27.437   8.255  1.00  0.00     0.264 C 
HETATM    8  O2  UNL     1      18.391  28.457   7.836  1.00  0.00    -0.266 OA
ATOM      9  H1  UNL     1      20.066  26.755   9.924  1.00  0.00     0.163 HD
BRANCH   7  10
HETATM   10  C6  UNL     1      19.182  26.358   7.286  1.00  0.00     0.082 C 
BRANCH  10  11
HETATM   11  C7  UNL     1      18.068  26.059   6.380  1.00  0.00     0.067 C 
BRANCH  11  12
HETATM   12  C8  UNL     1      17.083  25.014   6.818  1.00  0.00    -0.009 C 
HETATM   13  C9  UNL     1      16.139  24.644   5.683  1.00  0.00     0.005 C 
HETATM   14  C10 UNL     1      15.053  23.763   6.245  1.00  0.00     0.000 C 
HETATM   15  C11 UNL     1      15.594  22.529   6.944  1.00  0.00     0.000 C 
HETATM   16  C12 UNL     1      16.687  22.860   7.912  1.00  0.00     0.000 C 
HETATM   17  C13 UNL     1      17.765  23.728   7.240  1.00  0.00     0.005 C 
ENDBRANCH  11  12
ENDBRANCH  10  11
BRANCH  10  18
HETATM   18  N2  UNL     1      20.461  26.333   6.618  1.00  0.00    -0.301 N 
HETATM   19  C14 UNL     1      21.679  25.952   7.227  1.00  0.00     0.365 C 
HETATM   20  O3  UNL     1      21.805  25.592   8.416  1.00  0.00    -0.238 OA
ATOM     21  H2  UNL     1      20.488  26.610   5.637  1.00  0.00     0.171 HD
BRANCH  19  22
HETATM   22  O4  UNL     1      22.875  25.955   6.492  1.00  0.00    -0.294 OA
BRANCH  22  23
HETATM   23  C15 UNL     1      23.463  24.849   5.895  1.00  0.00     0.061 C 
HETATM   24  C16 UNL     1      23.787  25.207   4.450  1.00  0.00     0.046 C 
HETATM   25  C17 UNL     1      22.563  23.632   5.813  1.00  0.00     0.046 C 
HETATM   26  C18 UNL     1      24.760  24.459   6.565  1.00  0.00     0.046 C 
ENDBRANCH  22  23
ENDBRANCH  19  22
ENDBRANCH  10  18
ENDBRANCH   7  10
ENDBRANCH   1   6
BRANCH   1  27
HETATM   27  C19 UNL     1      20.603  28.971  11.246  1.00  0.00     0.255 C 
BRANCH  27  28
HETATM   28  O5  UNL     1      20.227  29.180  12.598  1.00  0.00    -0.286 OA
BRANCH  28  29
HETATM   29  C20 UNL     1      20.663  30.149  13.463  1.00  0.00     0.363 C 
HETATM   30  O6  UNL     1      21.821  30.600  13.289  1.00  0.00    -0.238 OA
HETATM   31  N3  UNL     1      19.877  30.651  14.513  1.00  0.00    -0.325 N 
HETATM   32  C21 UNL     1      18.529  30.156  14.729  1.00  0.00     0.158 C 
HETATM   33  C30 UNL     1      20.323  31.678  15.399  1.00  0.00     0.158 C 
HETATM   34  C22 UNL     1      17.568  31.362  14.685  1.00  0.00     0.292 C 
HETATM   35  N4  UNL     1      17.925  32.301  15.673  1.00  0.00     0.091 N 
HETATM   36  C29 UNL     1      19.200  32.171  16.289  1.00  0.00     0.292 C 
BRANCH  35  37
HETATM   37  C23 UNL     1      17.723  33.685  15.320  1.00  0.00     0.277 C 
BRANCH  37  38
HETATM   38  C24 UNL     1      16.429  34.251  15.820  1.00  0.00     0.018 C 
HETATM   39  C25 UNL     1      16.730  35.511  16.596  1.00  0.00     0.032 C 
HETATM   40  C26 UNL     1      16.889  35.262  18.090  1.00  0.00     0.168 C 
HETATM   41  O7  UNL     1      15.809  34.660  18.676  1.00  0.00    -0.391 OA
HETATM   42  C27 UNL     1      14.975  33.961  17.841  1.00  0.00     0.168 C 
HETATM   43  C28 UNL     1      15.741  33.279  16.729  1.00  0.00     0.032 C 
ENDBRANCH  37  38
ENDBRANCH  35  37
ENDBRANCH  28  29
ENDBRANCH  27  28
BRANCH  27  44
HETATM   44  C31 UNL     1      21.578  27.845  11.255  1.00  0.00     0.250 C 
HETATM   45  O8  UNL     1      21.270  26.806  11.882  1.00  0.00    -0.271 OA
HETATM   46  N5  UNL     1      22.802  27.968  10.573  1.00  0.00    -0.354 N 
ATOM     47  H5  UNL     1      23.014  28.833  10.075  1.00  0.00     0.162 HD
BRANCH  46  48
HETATM   48  C32 UNL     1      23.778  26.879  10.565  1.00  0.00     0.084 A 
HETATM   49  C33 UNL     1      25.182  27.189  10.960  1.00  0.00     0.027 A 
HETATM   50  C34 UNL     1      24.849  26.778   9.567  1.00  0.00     0.027 A 
ENDBRANCH  46  48
ENDBRANCH  27  44
ENDBRANCH   1  27
TORSDOF 16
ENDMDL
MODEL 3
REMARK VINA RESULT: -8.803623338      2.640     11.552
REMARK  16 active torsions:
REMARK  status: ('A' for Active; 'I' for Inactive)
REMARK    1  A    between atoms: C2_2  and  C3_3 
REMARK    2  A    between atoms: C3_3  and  C4_5 
REMARK    3  A    between atoms: C4_5  and  N1_6 
REMARK    4  A    between atoms: C4_5  and  C19_27 
REMARK       I    between atoms: N1_6  and  C5_8 
REMARK    5  A    between atoms: C5_8  and  C6_10 
REMARK    6  A    between atoms: C6_10  and  C7_11 
REMARK    7  A    between atoms: C6_10  and  N2_18 
REMARK    8  A    between atoms: C7_11  and  C8_12 
REMARK       I    between atoms: N2_18  and  C14_20 
REMARK    9  A    between atoms: C14_20  and  O4_22 
REMARK   10  A    between atoms: O4_22  and  C15_23 
REMARK   11  A    between atoms: C19_27  and  O5_28 
REMARK   12  A    between atoms: C19_27  and  C31_44 
REMARK   13  A    between atoms: O5_28  and  C20_29 
REMARK       I    between atoms: C20_29  and  N3_31 
REMARK   14  A    between atoms: N4_34  and  C23_35 
REMARK   15  A    between atoms: C23_35  and  C24_36 
REMARK       I    between atoms: C31_44  and  N5_46 
REMARK   16  A    between atoms: N5_46  and  C32_48 
ROOT
HETATM    1  C4  UNL     1      18.753  29.576  13.879  1.00  0.00     0.193 C 
ENDROOT
BRANCH   1   2
HETATM    2  C3  UNL     1      17.682  29.139  12.882  1.00  0.00     0.152 C 
HETATM    3  O1  UNL     1      17.267  27.970  12.892  1.00  0.00    -0.296 OA
BRANCH   2   4
HETATM    4  C2  UNL     1      17.104  30.060  11.883  1.00  0.00     0.076 C 
HETATM    5  C1  UNL     1      16.339  29.196  10.863  1.00  0.00     0.013 C 
ENDBRANCH   2   4
ENDBRANCH   1   2
BRANCH   1   6
HETATM    6  N1  UNL     1      18.687  30.998  14.048  1.00  0.00    -0.342 N 
HETATM    7  C5  UNL     1      18.925  31.694  15.225  1.00  0.00     0.264 C 
HETATM    8  O2  UNL     1      19.205  30.952  16.247  1.00  0.00    -0.266 OA
ATOM      9  H1  UNL     1      18.442  31.550  13.225  1.00  0.00     0.163 HD
BRANCH   7  10
HETATM   10  C6  UNL     1      18.906  33.121  15.510  1.00  0.00     0.082 C 
BRANCH  10  11
HETATM   11  C7  UNL     1      17.715  33.917  15.201  1.00  0.00     0.067 C 
BRANCH  11  12
HETATM   12  C8  UNL     1      16.876  34.384  16.356  1.00  0.00    -0.009 C 
HETATM   13  C9  UNL     1      16.394  35.810  16.139  1.00  0.00     0.005 C 
HETATM   14  C10 UNL     1      15.749  36.287  17.415  1.00  0.00     0.000 C 
HETATM   15  C11 UNL     1      14.623  35.383  17.881  1.00  0.00     0.000 C 
HETATM   16  C12 UNL     1      15.020  33.939  17.889  1.00  0.00     0.000 C 
HETATM   17  C13 UNL     1      15.632  33.537  16.536  1.00  0.00     0.005 C 
ENDBRANCH  11  12
ENDBRANCH  10  11
BRANCH  10  18
HETATM   18  N2  UNL     1      19.473  33.449  16.796  1.00  0.00    -0.301 N 
HETATM   19  C14 UNL     1      20.426  34.470  17.019  1.00  0.00     0.365 C 
HETATM   20  O3  UNL     1      20.899  35.215  16.136  1.00  0.00    -0.238 OA
ATOM     21  H2  UNL     1      19.164  32.905  17.602  1.00  0.00     0.171 HD
BRANCH  19  22
HETATM   22  O4  UNL     1      20.917  34.717  18.310  1.00  0.00    -0.294 OA
BRANCH  22  23
HETATM   23  C15 UNL     1      20.553  35.779  19.126  1.00  0.00     0.061 C 
HETATM   24  C16 UNL     1      20.791  35.368  20.574  1.00  0.00     0.046 C 
HETATM   25  C17 UNL     1      19.086  36.150  19.051  1.00  0.00     0.046 C 
HETATM   26  C18 UNL     1      21.387  37.013  18.865  1.00  0.00     0.046 C 
ENDBRANCH  22  23
ENDBRANCH  19  22
ENDBRANCH  10  18
ENDBRANCH   7  10
ENDBRANCH   1   6
BRANCH   1  27
HETATM   27  C19 UNL     1      20.082  29.104  13.364  1.00  0.00     0.255 C 
BRANCH  27  28
HETATM   28  O5  UNL     1      19.944  28.636  12.032  1.00  0.00    -0.286 OA
BRANCH  28  29
HETATM   29  C20 UNL     1      20.648  27.644  11.401  1.00  0.00     0.363 C 
HETATM   30  O6  UNL     1      21.519  27.038  12.070  1.00  0.00    -0.238 OA
HETATM   31  N3  UNL     1      20.434  27.285  10.060  1.00  0.00    -0.325 N 
HETATM   32  C21 UNL     1      19.424  27.961   9.266  1.00  0.00     0.158 C 
HETATM   33  C30 UNL     1      21.153  26.236   9.409  1.00  0.00     0.158 C 
HETATM   34  C22 UNL     1      18.451  26.893   8.728  1.00  0.00     0.292 C 
HETATM   35  N4  UNL     1      19.150  25.947   7.953  1.00  0.00     0.091 N 
HETATM   36  C29 UNL     1      20.569  25.925   8.046  1.00  0.00     0.292 C 
BRANCH  35  37
HETATM   37  C23 UNL     1      18.663  24.591   8.035  1.00  0.00     0.277 C 
BRANCH  37  38
HETATM   38  C24 UNL     1      17.200  24.460   7.741  1.00  0.00     0.018 C 
HETATM   39  C25 UNL     1      16.811  23.010   7.900  1.00  0.00     0.032 C 
HETATM   40  C26 UNL     1      16.870  22.234   6.591  1.00  0.00     0.168 C 
HETATM   41  O7  UNL     1      16.100  22.765   5.591  1.00  0.00    -0.391 OA
HETATM   42  C27 UNL     1      15.776  24.091   5.711  1.00  0.00     0.168 C 
HETATM   43  C28 UNL     1      16.900  24.887   6.337  1.00  0.00     0.032 C 
ENDBRANCH  37  38
ENDBRANCH  35  37
ENDBRANCH  28  29
ENDBRANCH  27  28
BRANCH  27  44
HETATM   44  C31 UNL     1      21.104  30.187  13.320  1.00  0.00     0.250 C 
HETATM   45  O8  UNL     1      21.221  30.841  12.258  1.00  0.00    -0.271 OA
HETATM   46  N5  UNL     1      21.902  30.449  14.449  1.00  0.00    -0.354 N 
ATOM     47  H5  UNL     1      21.774  29.892  15.293  1.00  0.00     0.162 HD
BRANCH  46  48
HETATM   48  C32 UNL     1      22.913  31.506  14.433  1.00  0.00     0.084 A 
HETATM   49  C33 UNL     1      22.984  32.428  15.602  1.00  0.00     0.027 A 
HETATM   50  C34 UNL     1      22.578  32.924  14.257  1.00  0.00     0.027 A 
ENDBRANCH  46  48
ENDBRANCH  27  44
ENDBRANCH   1  27
TORSDOF 16
ENDMDL
MODEL 4
REMARK VINA RESULT: -8.718988782      1.207      3.536
REMARK  16 active torsions:
REMARK  status: ('A' for Active; 'I' for Inactive)
REMARK    1  A    between atoms: C2_2  and  C3_3 
REMARK    2  A    between atoms: C3_3  and  C4_5 
REMARK    3  A    between atoms: C4_5  and  N1_6 
REMARK    4  A    between atoms: C4_5  and  C19_27 
REMARK       I    between atoms: N1_6  and  C5_8 
REMARK    5  A    between atoms: C5_8  and  C6_10 
REMARK    6  A    between atoms: C6_10  and  C7_11 
REMARK    7  A    between atoms: C6_10  and  N2_18 
REMARK    8  A    between atoms: C7_11  and  C8_12 
REMARK       I    between atoms: N2_18  and  C14_20 
REMARK    9  A    between atoms: C14_20  and  O4_22 
REMARK   10  A    between atoms: O4_22  and  C15_23 
REMARK   11  A    between atoms: C19_27  and  O5_28 
REMARK   12  A    between atoms: C19_27  and  C31_44 
REMARK   13  A    between atoms: O5_28  and  C20_29 
REMARK       I    between atoms: C20_29  and  N3_31 
REMARK   14  A    between atoms: N4_34  and  C23_35 
REMARK   15  A    between atoms: C23_35  and  C24_36 
REMARK       I    between atoms: C31_44  and  N5_46 
REMARK   16  A    between atoms: N5_46  and  C32_48 
ROOT
HETATM    1  C4  UNL     1      19.495  28.805  10.675  1.00  0.00     0.193 C 
ENDROOT
BRANCH   1   2
HETATM    2  C3  UNL     1      18.338  28.480  11.616  1.00  0.00     0.152 C 
HETATM    3  O1  UNL     1      18.318  27.397  12.223  1.00  0.00    -0.296 OA
BRANCH   2   4
HETATM    4  C2  UNL     1      17.214  29.410  11.844  1.00  0.00     0.076 C 
HETATM    5  C1  UNL     1      16.365  29.414  10.559  1.00  0.00     0.013 C 
ENDBRANCH   2   4
ENDBRANCH   1   2
BRANCH   1   6
HETATM    6  N1  UNL     1      19.931  27.602  10.030  1.00  0.00    -0.342 N 
HETATM    7  C5  UNL     1      19.708  27.257   8.703  1.00  0.00     0.264 C 
HETATM    8  O2  UNL     1      19.017  28.118   8.029  1.00  0.00    -0.266 OA
ATOM      9  H1  UNL     1      20.454  26.936  10.599  1.00  0.00     0.163 HD
BRANCH   7  10
HETATM   10  C6  UNL     1      20.112  26.086   7.941  1.00  0.00     0.082 C 
BRANCH  10  11
HETATM   11  C7  UNL     1      20.752  24.953   8.617  1.00  0.00     0.067 C 
BRANCH  11  12
HETATM   12  C8  UNL     1      22.143  24.588   8.184  1.00  0.00    -0.009 C 
HETATM   13  C9  UNL     1      22.114  23.523   7.097  1.00  0.00     0.005 C 
HETATM   14  C10 UNL     1      23.526  23.051   6.865  1.00  0.00     0.000 C 
HETATM   15  C11 UNL     1      24.477  24.180   6.514  1.00  0.00     0.000 C 
HETATM   16  C12 UNL     1      24.357  25.337   7.458  1.00  0.00     0.000 C 
HETATM   17  C13 UNL     1      22.888  25.771   7.601  1.00  0.00     0.005 C 
ENDBRANCH  11  12
ENDBRANCH  10  11
BRANCH  10  18
HETATM   18  N2  UNL     1      19.122  25.668   6.978  1.00  0.00    -0.301 N 
HETATM   19  C14 UNL     1      19.319  25.652   5.577  1.00  0.00     0.365 C 
HETATM   20  O3  UNL     1      20.369  25.997   4.996  1.00  0.00    -0.238 OA
ATOM     21  H2  UNL     1      18.215  25.364   7.332  1.00  0.00     0.171 HD
BRANCH  19  22
HETATM   22  O4  UNL     1      18.295  25.224   4.719  1.00  0.00    -0.294 OA
BRANCH  22  23
HETATM   23  C15 UNL     1      17.335  26.039   4.132  1.00  0.00     0.061 C 
HETATM   24  C16 UNL     1      17.649  26.145   2.645  1.00  0.00     0.046 C 
HETATM   25  C17 UNL     1      17.331  27.465   4.644  1.00  0.00     0.046 C 
HETATM   26  C18 UNL     1      15.943  25.465   4.259  1.00  0.00     0.046 C 
ENDBRANCH  22  23
ENDBRANCH  19  22
ENDBRANCH  10  18
ENDBRANCH   7  10
ENDBRANCH   1   6
BRANCH   1  27
HETATM   27  C19 UNL     1      20.575  29.466  11.483  1.00  0.00     0.255 C 
BRANCH  27  28
HETATM   28  O5  UNL     1      20.011  30.074  12.634  1.00  0.00    -0.286 OA
BRANCH  28  29
HETATM   29  C20 UNL     1      20.330  31.278  13.204  1.00  0.00     0.363 C 
HETATM   30  O6  UNL     1      21.272  31.929  12.691  1.00  0.00    -0.238 OA
HETATM   31  N3  UNL     1      19.653  31.805  14.316  1.00  0.00    -0.325 N 
HETATM   32  C21 UNL     1      18.551  31.080  14.922  1.00  0.00     0.158 C 
HETATM   33  C30 UNL     1      19.971  33.071  14.895  1.00  0.00     0.158 C 
HETATM   34  C22 UNL     1      17.315  32.002  14.915  1.00  0.00     0.292 C 
HETATM   35  N4  UNL     1      17.591  33.186  15.627  1.00  0.00     0.091 N 
HETATM   36  C29 UNL     1      18.947  33.480  15.935  1.00  0.00     0.292 C 
BRANCH  35  37
HETATM   37  C23 UNL     1      16.966  34.381  15.114  1.00  0.00     0.277 C 
BRANCH  37  38
HETATM   38  C24 UNL     1      15.861  34.901  15.982  1.00  0.00     0.018 C 
HETATM   39  C25 UNL     1      16.395  36.061  16.787  1.00  0.00     0.032 C 
HETATM   40  C26 UNL     1      16.911  35.643  18.158  1.00  0.00     0.168 C 
HETATM   41  O7  UNL     1      15.987  34.990  18.928  1.00  0.00    -0.391 OA
HETATM   42  C27 UNL     1      14.945  34.401  18.260  1.00  0.00     0.168 C 
HETATM   43  C28 UNL     1      15.382  33.841  16.924  1.00  0.00     0.032 C 
ENDBRANCH  37  38
ENDBRANCH  35  37
ENDBRANCH  28  29
ENDBRANCH  27  28
BRANCH  27  44
HETATM   44  C31 UNL     1      21.598  28.504  11.979  1.00  0.00     0.250 C 
HETATM   45  O8  UNL     1      21.361  27.894  13.047  1.00  0.00    -0.271 OA
HETATM   46  N5  UNL     1      22.787  28.305  11.255  1.00  0.00    -0.354 N 
ATOM     47  H5  UNL     1      22.940  28.824  10.390  1.00  0.00     0.162 HD
BRANCH  46  48
HETATM   48  C32 UNL     1      23.809  27.367  11.719  1.00  0.00     0.084 A 
HETATM   49  C33 UNL     1      24.988  27.121  10.841  1.00  0.00     0.027 A 
HETATM   50  C34 UNL     1      24.001  26.040  11.121  1.00  0.00     0.027 A 
ENDBRANCH  46  48
ENDBRANCH  27  44
ENDBRANCH   1  27
TORSDOF 16
ENDMDL
MODEL 5
REMARK VINA RESULT: -8.712530278      2.334     10.300
REMARK  16 active torsions:
REMARK  status: ('A' for Active; 'I' for Inactive)
REMARK    1  A    between atoms: C2_2  and  C3_3 
REMARK    2  A    between atoms: C3_3  and  C4_5 
REMARK    3  A    between atoms: C4_5  and  N1_6 
REMARK    4  A    between atoms: C4_5  and  C19_27 
REMARK       I    between atoms: N1_6  and  C5_8 
REMARK    5  A    between atoms: C5_8  and  C6_10 
REMARK    6  A    between atoms: C6_10  and  C7_11 
REMARK    7  A    between atoms: C6_10  and  N2_18 
REMARK    8  A    between atoms: C7_11  and  C8_12 
REMARK       I    between atoms: N2_18  and  C14_20 
REMARK    9  A    between atoms: C14_20  and  O4_22 
REMARK   10  A    between atoms: O4_22  and  C15_23 
REMARK   11  A    between atoms: C19_27  and  O5_28 
REMARK   12  A    between atoms: C19_27  and  C31_44 
REMARK   13  A    between atoms: O5_28  and  C20_29 
REMARK       I    between atoms: C20_29  and  N3_31 
REMARK   14  A    between atoms: N4_34  and  C23_35 
REMARK   15  A    between atoms: C23_35  and  C24_36 
REMARK       I    between atoms: C31_44  and  N5_46 
REMARK   16  A    between atoms: N5_46  and  C32_48 
ROOT
HETATM    1  C4  UNL     1      19.141  26.916  11.013  1.00  0.00     0.193 C 
ENDROOT
BRANCH   1   2
HETATM    2  C3  UNL     1      17.939  26.470  10.185  1.00  0.00     0.152 C 
HETATM    3  O1  UNL     1      17.085  27.300   9.836  1.00  0.00    -0.296 OA
BRANCH   2   4
HETATM    4  C2  UNL     1      17.736  25.067   9.771  1.00  0.00     0.076 C 
HETATM    5  C1  UNL     1      17.518  24.245  11.055  1.00  0.00     0.013 C 
ENDBRANCH   2   4
ENDBRANCH   1   2
BRANCH   1   6
HETATM    6  N1  UNL     1      19.061  28.330  11.236  1.00  0.00    -0.342 N 
HETATM    7  C5  UNL     1      18.609  28.951  12.394  1.00  0.00     0.264 C 
HETATM    8  O2  UNL     1      18.210  28.144  13.322  1.00  0.00    -0.266 OA
ATOM      9  H1  UNL     1      19.364  28.937  10.474  1.00  0.00     0.163 HD
BRANCH   7  10
HETATM   10  C6  UNL     1      18.500  30.360  12.739  1.00  0.00     0.082 C 
BRANCH  10  11
HETATM   11  C7  UNL     1      17.336  30.847  13.486  1.00  0.00     0.067 C 
BRANCH  11  12
HETATM   12  C8  UNL     1      17.573  31.912  14.517  1.00  0.00    -0.009 C 
HETATM   13  C9  UNL     1      16.477  32.967  14.473  1.00  0.00     0.005 C 
HETATM   14  C10 UNL     1      16.885  34.105  15.372  1.00  0.00     0.000 C 
HETATM   15  C11 UNL     1      17.174  33.661  16.795  1.00  0.00     0.000 C 
HETATM   16  C12 UNL     1      18.085  32.474  16.844  1.00  0.00     0.000 C 
HETATM   17  C13 UNL     1      17.568  31.353  15.926  1.00  0.00     0.005 C 
ENDBRANCH  11  12
ENDBRANCH  10  11
BRANCH  10  18
HETATM   18  N2  UNL     1      19.740  30.924  13.217  1.00  0.00    -0.301 N 
HETATM   19  C14 UNL     1      20.473  31.936  12.554  1.00  0.00     0.365 C 
HETATM   20  O3  UNL     1      20.145  32.467  11.473  1.00  0.00    -0.238 OA
ATOM     21  H2  UNL     1      20.114  30.566  14.096  1.00  0.00     0.171 HD
BRANCH  19  22
HETATM   22  O4  UNL     1      21.669  32.423  13.101  1.00  0.00    -0.294 OA
BRANCH  22  23
HETATM   23  C15 UNL     1      21.923  32.616  14.452  1.00  0.00     0.061 C 
HETATM   24  C16 UNL     1      23.405  32.930  14.616  1.00  0.00     0.046 C 
HETATM   25  C17 UNL     1      21.675  31.394  15.314  1.00  0.00     0.046 C 
HETATM   26  C18 UNL     1      21.150  33.784  15.019  1.00  0.00     0.046 C 
ENDBRANCH  22  23
ENDBRANCH  19  22
ENDBRANCH  10  18
ENDBRANCH   7  10
ENDBRANCH   1   6
BRANCH   1  27
HETATM   27  C19 UNL     1      20.386  26.505  10.280  1.00  0.00     0.255 C 
BRANCH  27  28
HETATM   28  O5  UNL     1      20.373  27.050   8.969  1.00  0.00    -0.286 OA
BRANCH  28  29
HETATM   29  C20 UNL     1      20.626  26.415   7.782  1.00  0.00     0.363 C 
HETATM   30  O6  UNL     1      21.650  25.692   7.718  1.00  0.00    -0.238 OA
HETATM   31  N3  UNL     1      19.795  26.536   6.655  1.00  0.00    -0.325 N 
HETATM   32  C21 UNL     1      18.598  27.355   6.704  1.00  0.00     0.158 C 
HETATM   33  C30 UNL     1      20.046  25.856   5.425  1.00  0.00     0.158 C 
HETATM   34  C22 UNL     1      17.398  26.464   6.326  1.00  0.00     0.292 C 
HETATM   35  N4  UNL     1      17.584  25.921   5.040  1.00  0.00     0.091 N 
HETATM   36  C29 UNL     1      18.882  25.996   4.465  1.00  0.00     0.292 C 
BRANCH  35  37
HETATM   37  C23 UNL     1      17.072  24.586   4.846  1.00  0.00     0.277 C 
BRANCH  37  38
HETATM   38  C24 UNL     1      16.852  23.836   6.124  1.00  0.00     0.018 C 
HETATM   39  C25 UNL     1      18.004  22.880   6.319  1.00  0.00     0.032 C 
HETATM   40  C26 UNL     1      17.719  21.489   5.768  1.00  0.00     0.168 C 
HETATM   41  O7  UNL     1      16.597  20.901   6.286  1.00  0.00    -0.391 OA
HETATM   42  C27 UNL     1      15.663  21.745   6.829  1.00  0.00     0.168 C 
HETATM   43  C28 UNL     1      15.579  23.050   6.067  1.00  0.00     0.032 C 
ENDBRANCH  37  38
ENDBRANCH  35  37
ENDBRANCH  28  29
ENDBRANCH  27  28
BRANCH  27  44
HETATM   44  C31 UNL     1      21.631  27.004  10.926  1.00  0.00     0.250 C 
HETATM   45  O8  UNL     1      21.587  27.285  12.147  1.00  0.00    -0.271 OA
HETATM   46  N5  UNL     1      22.808  27.149  10.170  1.00  0.00    -0.354 N 
ATOM     47  H5  UNL     1      22.799  26.909   9.179  1.00  0.00     0.162 HD
BRANCH  46  48
HETATM   48  C32 UNL     1      24.045  27.637  10.779  1.00  0.00     0.084 A 
HETATM   49  C33 UNL     1      25.335  27.049  10.319  1.00  0.00     0.027 A 
HETATM   50  C34 UNL     1      24.844  26.833  11.710  1.00  0.00     0.027 A 
ENDBRANCH  46  48
ENDBRANCH  27  44
ENDBRANCH   1  27
TORSDOF 16
ENDMDL
