MODEL 1
REMARK VINA RESULT: -7.787997210      0.000      0.000
REMARK  15 active torsions:
REMARK  status: ('A' for Active; 'I' for Inactive)
REMARK    1  A    between atoms: C2_2  and  C3_3 
REMARK    2  A    between atoms: C3_3  and  C4_4 
REMARK    3  A    between atoms: C4_4  and  C5_5 
REMARK    4  A    between atoms: C5_5  and  O1_6 
REMARK    5  A    between atoms: O1_6  and  C6_7 
REMARK       I    between atoms: C6_7  and  N1_9 
REMARK       I    between atoms: N2_12  and  C9_13 
REMARK    6  A    between atoms: C9_13  and  C10_15 
REMARK    7  A    between atoms: C10_15  and  N3_16 
REMARK    8  A    between atoms: C10_15  and  C17_27 
REMARK       I    between atoms: N3_16  and  C11_18 
REMARK    9  A    between atoms: C11_18  and  O5_20 
REMARK   10  A    between atoms: O5_20  and  N4_21 
REMARK   11  A    between atoms: C18_28  and  O6_29 
REMARK   12  A    between atoms: O6_29  and  C19_30 
REMARK   13  A    between atoms: C22_33  and  C23_34 
REMARK       I    between atoms: C23_34  and  N5_36 
REMARK       I    between atoms: N5_36  and  C24_38 
REMARK   14  A    between atoms: C24_38  and  C25_40 
REMARK   15  A    between atoms: C25_40  and  C27_42 
ROOT
HETATM    1  C10 UNL     1      19.338  32.512  15.709  1.00  0.00     0.186 C 
ENDROOT
BRANCH   1   2
HETATM    2  C9  UNL     1      20.463  32.772  16.683  1.00  0.00     0.243 C 
HETATM    3  N2  UNL     1      20.949  34.016  17.050  1.00  0.00    -0.347 N 
HETATM    4  C8  UNL     1      20.335  35.229  16.578  1.00  0.00     0.146 C 
HETATM    5  C32 UNL     1      22.099  34.131  17.917  1.00  0.00     0.146 C 
HETATM    6  C7  UNL     1      21.256  36.424  16.753  1.00  0.00     0.148 C 
HETATM    7  N1  UNL     1      21.728  36.489  18.132  1.00  0.00    -0.325 N 
HETATM    8  C6  UNL     1      21.944  37.767  18.712  1.00  0.00     0.362 C 
HETATM    9  C33 UNL     1      21.967  35.284  18.890  1.00  0.00     0.148 C 
HETATM   10  O2  UNL     1      22.361  37.879  19.913  1.00  0.00    -0.238 OA
HETATM   11  O3  UNL     1      20.978  31.733  17.191  1.00  0.00    -0.271 OA
BRANCH   8  12
HETATM   12  O1  UNL     1      21.714  38.928  18.010  1.00  0.00    -0.304 OA
BRANCH  12  13
HETATM   13  C5  UNL     1      20.965  40.033  18.462  1.00  0.00     0.180 C 
BRANCH  13  14
HETATM   14  C4  UNL     1      19.490  39.821  18.490  1.00  0.00     0.027 C 
BRANCH  14  15
HETATM   15  C3  UNL     1      19.013  39.745  17.054  1.00  0.00     0.002 C 
BRANCH  15  16
HETATM   16  C2  UNL     1      18.273  40.987  16.630  1.00  0.00    -0.004 C 
HETATM   17  C1  UNL     1      16.818  40.824  17.030  1.00  0.00     0.005 C 
ENDBRANCH  15  16
ENDBRANCH  14  15
ENDBRANCH  13  14
ENDBRANCH  12  13
ENDBRANCH   8  12
ENDBRANCH   1   2
BRANCH   1  18
HETATM   18  N3  UNL     1      18.149  32.847  16.532  1.00  0.00    -0.322 N 
HETATM   19  C11 UNL     1      17.179  33.771  16.109  1.00  0.00     0.383 C 
HETATM   20  O4  UNL     1      17.242  34.382  15.004  1.00  0.00    -0.236 OA
ATOM     21  H3  UNL     1      18.033  32.390  17.436  1.00  0.00     0.165 HD
BRANCH  19  22
HETATM   22  O5  UNL     1      16.100  34.039  16.912  1.00  0.00    -0.175 OA
BRANCH  22  23
HETATM   23  N4  UNL     1      16.019  35.001  17.856  1.00  0.00    -0.242 N 
HETATM   24  C12 UNL     1      15.058  35.981  17.610  1.00  0.00     0.096 C 
HETATM   25  C13 UNL     1      15.449  37.401  17.876  1.00  0.00     0.047 C 
HETATM   26  C14 UNL     1      16.359  37.537  19.077  1.00  0.00     0.010 C 
HETATM   27  C15 UNL     1      17.579  36.688  18.755  1.00  0.00     0.047 C 
HETATM   28  C16 UNL     1      17.145  35.274  18.625  1.00  0.00     0.096 C 
ENDBRANCH  22  23
ENDBRANCH  19  22
ENDBRANCH   1  18
BRANCH   1  29
HETATM   29  C17 UNL     1      19.337  31.049  15.439  1.00  0.00     0.055 C 
HETATM   30  C18 UNL     1      20.540  30.444  14.793  1.00  0.00     0.129 C 
HETATM   31  C21 UNL     1      20.050  28.927  14.788  1.00  0.00     0.047 C 
HETATM   32  C22 UNL     1      18.640  29.070  14.358  1.00  0.00     0.089 C 
HETATM   33  C29 UNL     1      18.245  30.496  14.586  1.00  0.00    -0.027 C 
HETATM   34  C30 UNL     1      18.127  31.259  13.279  1.00  0.00     0.016 C 
HETATM   35  C31 UNL     1      16.907  30.488  15.319  1.00  0.00     0.016 C 
BRANCH  30  36
HETATM   36  O6  UNL     1      20.787  30.775  13.492  1.00  0.00    -0.386 OA
BRANCH  36  37
HETATM   37  C19 UNL     1      21.680  31.782  13.255  1.00  0.00     0.163 C 
HETATM   38  C20 UNL     1      22.799  31.857  14.303  1.00  0.00     0.033 C 
ENDBRANCH  36  37
ENDBRANCH  30  36
BRANCH  32  39
HETATM   39  C23 UNL     1      18.410  28.584  12.969  1.00  0.00     0.229 C 
HETATM   40  O7  UNL     1      17.217  28.317  12.671  1.00  0.00    -0.273 OA
HETATM   41  N5  UNL     1      19.404  28.413  12.008  1.00  0.00    -0.297 N 
HETATM   42  C24 UNL     1      19.272  27.986  10.681  1.00  0.00     0.228 C 
ATOM     43  H5  UNL     1      20.354  28.628  12.310  1.00  0.00     0.171 HD
HETATM   44  O8  UNL     1      20.338  27.942   9.959  1.00  0.00    -0.273 OA
BRANCH  42  45
HETATM   45  C25 UNL     1      18.039  27.568   9.994  1.00  0.00     0.074 C 
HETATM   46  C26 UNL     1      18.039  28.117   8.550  1.00  0.00     0.020 C 
BRANCH  45  47
HETATM   47  C27 UNL     1      18.136  26.048   9.779  1.00  0.00     0.009 C 
HETATM   48  C28 UNL     1      17.861  25.307  11.049  1.00  0.00     0.006 C 
ENDBRANCH  45  47
ENDBRANCH  42  45
ENDBRANCH  32  39
ENDBRANCH   1  29
TORSDOF 15
ENDMDL
MODEL 2
REMARK VINA RESULT: -7.672660056      0.915      1.149
REMARK  15 active torsions:
REMARK  status: ('A' for Active; 'I' for Inactive)
REMARK    1  A    between atoms: C2_2  and  C3_3 
REMARK    2  A    between atoms: C3_3  and  C4_4 
REMARK    3  A    between atoms: C4_4  and  C5_5 
REMARK    4  A    between atoms: C5_5  and  O1_6 
REMARK    5  A    between atoms: O1_6  and  C6_7 
REMARK       I    between atoms: C6_7  and  N1_9 
REMARK       I    between atoms: N2_12  and  C9_13 
REMARK    6  A    between atoms: C9_13  and  C10_15 
REMARK    7  A    between atoms: C10_15  and  N3_16 
REMARK    8  A    between atoms: C10_15  and  C17_27 
REMARK       I    between atoms: N3_16  and  C11_18 
REMARK    9  A    between atoms: C11_18  and  O5_20 
REMARK   10  A    between atoms: O5_20  and  N4_21 
REMARK   11  A    between atoms: C18_28  and  O6_29 
REMARK   12  A    between atoms: O6_29  and  C19_30 
REMARK   13  A    between atoms: C22_33  and  C23_34 
REMARK       I    between atoms: C23_34  and  N5_36 
REMARK       I    between atoms: N5_36  and  C24_38 
REMARK   14  A    between atoms: C24_38  and  C25_40 
REMARK   15  A    between atoms: C25_40  and  C27_42 
ROOT
HETATM    1  C10 UNL     1      19.356  32.514  15.726  1.00  0.00     0.186 C 
ENDROOT
BRANCH   1   2
HETATM    2  C9  UNL     1      20.483  32.775  16.697  1.00  0.00     0.243 C 
HETATM    3  N2  UNL     1      20.974  34.019  17.056  1.00  0.00    -0.347 N 
HETATM    4  C8  UNL     1      20.363  35.232  16.579  1.00  0.00     0.146 C 
HETATM    5  C32 UNL     1      22.126  34.135  17.920  1.00  0.00     0.146 C 
HETATM    6  C7  UNL     1      21.287  36.425  16.747  1.00  0.00     0.148 C 
HETATM    7  N1  UNL     1      21.762  36.495  18.124  1.00  0.00    -0.325 N 
HETATM    8  C6  UNL     1      21.982  37.776  18.697  1.00  0.00     0.362 C 
HETATM    9  C33 UNL     1      21.999  35.294  18.888  1.00  0.00     0.148 C 
HETATM   10  O2  UNL     1      22.402  37.893  19.897  1.00  0.00    -0.238 OA
HETATM   11  O3  UNL     1      20.996  31.737  17.209  1.00  0.00    -0.271 OA
BRANCH   8  12
HETATM   12  O1  UNL     1      21.754  38.934  17.989  1.00  0.00    -0.304 OA
BRANCH  12  13
HETATM   13  C5  UNL     1      20.577  39.707  18.026  1.00  0.00     0.180 C 
BRANCH  13  14
HETATM   14  C4  UNL     1      19.853  39.809  16.727  1.00  0.00     0.027 C 
BRANCH  14  15
HETATM   15  C3  UNL     1      20.581  40.834  15.879  1.00  0.00     0.002 C 
BRANCH  15  16
HETATM   16  C2  UNL     1      21.302  40.204  14.716  1.00  0.00    -0.004 C 
HETATM   17  C1  UNL     1      22.333  41.198  14.211  1.00  0.00     0.005 C 
ENDBRANCH  15  16
ENDBRANCH  14  15
ENDBRANCH  13  14
ENDBRANCH  12  13
ENDBRANCH   8  12
ENDBRANCH   1   2
BRANCH   1  18
HETATM   18  N3  UNL     1      18.169  32.838  16.555  1.00  0.00    -0.322 N 
HETATM   19  C11 UNL     1      17.199  33.770  16.147  1.00  0.00     0.383 C 
HETATM   20  O4  UNL     1      17.262  34.396  15.050  1.00  0.00    -0.236 OA
ATOM     21  H3  UNL     1      18.053  32.368  17.452  1.00  0.00     0.165 HD
BRANCH  19  22
HETATM   22  O5  UNL     1      16.122  34.028  16.955  1.00  0.00    -0.175 OA
BRANCH  22  23
HETATM   23  N4  UNL     1      16.029  35.002  17.886  1.00  0.00    -0.242 N 
HETATM   24  C12 UNL     1      15.026  35.940  17.650  1.00  0.00     0.096 C 
HETATM   25  C13 UNL     1      15.370  37.379  17.883  1.00  0.00     0.047 C 
HETATM   26  C14 UNL     1      16.305  37.569  19.057  1.00  0.00     0.010 C 
HETATM   27  C15 UNL     1      17.547  36.760  18.716  1.00  0.00     0.047 C 
HETATM   28  C16 UNL     1      17.163  35.329  18.619  1.00  0.00     0.096 C 
ENDBRANCH  22  23
ENDBRANCH  19  22
ENDBRANCH   1  18
BRANCH   1  29
HETATM   29  C17 UNL     1      19.362  31.052  15.450  1.00  0.00     0.055 C 
HETATM   30  C18 UNL     1      20.562  30.457  14.787  1.00  0.00     0.129 C 
HETATM   31  C21 UNL     1      20.082  28.937  14.781  1.00  0.00     0.047 C 
HETATM   32  C22 UNL     1      18.665  29.072  14.367  1.00  0.00     0.089 C 
HETATM   33  C29 UNL     1      18.264  30.495  14.605  1.00  0.00    -0.027 C 
HETATM   34  C30 UNL     1      18.127  31.263  13.303  1.00  0.00     0.016 C 
HETATM   35  C31 UNL     1      16.934  30.475  15.353  1.00  0.00     0.016 C 
BRANCH  30  36
HETATM   36  O6  UNL     1      20.792  30.795  13.486  1.00  0.00    -0.386 OA
BRANCH  36  37
HETATM   37  C19 UNL     1      21.689  31.797  13.243  1.00  0.00     0.163 C 
HETATM   38  C20 UNL     1      22.800  31.884  14.298  1.00  0.00     0.033 C 
ENDBRANCH  36  37
ENDBRANCH  30  36
BRANCH  32  39
HETATM   39  C23 UNL     1      18.424  28.591  12.979  1.00  0.00     0.229 C 
HETATM   40  O7  UNL     1      17.228  28.325  12.690  1.00  0.00    -0.273 OA
HETATM   41  N5  UNL     1      19.410  28.423  12.008  1.00  0.00    -0.297 N 
HETATM   42  C24 UNL     1      19.266  28.001  10.682  1.00  0.00     0.228 C 
ATOM     43  H5  UNL     1      20.362  28.637  12.303  1.00  0.00     0.171 HD
HETATM   44  O8  UNL     1      20.326  27.959   9.950  1.00  0.00    -0.273 OA
BRANCH  42  45
HETATM   45  C25 UNL     1      18.027  27.585  10.004  1.00  0.00     0.074 C 
HETATM   46  C26 UNL     1      18.021  28.129   8.557  1.00  0.00     0.020 C 
BRANCH  45  47
HETATM   47  C27 UNL     1      18.117  26.064   9.793  1.00  0.00     0.009 C 
HETATM   48  C28 UNL     1      17.865  25.328  11.070  1.00  0.00     0.006 C 
ENDBRANCH  45  47
ENDBRANCH  42  45
ENDBRANCH  32  39
ENDBRANCH   1  29
TORSDOF 15
ENDMDL
MODEL 3
REMARK VINA RESULT: -7.626275991      2.782     10.946
REMARK  15 active torsions:
REMARK  status: ('A' for Active; 'I' for Inactive)
REMARK    1  A    between atoms: C2_2  and  C3_3 
REMARK    2  A    between atoms: C3_3  and  C4_4 
REMARK    3  A    between atoms: C4_4  and  C5_5 
REMARK    4  A    between atoms: C5_5  and  O1_6 
REMARK    5  A    between atoms: O1_6  and  C6_7 
REMARK       I    between atoms: C6_7  and  N1_9 
REMARK       I    between atoms: N2_12  and  C9_13 
REMARK    6  A    between atoms: C9_13  and  C10_15 
REMARK    7  A    between atoms: C10_15  and  N3_16 
REMARK    8  A    between atoms: C10_15  and  C17_27 
REMARK       I    between atoms: N3_16  and  C11_18 
REMARK    9  A    between atoms: C11_18  and  O5_20 
REMARK   10  A    between atoms: O5_20  and  N4_21 
REMARK   11  A    between atoms: C18_28  and  O6_29 
REMARK   12  A    between atoms: O6_29  and  C19_30 
REMARK   13  A    between atoms: C22_33  and  C23_34 
REMARK       I    between atoms: C23_34  and  N5_36 
REMARK       I    between atoms: N5_36  and  C24_38 
REMARK   14  A    between atoms: C24_38  and  C25_40 
REMARK   15  A    between atoms: C25_40  and  C27_42 
ROOT
HETATM    1  C10 UNL     1      19.902  28.928  13.688  1.00  0.00     0.186 C 
ENDROOT
BRANCH   1   2
HETATM    2  C9  UNL     1      21.329  28.580  13.332  1.00  0.00     0.243 C 
HETATM    3  N2  UNL     1      21.734  27.825  12.245  1.00  0.00    -0.347 N 
HETATM    4  C8  UNL     1      20.789  27.357  11.264  1.00  0.00     0.146 C 
HETATM    5  C32 UNL     1      23.124  27.475  12.068  1.00  0.00     0.146 C 
HETATM    6  C7  UNL     1      21.370  26.233  10.424  1.00  0.00     0.148 C 
HETATM    7  N1  UNL     1      22.656  26.639   9.871  1.00  0.00    -0.325 N 
HETATM    8  C6  UNL     1      23.018  26.163   8.583  1.00  0.00     0.362 C 
HETATM    9  C33 UNL     1      23.540  27.508  10.611  1.00  0.00     0.148 C 
HETATM   10  O2  UNL     1      24.134  26.485   8.055  1.00  0.00    -0.238 OA
HETATM   11  O3  UNL     1      22.203  29.045  14.122  1.00  0.00    -0.271 OA
BRANCH   8  12
HETATM   12  O1  UNL     1      22.187  25.341   7.856  1.00  0.00    -0.304 OA
BRANCH  12  13
HETATM   13  C5  UNL     1      21.591  25.653   6.618  1.00  0.00     0.180 C 
BRANCH  13  14
HETATM   14  C4  UNL     1      20.289  26.373   6.712  1.00  0.00     0.027 C 
BRANCH  14  15
HETATM   15  C3  UNL     1      19.701  26.433   5.316  1.00  0.00     0.002 C 
BRANCH  15  16
HETATM   16  C2  UNL     1      18.267  26.897   5.320  1.00  0.00    -0.004 C 
HETATM   17  C1  UNL     1      18.194  28.183   6.124  1.00  0.00     0.005 C 
ENDBRANCH  15  16
ENDBRANCH  14  15
ENDBRANCH  13  14
ENDBRANCH  12  13
ENDBRANCH   8  12
ENDBRANCH   1   2
BRANCH   1  18
HETATM   18  N3  UNL     1      19.147  28.168  12.662  1.00  0.00    -0.322 N 
HETATM   19  C11 UNL     1      17.972  27.459  12.966  1.00  0.00     0.383 C 
HETATM   20  O4  UNL     1      17.471  27.416  14.126  1.00  0.00    -0.236 OA
ATOM     21  H3  UNL     1      19.493  28.159  11.703  1.00  0.00     0.165 HD
BRANCH  19  22
HETATM   22  O5  UNL     1      17.315  26.776  11.975  1.00  0.00    -0.175 OA
BRANCH  22  23
HETATM   23  N4  UNL     1      17.879  26.011  11.015  1.00  0.00    -0.242 N 
HETATM   24  C12 UNL     1      17.683  26.470   9.713  1.00  0.00     0.096 C 
HETATM   25  C13 UNL     1      17.341  25.448   8.674  1.00  0.00     0.047 C 
HETATM   26  C14 UNL     1      18.051  24.132   8.899  1.00  0.00     0.010 C 
HETATM   27  C15 UNL     1      17.614  23.671  10.281  1.00  0.00     0.047 C 
HETATM   28  C16 UNL     1      18.090  24.663  11.278  1.00  0.00     0.096 C 
ENDBRANCH  22  23
ENDBRANCH  19  22
ENDBRANCH   1  18
BRANCH   1  29
HETATM   29  C17 UNL     1      19.739  30.383  13.423  1.00  0.00     0.055 C 
HETATM   30  C18 UNL     1      20.635  31.342  14.138  1.00  0.00     0.129 C 
HETATM   31  C21 UNL     1      20.093  32.687  13.476  1.00  0.00     0.047 C 
HETATM   32  C22 UNL     1      18.628  32.464  13.503  1.00  0.00     0.089 C 
HETATM   33  C29 UNL     1      18.402  30.995  13.679  1.00  0.00    -0.027 C 
HETATM   34  C30 UNL     1      17.905  30.669  15.075  1.00  0.00     0.016 C 
HETATM   35  C31 UNL     1      17.376  30.562  12.636  1.00  0.00     0.016 C 
BRANCH  30  36
HETATM   36  O6  UNL     1      20.462  31.476  15.485  1.00  0.00    -0.386 OA
BRANCH  36  37
HETATM   37  C19 UNL     1      21.466  32.073  16.193  1.00  0.00     0.163 C 
HETATM   38  C20 UNL     1      22.772  32.207  15.398  1.00  0.00     0.033 C 
ENDBRANCH  36  37
ENDBRANCH  30  36
BRANCH  32  39
HETATM   39  C23 UNL     1      17.935  33.316  14.508  1.00  0.00     0.229 C 
HETATM   40  O7  UNL     1      16.724  33.566  14.275  1.00  0.00    -0.273 OA
HETATM   41  N5  UNL     1      18.527  33.837  15.658  1.00  0.00    -0.297 N 
HETATM   42  C24 UNL     1      17.945  34.622  16.660  1.00  0.00     0.228 C 
ATOM     43  H5  UNL     1      19.514  33.617  15.786  1.00  0.00     0.171 HD
HETATM   44  O8  UNL     1      18.684  34.957  17.661  1.00  0.00    -0.273 OA
BRANCH  42  45
HETATM   45  C25 UNL     1      16.563  35.127  16.713  1.00  0.00     0.074 C 
HETATM   46  C26 UNL     1      15.851  34.558  17.960  1.00  0.00     0.020 C 
BRANCH  45  47
HETATM   47  C27 UNL     1      16.644  36.631  17.026  1.00  0.00     0.009 C 
HETATM   48  C28 UNL     1      15.740  36.993  18.161  1.00  0.00     0.006 C 
ENDBRANCH  45  47
ENDBRANCH  42  45
ENDBRANCH  32  39
ENDBRANCH   1  29
TORSDOF 15
ENDMDL
MODEL 4
REMARK VINA RESULT: -7.578515337      2.779     11.416
REMARK  15 active torsions:
REMARK  status: ('A' for Active; 'I' for Inactive)
REMARK    1  A    between atoms: C2_2  and  C3_3 
REMARK    2  A    between atoms: C3_3  and  C4_4 
REMARK    3  A    between atoms: C4_4  and  C5_5 
REMARK    4  A    between atoms: C5_5  and  O1_6 
REMARK    5  A    between atoms: O1_6  and  C6_7 
REMARK       I    between atoms: C6_7  and  N1_9 
REMARK       I    between atoms: N2_12  and  C9_13 
REMARK    6  A    between atoms: C9_13  and  C10_15 
REMARK    7  A    between atoms: C10_15  and  N3_16 
REMARK    8  A    between atoms: C10_15  and  C17_27 
REMARK       I    between atoms: N3_16  and  C11_18 
REMARK    9  A    between atoms: C11_18  and  O5_20 
REMARK   10  A    between atoms: O5_20  and  N4_21 
REMARK   11  A    between atoms: C18_28  and  O6_29 
REMARK   12  A    between atoms: O6_29  and  C19_30 
REMARK   13  A    between atoms: C22_33  and  C23_34 
REMARK       I    between atoms: C23_34  and  N5_36 
REMARK       I    between atoms: N5_36  and  C24_38 
REMARK   14  A    between atoms: C24_38  and  C25_40 
REMARK   15  A    between atoms: C25_40  and  C27_42 
ROOT
HETATM    1  C10 UNL     1      19.737  30.241  12.962  1.00  0.00     0.186 C 
ENDROOT
BRANCH   1   2
HETATM    2  C9  UNL     1      18.952  28.950  12.985  1.00  0.00     0.243 C 
HETATM    3  N2  UNL     1      18.474  28.270  11.878  1.00  0.00    -0.347 N 
HETATM    4  C8  UNL     1      18.775  28.710  10.540  1.00  0.00     0.146 C 
HETATM    5  C32 UNL     1      17.648  27.096  12.034  1.00  0.00     0.146 C 
HETATM    6  C7  UNL     1      17.833  28.090   9.524  1.00  0.00     0.148 C 
HETATM    7  N1  UNL     1      17.811  26.640   9.687  1.00  0.00    -0.325 N 
HETATM    8  C6  UNL     1      17.652  25.834   8.529  1.00  0.00     0.362 C 
HETATM    9  C33 UNL     1      17.952  26.040  10.992  1.00  0.00     0.148 C 
HETATM   10  O2  UNL     1      17.622  24.561   8.617  1.00  0.00    -0.238 OA
HETATM   11  O3  UNL     1      18.737  28.479  14.140  1.00  0.00    -0.271 OA
BRANCH   8  12
HETATM   12  O1  UNL     1      17.525  26.385   7.275  1.00  0.00    -0.304 OA
BRANCH  12  13
HETATM   13  C5  UNL     1      18.289  26.046   6.141  1.00  0.00     0.180 C 
BRANCH  13  14
HETATM   14  C4  UNL     1      19.025  27.183   5.518  1.00  0.00     0.027 C 
BRANCH  14  15
HETATM   15  C3  UNL     1      18.139  28.409   5.618  1.00  0.00     0.002 C 
BRANCH  15  16
HETATM   16  C2  UNL     1      17.151  28.495   4.483  1.00  0.00    -0.004 C 
HETATM   17  C1  UNL     1      16.499  29.864   4.533  1.00  0.00     0.005 C 
ENDBRANCH  15  16
ENDBRANCH  14  15
ENDBRANCH  13  14
ENDBRANCH  12  13
ENDBRANCH   8  12
ENDBRANCH   1   2
BRANCH   1  18
HETATM   18  N3  UNL     1      21.013  29.802  12.344  1.00  0.00    -0.322 N 
HETATM   19  C11 UNL     1      21.924  28.967  13.014  1.00  0.00     0.383 C 
HETATM   20  O4  UNL     1      21.728  28.530  14.184  1.00  0.00    -0.236 OA
ATOM     21  H3  UNL     1      21.236  30.116  11.400  1.00  0.00     0.165 HD
BRANCH  19  22
HETATM   22  O5  UNL     1      23.087  28.593  12.392  1.00  0.00    -0.175 OA
BRANCH  22  23
HETATM   23  N4  UNL     1      23.385  27.365  11.914  1.00  0.00    -0.242 N 
HETATM   24  C12 UNL     1      24.720  27.186  11.557  1.00  0.00     0.096 C 
HETATM   25  C13 UNL     1      24.992  26.458  10.278  1.00  0.00     0.047 C 
HETATM   26  C14 UNL     1      23.998  25.347  10.020  1.00  0.00     0.010 C 
HETATM   27  C15 UNL     1      22.638  26.026   9.981  1.00  0.00     0.047 C 
HETATM   28  C16 UNL     1      22.374  26.622  11.315  1.00  0.00     0.096 C 
ENDBRANCH  22  23
ENDBRANCH  19  22
ENDBRANCH   1  18
BRANCH   1  29
HETATM   29  C17 UNL     1      19.994  30.609  14.380  1.00  0.00     0.055 C 
HETATM   30  C18 UNL     1      18.868  30.509  15.357  1.00  0.00     0.129 C 
HETATM   31  C21 UNL     1      19.668  30.946  16.664  1.00  0.00     0.047 C 
HETATM   32  C22 UNL     1      20.466  32.088  16.159  1.00  0.00     0.089 C 
HETATM   33  C29 UNL     1      20.500  31.984  14.666  1.00  0.00    -0.027 C 
HETATM   34  C30 UNL     1      19.625  33.039  14.012  1.00  0.00     0.016 C 
HETATM   35  C31 UNL     1      21.951  32.152  14.229  1.00  0.00     0.016 C 
BRANCH  30  36
HETATM   36  O6  UNL     1      17.838  31.394  15.220  1.00  0.00    -0.386 OA
BRANCH  36  37
HETATM   37  C19 UNL     1      16.724  31.190  15.983  1.00  0.00     0.163 C 
HETATM   38  C20 UNL     1      15.758  32.383  15.975  1.00  0.00     0.033 C 
ENDBRANCH  36  37
ENDBRANCH  30  36
BRANCH  32  39
HETATM   39  C23 UNL     1      19.982  33.399  16.672  1.00  0.00     0.229 C 
HETATM   40  O7  UNL     1      20.702  34.395  16.400  1.00  0.00    -0.273 OA
HETATM   41  N5  UNL     1      18.816  33.587  17.411  1.00  0.00    -0.297 N 
HETATM   42  C24 UNL     1      18.280  34.781  17.908  1.00  0.00     0.228 C 
ATOM     43  H5  UNL     1      18.281  32.743  17.617  1.00  0.00     0.171 HD
HETATM   44  O8  UNL     1      17.156  34.715  18.536  1.00  0.00    -0.273 OA
BRANCH  42  45
HETATM   45  C25 UNL     1      18.854  36.132  17.804  1.00  0.00     0.074 C 
HETATM   46  C26 UNL     1      17.718  37.179  17.801  1.00  0.00     0.020 C 
BRANCH  45  47
HETATM   47  C27 UNL     1      19.575  36.419  19.132  1.00  0.00     0.009 C 
HETATM   48  C28 UNL     1      20.992  36.832  18.896  1.00  0.00     0.006 C 
ENDBRANCH  45  47
ENDBRANCH  42  45
ENDBRANCH  32  39
ENDBRANCH   1  29
TORSDOF 15
ENDMDL
MODEL 5
REMARK VINA RESULT: -7.465020351      2.959     11.669
REMARK  15 active torsions:
REMARK  status: ('A' for Active; 'I' for Inactive)
REMARK    1  A    between atoms: C2_2  and  C3_3 
REMARK    2  A    between atoms: C3_3  and  C4_4 
REMARK    3  A    between atoms: C4_4  and  C5_5 
REMARK    4  A    between atoms: C5_5  and  O1_6 
REMARK    5  A    between atoms: O1_6  and  C6_7 
REMARK       I    between atoms: C6_7  and  N1_9 
REMARK       I    between atoms: N2_12  and  C9_13 
REMARK    6  A    between atoms: C9_13  and  C10_15 
REMARK    7  A    between atoms: C10_15  and  N3_16 
REMARK    8  A    between atoms: C10_15  and  C17_27 
REMARK       I    between atoms: N3_16  and  C11_18 
REMARK    9  A    between atoms: C11_18  and  O5_20 
REMARK   10  A    between atoms: O5_20  and  N4_21 
REMARK   11  A    between atoms: C18_28  and  O6_29 
REMARK   12  A    between atoms: O6_29  and  C19_30 
REMARK   13  A    between atoms: C22_33  and  C23_34 
REMARK       I    between atoms: C23_34  and  N5_36 
REMARK       I    between atoms: N5_36  and  C24_38 
REMARK   14  A    between atoms: C24_38  and  C25_40 
REMARK   15  A    between atoms: C25_40  and  C27_42 
ROOT
HETATM    1  C10 UNL     1      19.746  30.241  12.954  1.00  0.00     0.186 C 
ENDROOT
BRANCH   1   2
HETATM    2  C9  UNL     1      18.954  28.954  12.949  1.00  0.00     0.243 C 
HETATM    3  N2  UNL     1      18.569  28.241  11.827  1.00  0.00    -0.347 N 
HETATM    4  C8  UNL     1      18.987  28.638  10.507  1.00  0.00     0.146 C 
HETATM    5  C32 UNL     1      17.724  27.076  11.948  1.00  0.00     0.146 C 
HETATM    6  C7  UNL     1      18.132  27.989   9.433  1.00  0.00     0.148 C 
HETATM    7  N1  UNL     1      18.086  26.546   9.639  1.00  0.00    -0.325 N 
HETATM    8  C6  UNL     1      18.022  25.703   8.497  1.00  0.00     0.362 C 
HETATM    9  C33 UNL     1      18.110  25.986  10.969  1.00  0.00     0.148 C 
HETATM   10  O2  UNL     1      17.976  24.434   8.622  1.00  0.00    -0.238 OA
HETATM   11  O3  UNL     1      18.637  28.521  14.096  1.00  0.00    -0.271 OA
BRANCH   8  12
HETATM   12  O1  UNL     1      18.007  26.215   7.220  1.00  0.00    -0.304 OA
BRANCH  12  13
HETATM   13  C5  UNL     1      19.062  26.144   6.288  1.00  0.00     0.180 C 
BRANCH  13  14
HETATM   14  C4  UNL     1      20.428  26.229   6.879  1.00  0.00     0.027 C 
BRANCH  14  15
HETATM   15  C3  UNL     1      21.396  25.634   5.876  1.00  0.00     0.002 C 
BRANCH  15  16
HETATM   16  C2  UNL     1      22.394  24.710   6.524  1.00  0.00    -0.004 C 
HETATM   17  C1  UNL     1      23.785  25.232   6.212  1.00  0.00     0.005 C 
ENDBRANCH  15  16
ENDBRANCH  14  15
ENDBRANCH  13  14
ENDBRANCH  12  13
ENDBRANCH   8  12
ENDBRANCH   1   2
BRANCH   1  18
HETATM   18  N3  UNL     1      21.031  29.800  12.356  1.00  0.00    -0.322 N 
HETATM   19  C11 UNL     1      21.915  28.937  13.027  1.00  0.00     0.383 C 
HETATM   20  O4  UNL     1      21.685  28.473  14.180  1.00  0.00    -0.236 OA
ATOM     21  H3  UNL     1      21.281  30.134  11.426  1.00  0.00     0.165 HD
BRANCH  19  22
HETATM   22  O5  UNL     1      23.088  28.563  12.423  1.00  0.00    -0.175 OA
BRANCH  22  23
HETATM   23  N4  UNL     1      23.380  27.344  11.918  1.00  0.00    -0.242 N 
HETATM   24  C12 UNL     1      24.703  27.183  11.511  1.00  0.00     0.096 C 
HETATM   25  C13 UNL     1      24.936  26.475  10.213  1.00  0.00     0.047 C 
HETATM   26  C14 UNL     1      23.944  25.359   9.975  1.00  0.00     0.010 C 
HETATM   27  C15 UNL     1      22.577  26.025   9.994  1.00  0.00     0.047 C 
HETATM   28  C16 UNL     1      22.355  26.600  11.345  1.00  0.00     0.096 C 
ENDBRANCH  22  23
ENDBRANCH  19  22
ENDBRANCH   1  18
BRANCH   1  29
HETATM   29  C17 UNL     1      19.978  30.593  14.381  1.00  0.00     0.055 C 
HETATM   30  C18 UNL     1      18.829  30.507  15.332  1.00  0.00     0.129 C 
HETATM   31  C21 UNL     1      19.608  30.919  16.660  1.00  0.00     0.047 C 
HETATM   32  C22 UNL     1      20.438  32.050  16.181  1.00  0.00     0.089 C 
HETATM   33  C29 UNL     1      20.502  31.957  14.688  1.00  0.00    -0.027 C 
HETATM   34  C30 UNL     1      19.662  33.032  14.024  1.00  0.00     0.016 C 
HETATM   35  C31 UNL     1      21.966  32.101  14.284  1.00  0.00     0.016 C 
BRANCH  30  36
HETATM   36  O6  UNL     1      17.819  31.411  15.178  1.00  0.00    -0.386 OA
BRANCH  36  37
HETATM   37  C19 UNL     1      16.703  31.248  15.950  1.00  0.00     0.163 C 
HETATM   38  C20 UNL     1      15.730  32.432  15.863  1.00  0.00     0.033 C 
ENDBRANCH  36  37
ENDBRANCH  30  36
BRANCH  32  39
HETATM   39  C23 UNL     1      19.966  33.366  16.694  1.00  0.00     0.229 C 
HETATM   40  O7  UNL     1      20.710  34.350  16.447  1.00  0.00    -0.273 OA
HETATM   41  N5  UNL     1      18.786  33.569  17.406  1.00  0.00    -0.297 N 
HETATM   42  C24 UNL     1      18.261  34.769  17.901  1.00  0.00     0.228 C 
ATOM     43  H5  UNL     1      18.232  32.734  17.593  1.00  0.00     0.171 HD
HETATM   44  O8  UNL     1      17.122  34.719  18.502  1.00  0.00    -0.273 OA
BRANCH  42  45
HETATM   45  C25 UNL     1      18.863  36.110  17.822  1.00  0.00     0.074 C 
HETATM   46  C26 UNL     1      17.748  37.180  17.838  1.00  0.00     0.020 C 
BRANCH  45  47
HETATM   47  C27 UNL     1      19.589  36.358  19.156  1.00  0.00     0.009 C 
HETATM   48  C28 UNL     1      20.982  36.849  18.926  1.00  0.00     0.006 C 
ENDBRANCH  45  47
ENDBRANCH  42  45
ENDBRANCH  32  39
ENDBRANCH   1  29
TORSDOF 15
ENDMDL
