MODEL 1
REMARK VINA RESULT: -7.088540464      0.000      0.000
REMARK  13 active torsions:
REMARK  status: ('A' for Active; 'I' for Inactive)
REMARK    1  A    between atoms: C2_2  and  C3_3 
REMARK    2  A    between atoms: C3_3  and  C4_4 
REMARK       I    between atoms: C4_4  and  N1_6 
REMARK    3  A    between atoms: N1_6  and  C5_7 
REMARK    4  A    between atoms: N1_6  and  C9_12 
REMARK    5  A    between atoms: C5_7  and  C6_8 
REMARK    6  A    between atoms: C6_8  and  N2_9 
REMARK    7  A    between atoms: C10_13  and  C11_14 
REMARK    8  A    between atoms: C11_14  and  C12_15 
REMARK    9  A    between atoms: C12_15  and  O3_17 
REMARK   10  A    between atoms: C23_29  and  S1_30 
REMARK   11  A    between atoms: S1_30  and  C24_33 
REMARK   12  A    between atoms: C24_33  and  C25_34 
REMARK   13  A    between atoms: C25_34  and  N3_35 
ROOT
HETATM    1  C11 UNL     1      22.115  24.679   6.963  1.00  0.00     0.134 C 
HETATM    2  C14 UNL     1      21.434  25.647   5.983  1.00  0.00     0.045 C 
HETATM    3  C15 UNL     1      20.287  26.391   6.583  1.00  0.00     0.003 C 
HETATM    4  C16 UNL     1      19.241  26.696   5.531  1.00  0.00     0.000 C 
HETATM    5  C17 UNL     1      17.942  27.160   6.089  1.00  0.00     0.000 C 
HETATM    6  C18 UNL     1      17.404  26.347   7.213  1.00  0.00     0.000 C 
HETATM    7  C19 UNL     1      17.478  27.176   8.478  1.00  0.00     0.002 C 
HETATM    8  C20 UNL     1      17.470  26.318   9.724  1.00  0.00     0.026 C 
HETATM    9  C21 UNL     1      17.927  27.119  10.922  1.00  0.00     0.167 C 
HETATM   10  O4  UNL     1      19.025  26.596  11.557  1.00  0.00    -0.390 OA
HETATM   11  C22 UNL     1      20.173  26.795  10.754  1.00  0.00     0.187 C 
HETATM   12  C23 UNL     1      21.382  26.097  11.314  1.00  0.00     0.133 C 
HETATM   13  C32 UNL     1      21.704  24.783  10.710  1.00  0.00     0.041 C 
HETATM   14  C33 UNL     1      22.405  24.758   9.397  1.00  0.00     0.116 C 
HETATM   15  N5  UNL     1      21.615  25.134   8.288  1.00  0.00    -0.401 N 
ATOM     16  H5  UNL     1      20.759  25.681   8.388  1.00  0.00     0.154 HD
ENDROOT
BRANCH   1  17
HETATM   17  C10 UNL     1      23.555  24.777   6.899  1.00  0.00     0.031 C 
HETATM   18  C9  UNL     1      24.451  24.778   5.766  1.00  0.00     0.093 C 
BRANCH  18  19
HETATM   19  N1  UNL     1      24.548  23.698   4.843  1.00  0.00    -0.327 N 
HETATM   20  C4  UNL     1      25.358  22.541   4.946  1.00  0.00     0.223 C 
HETATM   21  O1  UNL     1      25.430  21.738   3.966  1.00  0.00    -0.273 OA
BRANCH  20  22
HETATM   22  C3  UNL     1      26.104  22.274   6.192  1.00  0.00     0.103 C 
BRANCH  22  23
HETATM   23  C2  UNL     1      25.871  20.849   6.676  1.00  0.00     0.005 C 
HETATM   24  C1  UNL     1      25.318  20.801   8.069  1.00  0.00     0.005 C 
ENDBRANCH  22  23
ENDBRANCH  20  22
BRANCH  19  25
HETATM   25  C5  UNL     1      23.732  23.871   3.604  1.00  0.00     0.161 C 
BRANCH  25  26
HETATM   26  C6  UNL     1      24.166  25.171   3.020  1.00  0.00     0.291 C 
BRANCH  26  27
HETATM   27  N2  UNL     1      24.433  25.169   1.620  1.00  0.00     0.081 N 
HETATM   28  C7  UNL     1      23.257  24.846   0.837  1.00  0.00     0.309 C 
HETATM   29  C8  UNL     1      25.450  24.174   1.338  1.00  0.00     0.309 C 
ENDBRANCH  26  27
ENDBRANCH  25  26
ENDBRANCH  19  25
ENDBRANCH  18  19
ENDBRANCH   1  17
BRANCH   1  30
HETATM   30  C12 UNL     1      21.552  23.340   6.795  1.00  0.00     0.290 C 
HETATM   31  O2  UNL     1      20.286  23.200   6.637  1.00  0.00    -0.262 OA
BRANCH  30  32
HETATM   32  O3  UNL     1      22.235  22.140   6.773  1.00  0.00    -0.324 OA
HETATM   33  C13 UNL     1      22.059  21.170   5.731  1.00  0.00     0.213 C 
ENDBRANCH  30  32
ENDBRANCH   1  30
BRANCH  12  34
HETATM   34  S1  UNL     1      22.748  27.196  11.521  1.00  0.00     0.152 S 
HETATM   35  O5  UNL     1      23.994  26.492  11.935  1.00  0.00    -0.227 OA
HETATM   36  O6  UNL     1      22.913  27.993  10.256  1.00  0.00    -0.227 OA
BRANCH  34  37
HETATM   37  C24 UNL     1      22.384  28.391  12.809  1.00  0.00     0.171 C 
BRANCH  37  38
HETATM   38  C25 UNL     1      21.798  29.604  12.123  1.00  0.00     0.289 C 
BRANCH  38  39
HETATM   39  N3  UNL     1      20.932  30.357  13.014  1.00  0.00     0.114 N 
HETATM   40  C26 UNL     1      20.153  31.258  12.158  1.00  0.00     0.277 C 
HETATM   41  C27 UNL     1      19.217  32.032  13.049  1.00  0.00     0.068 C 
HETATM   42  C28 UNL     1      18.225  31.025  13.610  1.00  0.00     0.122 C 
HETATM   43  C29 UNL     1      17.260  31.745  14.499  1.00  0.00     0.046 C 
HETATM   44  C30 UNL     1      17.456  30.415  12.458  1.00  0.00     0.046 C 
HETATM   45  N4  UNL     1      18.961  30.051  14.362  1.00  0.00    -0.041 N 
HETATM   46  C31 UNL     1      20.024  29.419  13.633  1.00  0.00     0.503 C 
ATOM     47  H42 UNL     1      19.317  30.463  15.225  1.00  0.00     0.280 HD
ATOM     48  H41 UNL     1      18.330  29.351  14.751  1.00  0.00     0.280 HD
ENDBRANCH  38  39
ENDBRANCH  37  38
ENDBRANCH  34  37
ENDBRANCH  12  34
TORSDOF 13
ENDMDL
MODEL 2
REMARK VINA RESULT: -6.997433510      2.950      7.920
REMARK  13 active torsions:
REMARK  status: ('A' for Active; 'I' for Inactive)
REMARK    1  A    between atoms: C2_2  and  C3_3 
REMARK    2  A    between atoms: C3_3  and  C4_4 
REMARK       I    between atoms: C4_4  and  N1_6 
REMARK    3  A    between atoms: N1_6  and  C5_7 
REMARK    4  A    between atoms: N1_6  and  C9_12 
REMARK    5  A    between atoms: C5_7  and  C6_8 
REMARK    6  A    between atoms: C6_8  and  N2_9 
REMARK    7  A    between atoms: C10_13  and  C11_14 
REMARK    8  A    between atoms: C11_14  and  C12_15 
REMARK    9  A    between atoms: C12_15  and  O3_17 
REMARK   10  A    between atoms: C23_29  and  S1_30 
REMARK   11  A    between atoms: S1_30  and  C24_33 
REMARK   12  A    between atoms: C24_33  and  C25_34 
REMARK   13  A    between atoms: C25_34  and  N3_35 
ROOT
HETATM    1  C11 UNL     1      18.716  26.738   6.850  1.00  0.00     0.134 C 
HETATM    2  C14 UNL     1      17.618  25.964   7.597  1.00  0.00     0.045 C 
HETATM    3  C15 UNL     1      17.334  24.621   7.011  1.00  0.00     0.003 C 
HETATM    4  C16 UNL     1      15.882  24.246   7.216  1.00  0.00     0.000 C 
HETATM    5  C17 UNL     1      15.440  23.077   6.409  1.00  0.00     0.000 C 
HETATM    6  C18 UNL     1      15.825  23.112   4.973  1.00  0.00     0.000 C 
HETATM    7  C19 UNL     1      16.862  22.037   4.731  1.00  0.00     0.002 C 
HETATM    8  C20 UNL     1      17.694  22.311   3.497  1.00  0.00     0.026 C 
HETATM    9  C21 UNL     1      18.942  21.458   3.498  1.00  0.00     0.167 C 
HETATM   10  O4  UNL     1      20.109  22.177   3.446  1.00  0.00    -0.390 OA
HETATM   11  C22 UNL     1      20.323  22.818   4.690  1.00  0.00     0.187 C 
HETATM   12  C23 UNL     1      21.497  23.756   4.646  1.00  0.00     0.133 C 
HETATM   13  C32 UNL     1      21.170  25.187   4.444  1.00  0.00     0.041 C 
HETATM   14  C33 UNL     1      20.691  25.978   5.610  1.00  0.00     0.116 C 
HETATM   15  N5  UNL     1      19.376  25.683   6.036  1.00  0.00    -0.401 N 
ATOM     16  H5  UNL     1      18.911  24.805   5.800  1.00  0.00     0.154 HD
ENDROOT
BRANCH   1  17
HETATM   17  C10 UNL     1      19.659  27.344   7.763  1.00  0.00     0.031 C 
HETATM   18  C9  UNL     1      19.948  27.057   9.148  1.00  0.00     0.093 C 
BRANCH  18  19
HETATM   19  N1  UNL     1      18.979  27.154  10.188  1.00  0.00    -0.327 N 
HETATM   20  C4  UNL     1      18.486  26.113  11.011  1.00  0.00     0.223 C 
HETATM   21  O1  UNL     1      17.519  26.344  11.800  1.00  0.00    -0.273 OA
BRANCH  20  22
HETATM   22  C3  UNL     1      19.102  24.773  10.951  1.00  0.00     0.103 C 
BRANCH  22  23
HETATM   23  C2  UNL     1      18.204  23.726  11.597  1.00  0.00     0.005 C 
HETATM   24  C1  UNL     1      17.111  23.266  10.679  1.00  0.00     0.005 C 
ENDBRANCH  22  23
ENDBRANCH  20  22
BRANCH  19  25
HETATM   25  C5  UNL     1      18.393  28.517  10.359  1.00  0.00     0.161 C 
BRANCH  25  26
HETATM   26  C6  UNL     1      19.406  29.290  11.133  1.00  0.00     0.291 C 
BRANCH  26  27
HETATM   27  N2  UNL     1      18.973  29.797  12.393  1.00  0.00     0.081 N 
HETATM   28  C7  UNL     1      19.284  28.896  13.484  1.00  0.00     0.309 C 
HETATM   29  C8  UNL     1      17.535  29.981  12.357  1.00  0.00     0.309 C 
ENDBRANCH  26  27
ENDBRANCH  25  26
ENDBRANCH  19  25
ENDBRANCH  18  19
ENDBRANCH   1  17
BRANCH   1  30
HETATM   30  C12 UNL     1      18.101  27.632   5.871  1.00  0.00     0.290 C 
HETATM   31  O2  UNL     1      18.581  28.809   5.698  1.00  0.00    -0.262 OA
BRANCH  30  32
HETATM   32  O3  UNL     1      17.019  27.364   5.056  1.00  0.00    -0.324 OA
HETATM   33  C13 UNL     1      16.591  28.263   4.022  1.00  0.00     0.213 C 
ENDBRANCH  30  32
ENDBRANCH   1  30
BRANCH  12  34
HETATM   34  S1  UNL     1      22.669  23.417   5.924  1.00  0.00     0.152 S 
HETATM   35  O5  UNL     1      22.022  23.018   7.205  1.00  0.00    -0.227 OA
HETATM   36  O6  UNL     1      23.646  22.394   5.413  1.00  0.00    -0.227 OA
BRANCH  34  37
HETATM   37  C24 UNL     1      23.637  24.887   6.274  1.00  0.00     0.171 C 
BRANCH  37  38
HETATM   38  C25 UNL     1      24.114  24.763   7.702  1.00  0.00     0.289 C 
BRANCH  38  39
HETATM   39  N3  UNL     1      23.380  25.647   8.591  1.00  0.00     0.114 N 
HETATM   40  C26 UNL     1      23.330  24.968   9.890  1.00  0.00     0.277 C 
HETATM   41  C27 UNL     1      22.603  25.876  10.848  1.00  0.00     0.068 C 
HETATM   42  C28 UNL     1      23.492  27.094  11.045  1.00  0.00     0.122 C 
HETATM   43  C29 UNL     1      22.820  28.030  12.001  1.00  0.00     0.046 C 
HETATM   44  C30 UNL     1      24.801  26.640  11.655  1.00  0.00     0.046 C 
HETATM   45  N4  UNL     1      23.665  27.726   9.770  1.00  0.00    -0.041 N 
HETATM   46  C31 UNL     1      24.156  26.857   8.739  1.00  0.00     0.503 C 
ATOM     47  H42 UNL     1      22.797  28.174   9.475  1.00  0.00     0.280 HD
ATOM     48  H41 UNL     1      24.263  28.547   9.859  1.00  0.00     0.280 HD
ENDBRANCH  38  39
ENDBRANCH  37  38
ENDBRANCH  34  37
ENDBRANCH  12  34
TORSDOF 13
ENDMDL
MODEL 3
REMARK VINA RESULT: -6.995026374      3.312      8.767
REMARK  13 active torsions:
REMARK  status: ('A' for Active; 'I' for Inactive)
REMARK    1  A    between atoms: C2_2  and  C3_3 
REMARK    2  A    between atoms: C3_3  and  C4_4 
REMARK       I    between atoms: C4_4  and  N1_6 
REMARK    3  A    between atoms: N1_6  and  C5_7 
REMARK    4  A    between atoms: N1_6  and  C9_12 
REMARK    5  A    between atoms: C5_7  and  C6_8 
REMARK    6  A    between atoms: C6_8  and  N2_9 
REMARK    7  A    between atoms: C10_13  and  C11_14 
REMARK    8  A    between atoms: C11_14  and  C12_15 
REMARK    9  A    between atoms: C12_15  and  O3_17 
REMARK   10  A    between atoms: C23_29  and  S1_30 
REMARK   11  A    between atoms: S1_30  and  C24_33 
REMARK   12  A    between atoms: C24_33  and  C25_34 
REMARK   13  A    between atoms: C25_34  and  N3_35 
ROOT
HETATM    1  C11 UNL     1      20.397  25.508   9.094  1.00  0.00     0.134 C 
HETATM    2  C14 UNL     1      21.789  25.956   8.622  1.00  0.00     0.045 C 
HETATM    3  C15 UNL     1      22.350  25.105   7.531  1.00  0.00     0.003 C 
HETATM    4  C16 UNL     1      23.860  25.052   7.618  1.00  0.00     0.000 C 
HETATM    5  C17 UNL     1      24.478  23.997   6.770  1.00  0.00     0.000 C 
HETATM    6  C18 UNL     1      23.850  22.651   6.869  1.00  0.00     0.000 C 
HETATM    7  C19 UNL     1      23.152  22.353   5.560  1.00  0.00     0.002 C 
HETATM    8  C20 UNL     1      22.072  21.305   5.714  1.00  0.00     0.026 C 
HETATM    9  C21 UNL     1      21.152  21.310   4.514  1.00  0.00     0.167 C 
HETATM   10  O4  UNL     1      19.835  21.539   4.821  1.00  0.00    -0.390 OA
HETATM   11  C22 UNL     1      19.665  22.895   5.188  1.00  0.00     0.187 C 
HETATM   12  C23 UNL     1      18.278  23.172   5.698  1.00  0.00     0.133 C 
HETATM   13  C32 UNL     1      18.126  23.193   7.171  1.00  0.00     0.041 C 
HETATM   14  C33 UNL     1      18.548  24.412   7.913  1.00  0.00     0.116 C 
HETATM   15  N5  UNL     1      19.946  24.606   8.001  1.00  0.00    -0.401 N 
ATOM     16  H5  UNL     1      20.600  24.159   7.358  1.00  0.00     0.154 HD
ENDROOT
BRANCH   1  17
HETATM   17  C10 UNL     1      19.495  26.628   9.239  1.00  0.00     0.031 C 
HETATM   18  C9  UNL     1      19.664  27.893   9.915  1.00  0.00     0.093 C 
BRANCH  18  19
HETATM   19  N1  UNL     1      19.927  28.007  11.310  1.00  0.00    -0.327 N 
HETATM   20  C4  UNL     1      21.186  28.126  11.946  1.00  0.00     0.223 C 
HETATM   21  O1  UNL     1      21.255  28.079  13.213  1.00  0.00    -0.273 OA
BRANCH  20  22
HETATM   22  C3  UNL     1      22.406  28.311  11.135  1.00  0.00     0.103 C 
BRANCH  22  23
HETATM   23  C2  UNL     1      23.591  27.581  11.753  1.00  0.00     0.005 C 
HETATM   24  C1  UNL     1      24.711  27.382  10.775  1.00  0.00     0.005 C 
ENDBRANCH  22  23
ENDBRANCH  20  22
BRANCH  19  25
HETATM   25  C5  UNL     1      18.712  27.927  12.175  1.00  0.00     0.161 C 
BRANCH  25  26
HETATM   26  C6  UNL     1      17.927  29.157  11.872  1.00  0.00     0.291 C 
BRANCH  26  27
HETATM   27  N2  UNL     1      17.912  30.155  12.889  1.00  0.00     0.081 N 
HETATM   28  C7  UNL     1      18.959  31.140  12.707  1.00  0.00     0.309 C 
HETATM   29  C8  UNL     1      18.114  29.517  14.176  1.00  0.00     0.309 C 
ENDBRANCH  26  27
ENDBRANCH  25  26
ENDBRANCH  19  25
ENDBRANCH  18  19
ENDBRANCH   1  17
BRANCH   1  30
HETATM   30  C12 UNL     1      20.536  24.636  10.260  1.00  0.00     0.290 C 
HETATM   31  O2  UNL     1      21.545  24.777  11.039  1.00  0.00    -0.262 OA
BRANCH  30  32
HETATM   32  O3  UNL     1      19.678  23.633  10.662  1.00  0.00    -0.324 OA
HETATM   33  C13 UNL     1      18.636  23.849  11.625  1.00  0.00     0.213 C 
ENDBRANCH  30  32
ENDBRANCH   1  30
BRANCH  12  34
HETATM   34  S1  UNL     1      17.506  24.505   4.834  1.00  0.00     0.152 S 
HETATM   35  O5  UNL     1      17.310  24.216   3.387  1.00  0.00    -0.227 OA
HETATM   36  O6  UNL     1      16.227  24.855   5.545  1.00  0.00    -0.227 OA
BRANCH  34  37
HETATM   37  C24 UNL     1      18.535  25.973   4.928  1.00  0.00     0.171 C 
BRANCH  37  38
HETATM   38  C25 UNL     1      17.641  27.102   5.387  1.00  0.00     0.289 C 
BRANCH  38  39
HETATM   39  N3  UNL     1      17.569  28.164   4.399  1.00  0.00     0.114 N 
HETATM   40  C26 UNL     1      16.354  27.910   3.617  1.00  0.00     0.277 C 
HETATM   41  C27 UNL     1      16.230  29.016   2.601  1.00  0.00     0.068 C 
HETATM   42  C28 UNL     1      15.965  30.292   3.385  1.00  0.00     0.122 C 
HETATM   43  C29 UNL     1      15.822  31.428   2.420  1.00  0.00     0.046 C 
HETATM   44  C30 UNL     1      14.662  30.132   4.137  1.00  0.00     0.046 C 
HETATM   45  N4  UNL     1      17.082  30.517   4.254  1.00  0.00    -0.041 N 
HETATM   46  C31 UNL     1      17.400  29.410   5.111  1.00  0.00     0.503 C 
ATOM     47  H42 UNL     1      17.902  30.796   3.715  1.00  0.00     0.280 HD
ATOM     48  H41 UNL     1      16.940  31.364   4.804  1.00  0.00     0.280 HD
ENDBRANCH  38  39
ENDBRANCH  37  38
ENDBRANCH  34  37
ENDBRANCH  12  34
TORSDOF 13
ENDMDL
MODEL 4
REMARK VINA RESULT: -6.953443156      2.756      6.908
REMARK  13 active torsions:
REMARK  status: ('A' for Active; 'I' for Inactive)
REMARK    1  A    between atoms: C2_2  and  C3_3 
REMARK    2  A    between atoms: C3_3  and  C4_4 
REMARK       I    between atoms: C4_4  and  N1_6 
REMARK    3  A    between atoms: N1_6  and  C5_7 
REMARK    4  A    between atoms: N1_6  and  C9_12 
REMARK    5  A    between atoms: C5_7  and  C6_8 
REMARK    6  A    between atoms: C6_8  and  N2_9 
REMARK    7  A    between atoms: C10_13  and  C11_14 
REMARK    8  A    between atoms: C11_14  and  C12_15 
REMARK    9  A    between atoms: C12_15  and  O3_17 
REMARK   10  A    between atoms: C23_29  and  S1_30 
REMARK   11  A    between atoms: S1_30  and  C24_33 
REMARK   12  A    between atoms: C24_33  and  C25_34 
REMARK   13  A    between atoms: C25_34  and  N3_35 
ROOT
HETATM    1  C11 UNL     1      19.072  25.980   8.692  1.00  0.00     0.134 C 
HETATM    2  C14 UNL     1      18.278  27.264   8.406  1.00  0.00     0.045 C 
HETATM    3  C15 UNL     1      18.256  28.218   9.555  1.00  0.00     0.003 C 
HETATM    4  C16 UNL     1      16.967  29.010   9.566  1.00  0.00     0.000 C 
HETATM    5  C17 UNL     1      16.727  29.756  10.831  1.00  0.00     0.000 C 
HETATM    6  C18 UNL     1      16.930  28.974  12.080  1.00  0.00     0.000 C 
HETATM    7  C19 UNL     1      18.159  29.509  12.783  1.00  0.00     0.002 C 
HETATM    8  C20 UNL     1      18.758  28.499  13.736  1.00  0.00     0.026 C 
HETATM    9  C21 UNL     1      20.165  28.899  14.118  1.00  0.00     0.167 C 
HETATM   10  O4  UNL     1      21.115  27.958  13.814  1.00  0.00    -0.390 OA
HETATM   11  C22 UNL     1      21.309  27.920  12.412  1.00  0.00     0.187 C 
HETATM   12  C23 UNL     1      22.215  26.793  11.999  1.00  0.00     0.133 C 
HETATM   13  C32 UNL     1      21.538  25.568  11.514  1.00  0.00     0.041 C 
HETATM   14  C33 UNL     1      21.019  25.548  10.119  1.00  0.00     0.116 C 
HETATM   15  N5  UNL     1      19.867  26.337   9.897  1.00  0.00    -0.401 N 
ATOM     16  H5  UNL     1      19.600  27.099  10.520  1.00  0.00     0.154 HD
ENDROOT
BRANCH   1  17
HETATM   17  C10 UNL     1      19.940  25.630   7.591  1.00  0.00     0.031 C 
HETATM   18  C9  UNL     1      19.956  26.087   6.221  1.00  0.00     0.093 C 
BRANCH  18  19
HETATM   19  N1  UNL     1      18.861  25.919   5.326  1.00  0.00    -0.327 N 
HETATM   20  C4  UNL     1      17.995  26.919   4.819  1.00  0.00     0.223 C 
HETATM   21  O1  UNL     1      16.979  26.581   4.137  1.00  0.00    -0.273 OA
BRANCH  20  22
HETATM   22  C3  UNL     1      18.284  28.343   5.081  1.00  0.00     0.103 C 
BRANCH  22  23
HETATM   23  C2  UNL     1      17.009  29.176   5.052  1.00  0.00     0.005 C 
HETATM   24  C1  UNL     1      17.009  30.182   3.940  1.00  0.00     0.005 C 
ENDBRANCH  22  23
ENDBRANCH  20  22
BRANCH  19  25
HETATM   25  C5  UNL     1      18.586  24.501   4.947  1.00  0.00     0.161 C 
BRANCH  25  26
HETATM   26  C6  UNL     1      19.798  24.044   4.210  1.00  0.00     0.291 C 
BRANCH  26  27
HETATM   27  N2  UNL     1      20.045  24.682   2.960  1.00  0.00     0.081 N 
HETATM   28  C7  UNL     1      19.037  24.360   1.970  1.00  0.00     0.309 C 
HETATM   29  C8  UNL     1      21.331  24.242   2.454  1.00  0.00     0.309 C 
ENDBRANCH  26  27
ENDBRANCH  25  26
ENDBRANCH  19  25
ENDBRANCH  18  19
ENDBRANCH   1  17
BRANCH   1  30
HETATM   30  C12 UNL     1      18.157  24.934   9.148  1.00  0.00     0.290 C 
HETATM   31  O2  UNL     1      17.912  23.931   8.388  1.00  0.00    -0.262 OA
BRANCH  30  32
HETATM   32  O3  UNL     1      17.490  24.873  10.356  1.00  0.00    -0.324 OA
HETATM   33  C13 UNL     1      17.420  23.673  11.139  1.00  0.00     0.213 C 
ENDBRANCH  30  32
ENDBRANCH   1  30
BRANCH  12  34
HETATM   34  S1  UNL     1      23.569  27.356  11.014  1.00  0.00     0.152 S 
HETATM   35  O5  UNL     1      23.152  28.330   9.967  1.00  0.00    -0.227 OA
HETATM   36  O6  UNL     1      24.634  27.893  11.930  1.00  0.00    -0.227 OA
BRANCH  34  37
HETATM   37  C24 UNL     1      24.318  25.970  10.153  1.00  0.00     0.171 C 
BRANCH  37  38
HETATM   38  C25 UNL     1      24.386  26.350   8.692  1.00  0.00     0.289 C 
BRANCH  38  39
HETATM   39  N3  UNL     1      23.570  25.472   7.872  1.00  0.00     0.114 N 
HETATM   40  C26 UNL     1      24.223  25.419   6.559  1.00  0.00     0.277 C 
HETATM   41  C27 UNL     1      23.420  24.486   5.691  1.00  0.00     0.068 C 
HETATM   42  C28 UNL     1      23.575  23.098   6.293  1.00  0.00     0.122 C 
HETATM   43  C29 UNL     1      22.802  22.123   5.459  1.00  0.00     0.046 C 
HETATM   44  C30 UNL     1      25.038  22.715   6.247  1.00  0.00     0.046 C 
HETATM   45  N4  UNL     1      23.053  23.133   7.627  1.00  0.00    -0.041 N 
HETATM   46  C31 UNL     1      23.624  24.153   8.461  1.00  0.00     0.503 C 
ATOM     47  H42 UNL     1      22.036  23.217   7.610  1.00  0.00     0.280 HD
ATOM     48  H41 UNL     1      23.145  22.219   8.069  1.00  0.00     0.280 HD
ENDBRANCH  38  39
ENDBRANCH  37  38
ENDBRANCH  34  37
ENDBRANCH  12  34
TORSDOF 13
ENDMDL
MODEL 5
REMARK VINA RESULT: -6.919442404      1.118      2.954
REMARK  13 active torsions:
REMARK  status: ('A' for Active; 'I' for Inactive)
REMARK    1  A    between atoms: C2_2  and  C3_3 
REMARK    2  A    between atoms: C3_3  and  C4_4 
REMARK       I    between atoms: C4_4  and  N1_6 
REMARK    3  A    between atoms: N1_6  and  C5_7 
REMARK    4  A    between atoms: N1_6  and  C9_12 
REMARK    5  A    between atoms: C5_7  and  C6_8 
REMARK    6  A    between atoms: C6_8  and  N2_9 
REMARK    7  A    between atoms: C10_13  and  C11_14 
REMARK    8  A    between atoms: C11_14  and  C12_15 
REMARK    9  A    between atoms: C12_15  and  O3_17 
REMARK   10  A    between atoms: C23_29  and  S1_30 
REMARK   11  A    between atoms: S1_30  and  C24_33 
REMARK   12  A    between atoms: C24_33  and  C25_34 
REMARK   13  A    between atoms: C25_34  and  N3_35 
ROOT
HETATM    1  C11 UNL     1      22.174  24.263   6.843  1.00  0.00     0.134 C 
HETATM    2  C14 UNL     1      21.797  25.249   5.726  1.00  0.00     0.045 C 
HETATM    3  C15 UNL     1      20.802  26.277   6.153  1.00  0.00     0.003 C 
HETATM    4  C16 UNL     1      19.929  26.690   4.987  1.00  0.00     0.000 C 
HETATM    5  C17 UNL     1      18.727  27.474   5.380  1.00  0.00     0.000 C 
HETATM    6  C18 UNL     1      17.943  26.913   6.514  1.00  0.00     0.000 C 
HETATM    7  C19 UNL     1      18.105  27.830   7.706  1.00  0.00     0.002 C 
HETATM    8  C20 UNL     1      17.817  27.125   9.013  1.00  0.00     0.026 C 
HETATM    9  C21 UNL     1      18.351  27.927  10.178  1.00  0.00     0.167 C 
HETATM   10  O4  UNL     1      19.258  27.250  10.954  1.00  0.00    -0.390 OA
HETATM   11  C22 UNL     1      20.477  27.117  10.247  1.00  0.00     0.187 C 
HETATM   12  C23 UNL     1      21.457  26.238  10.974  1.00  0.00     0.133 C 
HETATM   13  C32 UNL     1      21.525  24.832  10.513  1.00  0.00     0.041 C 
HETATM   14  C33 UNL     1      22.297  24.525   9.278  1.00  0.00     0.116 C 
HETATM   15  N5  UNL     1      21.692  24.946   8.072  1.00  0.00    -0.401 N 
ATOM     16  H5  UNL     1      20.973  25.670   8.047  1.00  0.00     0.154 HD
ENDROOT
BRANCH   1  17
HETATM   17  C10 UNL     1      23.601  24.045   6.905  1.00  0.00     0.031 C 
HETATM   18  C9  UNL     1      24.590  23.962   5.855  1.00  0.00     0.093 C 
BRANCH  18  19
HETATM   19  N1  UNL     1      24.551  22.986   4.818  1.00  0.00    -0.327 N 
HETATM   20  C4  UNL     1      24.168  23.172   3.468  1.00  0.00     0.223 C 
HETATM   21  O1  UNL     1      24.058  22.164   2.704  1.00  0.00    -0.273 OA
BRANCH  20  22
HETATM   22  C3  UNL     1      23.908  24.533   2.958  1.00  0.00     0.103 C 
BRANCH  22  23
HETATM   23  C2  UNL     1      22.960  24.500   1.766  1.00  0.00     0.005 C 
HETATM   24  C1  UNL     1      21.519  24.501   2.182  1.00  0.00     0.005 C 
ENDBRANCH  22  23
ENDBRANCH  20  22
BRANCH  19  25
HETATM   25  C5  UNL     1      24.905  21.603   5.260  1.00  0.00     0.161 C 
BRANCH  25  26
HETATM   26  C6  UNL     1      26.308  21.691   5.755  1.00  0.00     0.291 C 
BRANCH  26  27
HETATM   27  N2  UNL     1      26.528  21.236   7.088  1.00  0.00     0.081 N 
HETATM   28  C7  UNL     1      27.527  20.188   7.151  1.00  0.00     0.309 C 
HETATM   29  C8  UNL     1      25.286  20.707   7.615  1.00  0.00     0.309 C 
ENDBRANCH  26  27
ENDBRANCH  25  26
ENDBRANCH  19  25
ENDBRANCH  18  19
ENDBRANCH   1  17
BRANCH   1  30
HETATM   30  C12 UNL     1      21.343  23.064   6.735  1.00  0.00     0.290 C 
HETATM   31  O2  UNL     1      21.897  21.907   6.736  1.00  0.00    -0.262 OA
BRANCH  30  32
HETATM   32  O3  UNL     1      19.968  23.005   6.635  1.00  0.00    -0.324 OA
HETATM   33  C13 UNL     1      19.299  22.560   5.446  1.00  0.00     0.213 C 
ENDBRANCH  30  32
ENDBRANCH   1  30
BRANCH  12  34
HETATM   34  S1  UNL     1      23.014  27.036  11.214  1.00  0.00     0.152 S 
HETATM   35  O5  UNL     1      24.028  26.142  11.839  1.00  0.00    -0.227 OA
HETATM   36  O6  UNL     1      23.463  27.610   9.898  1.00  0.00    -0.227 OA
BRANCH  34  37
HETATM   37  C24 UNL     1      22.820  28.438  12.318  1.00  0.00     0.171 C 
BRANCH  37  38
HETATM   38  C25 UNL     1      21.559  28.192  13.115  1.00  0.00     0.289 C 
BRANCH  38  39
HETATM   39  N3  UNL     1      20.988  29.433  13.609  1.00  0.00     0.114 N 
HETATM   40  C26 UNL     1      20.555  30.182  12.425  1.00  0.00     0.277 C 
HETATM   41  C27 UNL     1      19.924  31.463  12.905  1.00  0.00     0.068 C 
HETATM   42  C28 UNL     1      18.652  31.067  13.638  1.00  0.00     0.122 C 
HETATM   43  C29 UNL     1      17.975  32.309  14.130  1.00  0.00     0.046 C 
HETATM   44  C30 UNL     1      17.730  30.371  12.661  1.00  0.00     0.046 C 
HETATM   45  N4  UNL     1      19.020  30.232  14.743  1.00  0.00    -0.041 N 
HETATM   46  C31 UNL     1      19.817  29.093  14.386  1.00  0.00     0.503 C 
ATOM     47  H42 UNL     1      19.488  30.782  15.464  1.00  0.00     0.280 HD
ATOM     48  H41 UNL     1      18.191  29.939  15.259  1.00  0.00     0.280 HD
ENDBRANCH  38  39
ENDBRANCH  37  38
ENDBRANCH  34  37
ENDBRANCH  12  34
TORSDOF 13
ENDMDL
