MODEL 1
REMARK VINA RESULT: -9.746769056      0.000      0.000
REMARK  14 active torsions:
REMARK  status: ('A' for Active; 'I' for Inactive)
REMARK    1  A    between atoms: C2_2  and  C3_3 
REMARK    2  A    between atoms: C3_3  and  C5_5 
REMARK    3  A    between atoms: C3_3  and  C12_20 
REMARK       I    between atoms: C5_5  and  N1_7 
REMARK    4  A    between atoms: N1_7  and  C6_9 
REMARK    5  A    between atoms: C6_9  and  C7_10 
REMARK    6  A    between atoms: C9_13  and  C10_14 
REMARK    7  A    between atoms: C10_14  and  O3_16 
REMARK    8  A    between atoms: C12_20  and  C13_21 
REMARK    9  A    between atoms: C12_20  and  N3_25 
REMARK   10  A    between atoms: C13_21  and  C14_22 
REMARK   11  A    between atoms: C14_22  and  C15_23 
REMARK       I    between atoms: N3_25  and  C17_26 
REMARK   12  A    between atoms: C17_26  and  C18_28 
REMARK       I    between atoms: N4_34  and  C23_35 
REMARK   13  A    between atoms: C23_35  and  C24_37 
REMARK   14  A    between atoms: C31_44  and  O7_45 
ROOT
HETATM    1  C12 UNL     1      19.727  28.479  11.780  1.00  0.00     0.087 C 
ENDROOT
BRANCH   1   2
HETATM    2  C3  UNL     1      18.273  28.213  11.404  1.00  0.00     0.106 C 
HETATM    3  C4  UNL     1      17.435  29.426  11.405  1.00  0.00     0.037 C 
BRANCH   2   4
HETATM    4  C2  UNL     1      17.766  27.203  12.429  1.00  0.00    -0.011 C 
HETATM    5  C1  UNL     1      17.484  27.829  13.648  1.00  0.00     0.008 C 
ENDBRANCH   2   4
BRANCH   2   6
HETATM    6  C5  UNL     1      18.108  27.482  10.108  1.00  0.00     0.240 C 
HETATM    7  O1  UNL     1      17.698  26.305  10.003  1.00  0.00    -0.272 OA
HETATM    8  N1  UNL     1      18.438  28.212   8.944  1.00  0.00    -0.334 N 
ATOM      9  H1  UNL     1      18.784  29.158   9.102  1.00  0.00     0.168 HD
BRANCH   8  10
HETATM   10  C6  UNL     1      18.354  27.817   7.611  1.00  0.00     0.121 C 
BRANCH  10  11
HETATM   11  C7  UNL     1      19.250  26.682   7.156  1.00  0.00     0.055 A 
HETATM   12  C8  UNL     1      18.834  25.583   6.471  1.00  0.00     0.082 A 
HETATM   13  S1  UNL     1      20.314  24.785   6.284  1.00  0.00    -0.076 SA
HETATM   14  C9  UNL     1      21.333  25.781   7.016  1.00  0.00     0.150 A 
HETATM   15  N2  UNL     1      20.549  26.843   7.475  1.00  0.00    -0.344 N 
ATOM     16  H2  UNL     1      20.916  27.644   7.989  1.00  0.00     0.167 HD
BRANCH  14  17
HETATM   17  C10 UNL     1      22.823  25.828   7.240  1.00  0.00     0.317 C 
HETATM   18  O2  UNL     1      23.578  25.814   6.286  1.00  0.00    -0.257 OA
BRANCH  17  19
HETATM   19  O3  UNL     1      23.253  25.875   8.540  1.00  0.00    -0.321 OA
HETATM   20  C11 UNL     1      22.891  24.849   9.478  1.00  0.00     0.213 C 
ENDBRANCH  17  19
ENDBRANCH  14  17
ENDBRANCH  10  11
ENDBRANCH   8  10
ENDBRANCH   2   6
ENDBRANCH   1   2
BRANCH   1  21
HETATM   21  C13 UNL     1      20.675  27.618  11.061  1.00  0.00     0.070 C 
BRANCH  21  22
HETATM   22  C14 UNL     1      22.075  28.189  10.891  1.00  0.00     0.006 C 
BRANCH  22  23
HETATM   23  C15 UNL     1      22.874  27.855  12.128  1.00  0.00    -0.004 C 
HETATM   24  C16 UNL     1      24.262  27.467  11.750  1.00  0.00     0.005 C 
ENDBRANCH  22  23
ENDBRANCH  21  22
ENDBRANCH   1  21
BRANCH   1  25
HETATM   25  N3  UNL     1      19.988  29.808  12.085  1.00  0.00    -0.376 NA
HETATM   26  C17 UNL     1      20.245  31.119  12.385  1.00  0.00     0.317 C 
HETATM   27  O4  UNL     1      20.273  32.154  11.749  1.00  0.00    -0.255 OA
BRANCH  26  28
HETATM   28  C18 UNL     1      20.572  31.324  13.886  1.00  0.00     0.226 C 
HETATM   29  C19 UNL     1      22.035  31.794  13.816  1.00  0.00     0.157 C 
HETATM   30  C20 UNL     1      22.642  31.714  15.202  1.00  0.00     0.039 C 
HETATM   31  O5  UNL     1      21.863  33.167  13.656  1.00  0.00    -0.359 OA
HETATM   32  C21 UNL     1      21.850  32.820  15.889  1.00  0.00     0.056 C 
HETATM   33  C22 UNL     1      21.027  33.382  14.782  1.00  0.00     0.227 C 
HETATM   34  N4  UNL     1      19.943  32.472  14.443  1.00  0.00    -0.308 N 
HETATM   35  C23 UNL     1      18.558  32.733  14.654  1.00  0.00     0.227 C 
HETATM   36  O6  UNL     1      17.759  31.832  14.260  1.00  0.00    -0.273 OA
BRANCH  35  37
HETATM   37  C24 UNL     1      18.056  33.948  15.286  1.00  0.00     0.086 C 
HETATM   38  C25 UNL     1      18.109  33.985  16.776  1.00  0.00     0.002 C 
HETATM   39  C26 UNL     1      17.009  33.157  17.417  1.00  0.00     0.010 C 
HETATM   40  C34 UNL     1      17.867  35.437  17.208  1.00  0.00     0.043 C 
HETATM   41  C27 UNL     1      15.661  33.631  16.932  1.00  0.00    -0.011 C 
HETATM   42  C28 UNL     1      15.586  33.451  15.452  1.00  0.00     0.010 C 
HETATM   43  C33 UNL     1      15.463  35.054  17.364  1.00  0.00     0.042 C 
HETATM   44  C29 UNL     1      16.661  34.306  14.818  1.00  0.00     0.002 C 
HETATM   45  C30 UNL     1      16.407  35.744  15.215  1.00  0.00     0.043 C 
HETATM   46  C31 UNL     1      16.537  35.922  16.693  1.00  0.00     0.061 C 
BRANCH  46  47
HETATM   47  O7  UNL     1      16.365  37.236  17.056  1.00  0.00    -0.385 OA
HETATM   48  C32 UNL     1      16.186  37.479  18.383  1.00  0.00     0.202 C 
ENDBRANCH  46  47
ENDBRANCH  35  37
ENDBRANCH  26  28
ENDBRANCH   1  25
TORSDOF 14
ENDMDL
MODEL 2
REMARK VINA RESULT: -9.705519365      0.905      1.103
REMARK  14 active torsions:
REMARK  status: ('A' for Active; 'I' for Inactive)
REMARK    1  A    between atoms: C2_2  and  C3_3 
REMARK    2  A    between atoms: C3_3  and  C5_5 
REMARK    3  A    between atoms: C3_3  and  C12_20 
REMARK       I    between atoms: C5_5  and  N1_7 
REMARK    4  A    between atoms: N1_7  and  C6_9 
REMARK    5  A    between atoms: C6_9  and  C7_10 
REMARK    6  A    between atoms: C9_13  and  C10_14 
REMARK    7  A    between atoms: C10_14  and  O3_16 
REMARK    8  A    between atoms: C12_20  and  C13_21 
REMARK    9  A    between atoms: C12_20  and  N3_25 
REMARK   10  A    between atoms: C13_21  and  C14_22 
REMARK   11  A    between atoms: C14_22  and  C15_23 
REMARK       I    between atoms: N3_25  and  C17_26 
REMARK   12  A    between atoms: C17_26  and  C18_28 
REMARK       I    between atoms: N4_34  and  C23_35 
REMARK   13  A    between atoms: C23_35  and  C24_37 
REMARK   14  A    between atoms: C31_44  and  O7_45 
ROOT
HETATM    1  C12 UNL     1      20.250  28.288  11.931  1.00  0.00     0.087 C 
ENDROOT
BRANCH   1   2
HETATM    2  C3  UNL     1      18.876  27.782  11.503  1.00  0.00     0.106 C 
HETATM    3  C4  UNL     1      17.835  27.969  12.530  1.00  0.00     0.037 C 
BRANCH   2   4
HETATM    4  C2  UNL     1      19.069  26.301  11.189  1.00  0.00    -0.011 C 
HETATM    5  C1  UNL     1      17.943  25.562  11.570  1.00  0.00     0.008 C 
ENDBRANCH   2   4
BRANCH   2   6
HETATM    6  C5  UNL     1      18.407  28.339  10.195  1.00  0.00     0.240 C 
HETATM    7  O1  UNL     1      17.681  29.350  10.072  1.00  0.00    -0.272 OA
HETATM    8  N1  UNL     1      18.846  27.651   9.041  1.00  0.00    -0.334 N 
ATOM      9  H1  UNL     1      19.418  26.824   9.213  1.00  0.00     0.168 HD
BRANCH   8  10
HETATM   10  C6  UNL     1      18.607  27.947   7.701  1.00  0.00     0.121 C 
BRANCH  10  11
HETATM   11  C7  UNL     1      19.279  27.077   6.658  1.00  0.00     0.055 A 
HETATM   12  C8  UNL     1      18.777  26.807   5.423  1.00  0.00     0.082 A 
HETATM   13  S1  UNL     1      20.020  25.834   4.816  1.00  0.00    -0.076 SA
HETATM   14  C9  UNL     1      21.054  25.798   6.038  1.00  0.00     0.150 A 
HETATM   15  N2  UNL     1      20.468  26.575   7.042  1.00  0.00    -0.344 N 
ATOM     16  H2  UNL     1      20.891  26.742   7.956  1.00  0.00     0.167 HD
BRANCH  14  17
HETATM   17  C10 UNL     1      22.417  25.204   6.281  1.00  0.00     0.317 C 
HETATM   18  O2  UNL     1      22.591  24.009   6.135  1.00  0.00    -0.257 OA
BRANCH  17  19
HETATM   19  O3  UNL     1      23.408  26.066   6.673  1.00  0.00    -0.321 OA
HETATM   20  C11 UNL     1      23.991  25.978   7.984  1.00  0.00     0.213 C 
ENDBRANCH  17  19
ENDBRANCH  14  17
ENDBRANCH  10  11
ENDBRANCH   8  10
ENDBRANCH   2   6
ENDBRANCH   1   2
BRANCH   1  21
HETATM   21  C13 UNL     1      21.356  27.580  11.271  1.00  0.00     0.070 C 
BRANCH  21  22
HETATM   22  C14 UNL     1      22.742  27.884  11.818  1.00  0.00     0.006 C 
BRANCH  22  23
HETATM   23  C15 UNL     1      23.622  26.683  11.568  1.00  0.00    -0.004 C 
HETATM   24  C16 UNL     1      25.045  27.109  11.448  1.00  0.00     0.005 C 
ENDBRANCH  22  23
ENDBRANCH  21  22
ENDBRANCH   1  21
BRANCH   1  25
HETATM   25  N3  UNL     1      20.278  29.648  12.212  1.00  0.00    -0.376 NA
HETATM   26  C17 UNL     1      20.306  30.988  12.489  1.00  0.00     0.317 C 
HETATM   27  O4  UNL     1      20.125  32.001  11.843  1.00  0.00    -0.255 OA
BRANCH  26  28
HETATM   28  C18 UNL     1      20.642  31.273  13.975  1.00  0.00     0.226 C 
HETATM   29  C19 UNL     1      22.093  31.772  13.868  1.00  0.00     0.157 C 
HETATM   30  C20 UNL     1      22.714  31.772  15.250  1.00  0.00     0.039 C 
HETATM   31  O5  UNL     1      21.888  33.131  13.643  1.00  0.00    -0.359 OA
HETATM   32  C21 UNL     1      21.903  32.892  15.891  1.00  0.00     0.056 C 
HETATM   33  C22 UNL     1      21.058  33.382  14.766  1.00  0.00     0.227 C 
HETATM   34  N4  UNL     1      19.992  32.432  14.483  1.00  0.00    -0.308 N 
HETATM   35  C23 UNL     1      18.604  32.672  14.696  1.00  0.00     0.227 C 
HETATM   36  O6  UNL     1      17.822  31.735  14.354  1.00  0.00    -0.273 OA
BRANCH  35  37
HETATM   37  C24 UNL     1      18.079  33.904  15.273  1.00  0.00     0.086 C 
HETATM   38  C25 UNL     1      18.131  34.008  16.760  1.00  0.00     0.002 C 
HETATM   39  C26 UNL     1      17.046  33.190  17.438  1.00  0.00     0.010 C 
HETATM   40  C34 UNL     1      17.864  35.473  17.127  1.00  0.00     0.043 C 
HETATM   41  C27 UNL     1      15.690  33.617  16.934  1.00  0.00    -0.011 C 
HETATM   42  C28 UNL     1      15.619  33.371  15.463  1.00  0.00     0.010 C 
HETATM   43  C33 UNL     1      15.467  35.054  17.302  1.00  0.00     0.042 C 
HETATM   44  C29 UNL     1      16.678  34.216  14.791  1.00  0.00     0.002 C 
HETATM   45  C30 UNL     1      16.398  35.665  15.123  1.00  0.00     0.043 C 
HETATM   46  C31 UNL     1      16.525  35.911  16.593  1.00  0.00     0.061 C 
BRANCH  46  47
HETATM   47  O7  UNL     1      16.329  37.237  16.897  1.00  0.00    -0.385 OA
HETATM   48  C32 UNL     1      15.948  37.515  18.173  1.00  0.00     0.202 C 
ENDBRANCH  46  47
ENDBRANCH  35  37
ENDBRANCH  26  28
ENDBRANCH   1  25
TORSDOF 14
ENDMDL
MODEL 3
REMARK VINA RESULT: -9.668042561      2.849     10.396
REMARK  14 active torsions:
REMARK  status: ('A' for Active; 'I' for Inactive)
REMARK    1  A    between atoms: C2_2  and  C3_3 
REMARK    2  A    between atoms: C3_3  and  C5_5 
REMARK    3  A    between atoms: C3_3  and  C12_20 
REMARK       I    between atoms: C5_5  and  N1_7 
REMARK    4  A    between atoms: N1_7  and  C6_9 
REMARK    5  A    between atoms: C6_9  and  C7_10 
REMARK    6  A    between atoms: C9_13  and  C10_14 
REMARK    7  A    between atoms: C10_14  and  O3_16 
REMARK    8  A    between atoms: C12_20  and  C13_21 
REMARK    9  A    between atoms: C12_20  and  N3_25 
REMARK   10  A    between atoms: C13_21  and  C14_22 
REMARK   11  A    between atoms: C14_22  and  C15_23 
REMARK       I    between atoms: N3_25  and  C17_26 
REMARK   12  A    between atoms: C17_26  and  C18_28 
REMARK       I    between atoms: N4_34  and  C23_35 
REMARK   13  A    between atoms: C23_35  and  C24_37 
REMARK   14  A    between atoms: C31_44  and  O7_45 
ROOT
HETATM    1  C12 UNL     1      20.665  29.359  13.158  1.00  0.00     0.087 C 
ENDROOT
BRANCH   1   2
HETATM    2  C3  UNL     1      20.680  30.769  13.738  1.00  0.00     0.106 C 
HETATM    3  C4  UNL     1      20.574  31.826  12.716  1.00  0.00     0.037 C 
BRANCH   2   4
HETATM    4  C2  UNL     1      21.997  30.881  14.500  1.00  0.00    -0.011 C 
HETATM    5  C1  UNL     1      22.562  32.150  14.333  1.00  0.00     0.008 C 
ENDBRANCH   2   4
BRANCH   2   6
HETATM    6  C5  UNL     1      19.658  30.993  14.809  1.00  0.00     0.240 C 
HETATM    7  O1  UNL     1      19.891  30.940  16.037  1.00  0.00    -0.272 OA
HETATM    8  N1  UNL     1      18.353  31.297  14.359  1.00  0.00    -0.334 N 
ATOM      9  H1  UNL     1      18.227  31.305  13.348  1.00  0.00     0.168 HD
BRANCH   8  10
HETATM   10  C6  UNL     1      17.215  31.586  15.109  1.00  0.00     0.121 C 
BRANCH  10  11
HETATM   11  C7  UNL     1      16.984  33.031  15.506  1.00  0.00     0.055 A 
HETATM   12  C8  UNL     1      16.778  34.058  14.638  1.00  0.00     0.082 A 
HETATM   13  S1  UNL     1      16.576  35.326  15.739  1.00  0.00    -0.076 SA
HETATM   14  C9  UNL     1      16.743  34.585  17.148  1.00  0.00     0.150 A 
HETATM   15  N2  UNL     1      16.981  33.243  16.836  1.00  0.00    -0.344 N 
ATOM     16  H2  UNL     1      17.133  32.512  17.532  1.00  0.00     0.167 HD
BRANCH  14  17
HETATM   17  C10 UNL     1      16.652  34.988  18.598  1.00  0.00     0.317 C 
HETATM   18  O2  UNL     1      15.568  35.247  19.085  1.00  0.00    -0.257 OA
BRANCH  17  19
HETATM   19  O3  UNL     1      17.827  35.051  19.299  1.00  0.00    -0.321 OA
HETATM   20  C11 UNL     1      18.987  35.694  18.745  1.00  0.00     0.213 C 
ENDBRANCH  17  19
ENDBRANCH  14  17
ENDBRANCH  10  11
ENDBRANCH   8  10
ENDBRANCH   2   6
ENDBRANCH   1   2
BRANCH   1  21
HETATM   21  C13 UNL     1      21.950  28.662  13.305  1.00  0.00     0.070 C 
BRANCH  21  22
HETATM   22  C14 UNL     1      22.414  27.885  12.082  1.00  0.00     0.006 C 
BRANCH  22  23
HETATM   23  C15 UNL     1      23.922  27.820  12.108  1.00  0.00    -0.004 C 
HETATM   24  C16 UNL     1      24.386  26.524  11.537  1.00  0.00     0.005 C 
ENDBRANCH  22  23
ENDBRANCH  21  22
ENDBRANCH   1  21
BRANCH   1  25
HETATM   25  N3  UNL     1      19.437  28.721  13.278  1.00  0.00    -0.376 NA
HETATM   26  C17 UNL     1      18.227  28.093  13.396  1.00  0.00     0.317 C 
HETATM   27  O4  UNL     1      17.600  27.606  14.317  1.00  0.00    -0.255 OA
BRANCH  26  28
HETATM   28  C18 UNL     1      17.487  27.983  12.039  1.00  0.00     0.226 C 
HETATM   29  C19 UNL     1      17.054  29.440  11.810  1.00  0.00     0.157 C 
HETATM   30  C20 UNL     1      16.017  29.476  10.706  1.00  0.00     0.039 C 
HETATM   31  O5  UNL     1      18.178  29.952  11.168  1.00  0.00    -0.359 OA
HETATM   32  C21 UNL     1      16.894  29.081   9.524  1.00  0.00     0.056 C 
HETATM   33  C22 UNL     1      18.252  28.989  10.128  1.00  0.00     0.227 C 
HETATM   34  N4  UNL     1      18.366  27.784  10.937  1.00  0.00    -0.308 N 
HETATM   35  C23 UNL     1      19.200  26.670  10.634  1.00  0.00     0.227 C 
HETATM   36  O6  UNL     1      19.191  25.726  11.480  1.00  0.00    -0.273 OA
BRANCH  35  37
HETATM   37  C24 UNL     1      20.022  26.583   9.432  1.00  0.00     0.086 C 
HETATM   38  C25 UNL     1      19.303  26.263   8.166  1.00  0.00     0.002 C 
HETATM   39  C26 UNL     1      18.937  24.793   8.060  1.00  0.00     0.010 C 
HETATM   40  C34 UNL     1      20.264  26.555   7.006  1.00  0.00     0.043 C 
HETATM   41  C27 UNL     1      20.179  23.945   8.183  1.00  0.00    -0.011 C 
HETATM   42  C28 UNL     1      20.801  24.184   9.519  1.00  0.00     0.010 C 
HETATM   43  C33 UNL     1      21.098  24.263   7.040  1.00  0.00     0.042 C 
HETATM   44  C29 UNL     1      21.195  25.641   9.602  1.00  0.00     0.002 C 
HETATM   45  C30 UNL     1      22.169  25.925   8.480  1.00  0.00     0.043 C 
HETATM   46  C31 UNL     1      21.520  25.735   7.147  1.00  0.00     0.061 C 
BRANCH  46  47
HETATM   47  O7  UNL     1      22.380  26.047   6.122  1.00  0.00    -0.385 OA
HETATM   48  C32 UNL     1      23.489  25.268   6.004  1.00  0.00     0.202 C 
ENDBRANCH  46  47
ENDBRANCH  35  37
ENDBRANCH  26  28
ENDBRANCH   1  25
TORSDOF 14
ENDMDL
MODEL 4
REMARK VINA RESULT: -9.557625647      3.608     11.318
REMARK  14 active torsions:
REMARK  status: ('A' for Active; 'I' for Inactive)
REMARK    1  A    between atoms: C2_2  and  C3_3 
REMARK    2  A    between atoms: C3_3  and  C5_5 
REMARK    3  A    between atoms: C3_3  and  C12_20 
REMARK       I    between atoms: C5_5  and  N1_7 
REMARK    4  A    between atoms: N1_7  and  C6_9 
REMARK    5  A    between atoms: C6_9  and  C7_10 
REMARK    6  A    between atoms: C9_13  and  C10_14 
REMARK    7  A    between atoms: C10_14  and  O3_16 
REMARK    8  A    between atoms: C12_20  and  C13_21 
REMARK    9  A    between atoms: C12_20  and  N3_25 
REMARK   10  A    between atoms: C13_21  and  C14_22 
REMARK   11  A    between atoms: C14_22  and  C15_23 
REMARK       I    between atoms: N3_25  and  C17_26 
REMARK   12  A    between atoms: C17_26  and  C18_28 
REMARK       I    between atoms: N4_34  and  C23_35 
REMARK   13  A    between atoms: C23_35  and  C24_37 
REMARK   14  A    between atoms: C31_44  and  O7_45 
ROOT
HETATM    1  C12 UNL     1      19.002  27.330  10.256  1.00  0.00     0.087 C 
ENDROOT
BRANCH   1   2
HETATM    2  C3  UNL     1      18.458  28.207  11.378  1.00  0.00     0.106 C 
HETATM    3  C4  UNL     1      17.579  27.483  12.315  1.00  0.00     0.037 C 
BRANCH   2   4
HETATM    4  C2  UNL     1      17.697  29.333  10.683  1.00  0.00    -0.011 C 
HETATM    5  C1  UNL     1      16.392  29.430  11.176  1.00  0.00     0.008 C 
ENDBRANCH   2   4
BRANCH   2   6
HETATM    6  C5  UNL     1      19.516  28.943  12.139  1.00  0.00     0.240 C 
HETATM    7  O1  UNL     1      20.027  30.026  11.779  1.00  0.00    -0.272 OA
HETATM    8  N1  UNL     1      19.932  28.344  13.350  1.00  0.00    -0.334 N 
ATOM      9  H1  UNL     1      19.490  27.453  13.574  1.00  0.00     0.168 HD
BRANCH   8  10
HETATM   10  C6  UNL     1      20.861  28.804  14.280  1.00  0.00     0.121 C 
BRANCH  10  11
HETATM   11  C7  UNL     1      20.546  30.096  15.009  1.00  0.00     0.055 A 
HETATM   12  C8  UNL     1      19.329  30.432  15.514  1.00  0.00     0.082 A 
HETATM   13  S1  UNL     1      19.706  31.938  16.187  1.00  0.00    -0.076 SA
HETATM   14  C9  UNL     1      21.262  32.087  15.841  1.00  0.00     0.150 A 
HETATM   15  N2  UNL     1      21.601  30.922  15.145  1.00  0.00    -0.344 N 
ATOM     16  H2  UNL     1      22.534  30.723  14.784  1.00  0.00     0.167 HD
BRANCH  14  17
HETATM   17  C10 UNL     1      22.340  33.099  16.131  1.00  0.00     0.317 C 
HETATM   18  O2  UNL     1      23.262  33.242  15.350  1.00  0.00    -0.257 OA
BRANCH  17  19
HETATM   19  O3  UNL     1      22.222  33.813  17.294  1.00  0.00    -0.321 OA
HETATM   20  C11 UNL     1      21.844  35.199  17.277  1.00  0.00     0.213 C 
ENDBRANCH  17  19
ENDBRANCH  14  17
ENDBRANCH  10  11
ENDBRANCH   8  10
ENDBRANCH   2   6
ENDBRANCH   1   2
BRANCH   1  21
HETATM   21  C13 UNL     1      18.739  27.879   8.918  1.00  0.00     0.070 C 
BRANCH  21  22
HETATM   22  C14 UNL     1      18.240  26.876   7.889  1.00  0.00     0.006 C 
BRANCH  22  23
HETATM   23  C15 UNL     1      17.238  25.969   8.561  1.00  0.00    -0.004 C 
HETATM   24  C16 UNL     1      17.090  24.707   7.782  1.00  0.00     0.005 C 
ENDBRANCH  22  23
ENDBRANCH  21  22
ENDBRANCH   1  21
BRANCH   1  25
HETATM   25  N3  UNL     1      20.175  26.667  10.588  1.00  0.00    -0.376 NA
HETATM   26  C17 UNL     1      21.331  26.012  10.916  1.00  0.00     0.317 C 
HETATM   27  O4  UNL     1      21.596  24.984  11.508  1.00  0.00    -0.255 OA
BRANCH  26  28
HETATM   28  C18 UNL     1      22.592  26.756  10.406  1.00  0.00     0.226 C 
HETATM   29  C19 UNL     1      23.530  26.630  11.619  1.00  0.00     0.157 C 
HETATM   30  C20 UNL     1      24.685  27.594  11.447  1.00  0.00     0.039 C 
HETATM   31  O5  UNL     1      24.136  25.404  11.357  1.00  0.00    -0.359 OA
HETATM   32  C21 UNL     1      25.390  26.935  10.267  1.00  0.00     0.056 C 
HETATM   33  C22 UNL     1      24.592  25.698  10.046  1.00  0.00     0.227 C 
HETATM   34  N4  UNL     1      23.316  26.023   9.425  1.00  0.00    -0.308 N 
HETATM   35  C23 UNL     1      22.932  25.657   8.102  1.00  0.00     0.227 C 
HETATM   36  O6  UNL     1      21.764  26.000   7.751  1.00  0.00    -0.273 OA
BRANCH  35  37
HETATM   37  C24 UNL     1      23.804  24.937   7.181  1.00  0.00     0.086 C 
HETATM   38  C25 UNL     1      23.690  25.308   5.742  1.00  0.00     0.002 C 
HETATM   39  C26 UNL     1      22.455  24.716   5.085  1.00  0.00     0.010 C 
HETATM   40  C34 UNL     1      24.899  24.705   5.014  1.00  0.00     0.043 C 
HETATM   41  C27 UNL     1      22.463  23.215   5.237  1.00  0.00    -0.011 C 
HETATM   42  C28 UNL     1      22.436  22.874   6.691  1.00  0.00     0.010 C 
HETATM   43  C33 UNL     1      23.660  22.662   4.524  1.00  0.00     0.042 C 
HETATM   44  C29 UNL     1      23.687  23.435   7.330  1.00  0.00     0.002 C 
HETATM   45  C30 UNL     1      24.881  22.817   6.638  1.00  0.00     0.043 C 
HETATM   46  C31 UNL     1      24.926  23.210   5.196  1.00  0.00     0.061 C 
BRANCH  46  47
HETATM   47  O7  UNL     1      26.041  22.701   4.573  1.00  0.00    -0.385 OA
HETATM   48  C32 UNL     1      26.509  23.400   3.505  1.00  0.00     0.202 C 
ENDBRANCH  46  47
ENDBRANCH  35  37
ENDBRANCH  26  28
ENDBRANCH   1  25
TORSDOF 14
ENDMDL
MODEL 5
REMARK VINA RESULT: -9.510302424      3.103     11.383
REMARK  14 active torsions:
REMARK  status: ('A' for Active; 'I' for Inactive)
REMARK    1  A    between atoms: C2_2  and  C3_3 
REMARK    2  A    between atoms: C3_3  and  C5_5 
REMARK    3  A    between atoms: C3_3  and  C12_20 
REMARK       I    between atoms: C5_5  and  N1_7 
REMARK    4  A    between atoms: N1_7  and  C6_9 
REMARK    5  A    between atoms: C6_9  and  C7_10 
REMARK    6  A    between atoms: C9_13  and  C10_14 
REMARK    7  A    between atoms: C10_14  and  O3_16 
REMARK    8  A    between atoms: C12_20  and  C13_21 
REMARK    9  A    between atoms: C12_20  and  N3_25 
REMARK   10  A    between atoms: C13_21  and  C14_22 
REMARK   11  A    between atoms: C14_22  and  C15_23 
REMARK       I    between atoms: N3_25  and  C17_26 
REMARK   12  A    between atoms: C17_26  and  C18_28 
REMARK       I    between atoms: N4_34  and  C23_35 
REMARK   13  A    between atoms: C23_35  and  C24_37 
REMARK   14  A    between atoms: C31_44  and  O7_45 
ROOT
HETATM    1  C12 UNL     1      18.449  26.616  10.836  1.00  0.00     0.087 C 
ENDROOT
BRANCH   1   2
HETATM    2  C3  UNL     1      18.287  27.858  11.705  1.00  0.00     0.106 C 
HETATM    3  C4  UNL     1      17.503  27.619  12.931  1.00  0.00     0.037 C 
BRANCH   2   4
HETATM    4  C2  UNL     1      17.600  28.891  10.816  1.00  0.00    -0.011 C 
HETATM    5  C1  UNL     1      16.709  29.674  11.558  1.00  0.00     0.008 C 
ENDBRANCH   2   4
BRANCH   2   6
HETATM    6  C5  UNL     1      19.580  28.528  12.051  1.00  0.00     0.240 C 
HETATM    7  O1  UNL     1      20.207  29.298  11.292  1.00  0.00    -0.272 OA
HETATM    8  N1  UNL     1      20.088  28.254  13.341  1.00  0.00    -0.334 N 
ATOM      9  H1  UNL     1      19.538  27.602  13.901  1.00  0.00     0.168 HD
BRANCH   8  10
HETATM   10  C6  UNL     1      21.236  28.751  13.953  1.00  0.00     0.121 C 
BRANCH  10  11
HETATM   11  C7  UNL     1      21.220  30.196  14.410  1.00  0.00     0.055 A 
HETATM   12  C8  UNL     1      22.168  31.124  14.107  1.00  0.00     0.082 A 
HETATM   13  S1  UNL     1      21.514  32.469  14.897  1.00  0.00    -0.076 SA
HETATM   14  C9  UNL     1      20.173  31.871  15.536  1.00  0.00     0.150 A 
HETATM   15  N2  UNL     1      20.150  30.525  15.159  1.00  0.00    -0.344 N 
ATOM     16  H2  UNL     1      19.411  29.871  15.420  1.00  0.00     0.167 HD
BRANCH  14  17
HETATM   17  C10 UNL     1      19.018  32.422  16.333  1.00  0.00     0.317 C 
HETATM   18  O2  UNL     1      19.038  33.581  16.704  1.00  0.00    -0.257 OA
BRANCH  17  19
HETATM   19  O3  UNL     1      17.990  31.561  16.610  1.00  0.00    -0.321 OA
HETATM   20  C11 UNL     1      16.723  31.680  15.943  1.00  0.00     0.213 C 
ENDBRANCH  17  19
ENDBRANCH  14  17
ENDBRANCH  10  11
ENDBRANCH   8  10
ENDBRANCH   2   6
ENDBRANCH   1   2
BRANCH   1  21
HETATM   21  C13 UNL     1      17.675  26.681   9.589  1.00  0.00     0.070 C 
BRANCH  21  22
HETATM   22  C14 UNL     1      18.434  26.295   8.328  1.00  0.00     0.006 C 
BRANCH  22  23
HETATM   23  C15 UNL     1      19.082  27.539   7.768  1.00  0.00    -0.004 C 
HETATM   24  C16 UNL     1      18.388  27.954   6.516  1.00  0.00     0.005 C 
ENDBRANCH  22  23
ENDBRANCH  21  22
ENDBRANCH   1  21
BRANCH   1  25
HETATM   25  N3  UNL     1      19.710  26.041  10.918  1.00  0.00    -0.376 NA
HETATM   26  C17 UNL     1      20.953  25.474  11.000  1.00  0.00     0.317 C 
HETATM   27  O4  UNL     1      21.400  24.456  11.490  1.00  0.00    -0.255 OA
BRANCH  26  28
HETATM   28  C18 UNL     1      22.037  26.331  10.297  1.00  0.00     0.226 C 
HETATM   29  C19 UNL     1      22.927  26.729  11.486  1.00  0.00     0.157 C 
HETATM   30  C20 UNL     1      23.845  27.855  11.056  1.00  0.00     0.039 C 
HETATM   31  O5  UNL     1      23.801  25.646  11.535  1.00  0.00    -0.359 OA
HETATM   32  C21 UNL     1      24.728  27.097  10.071  1.00  0.00     0.056 C 
HETATM   33  C22 UNL     1      24.235  25.696  10.186  1.00  0.00     0.227 C 
HETATM   34  N4  UNL     1      22.946  25.558   9.523  1.00  0.00    -0.308 N 
HETATM   35  C23 UNL     1      22.710  24.794   8.344  1.00  0.00     0.227 C 
HETATM   36  O6  UNL     1      21.511  24.764   7.935  1.00  0.00    -0.273 OA
BRANCH  35  37
HETATM   37  C24 UNL     1      23.758  24.082   7.622  1.00  0.00     0.086 C 
HETATM   38  C25 UNL     1      24.478  24.858   6.572  1.00  0.00     0.002 C 
HETATM   39  C26 UNL     1      23.661  25.010   5.300  1.00  0.00     0.010 C 
HETATM   40  C34 UNL     1      25.732  24.062   6.189  1.00  0.00     0.043 C 
HETATM   41  C27 UNL     1      23.277  23.650   4.771  1.00  0.00    -0.011 C 
HETATM   42  C28 UNL     1      22.440  22.951   5.791  1.00  0.00     0.010 C 
HETATM   43  C33 UNL     1      24.526  22.898   4.418  1.00  0.00     0.042 C 
HETATM   44  C29 UNL     1      23.271  22.771   7.041  1.00  0.00     0.002 C 
HETATM   45  C30 UNL     1      24.493  21.957   6.676  1.00  0.00     0.043 C 
HETATM   46  C31 UNL     1      25.350  22.691   5.695  1.00  0.00     0.061 C 
BRANCH  46  47
HETATM   47  O7  UNL     1      26.492  21.984   5.401  1.00  0.00    -0.385 OA
HETATM   48  C32 UNL     1      26.717  20.864   6.140  1.00  0.00     0.202 C 
ENDBRANCH  46  47
ENDBRANCH  35  37
ENDBRANCH  26  28
ENDBRANCH   1  25
TORSDOF 14
ENDMDL
