MODEL 1
REMARK VINA RESULT: -8.154463194      0.000      0.000
REMARK  15 active torsions:
REMARK  status: ('A' for Active; 'I' for Inactive)
REMARK    1  A    between atoms: C2_2  and  C4_4 
REMARK    2  A    between atoms: C4_4  and  O1_5 
REMARK    3  A    between atoms: O1_5  and  C5_6 
REMARK       I    between atoms: C5_6  and  N1_8 
REMARK    4  A    between atoms: N1_8  and  C6_10 
REMARK    5  A    between atoms: C6_10  and  C7_11 
REMARK    6  A    between atoms: C7_11  and  C8_12 
REMARK    7  A    between atoms: C8_12  and  C9_13 
REMARK    8  A    between atoms: C9_13  and  C10_14 
REMARK    9  A    between atoms: C11_15  and  C12_16 
REMARK   10  A    between atoms: C12_16  and  C13_17 
REMARK       I    between atoms: C13_17  and  N2_19 
REMARK       I    between atoms: N3_22  and  C16_23 
REMARK   11  A    between atoms: C16_23  and  C17_25 
REMARK   12  A    between atoms: C17_25  and  C18_26 
REMARK   13  A    between atoms: C20_29  and  C21_30 
REMARK   14  A    between atoms: C20_29  and  C23_38 
REMARK       I    between atoms: C21_30  and  N4_32 
REMARK   15  A    between atoms: N4_32  and  C22_34 
ROOT
HETATM    1  C13 UNL     1      17.326  33.039  14.534  1.00  0.00     0.223 C 
HETATM    2  O3  UNL     1      17.954  34.125  14.710  1.00  0.00    -0.273 OA
HETATM    3  N2  UNL     1      18.061  32.025  13.819  1.00  0.00    -0.349 N 
HETATM    4  C14 UNL     1      19.335  32.414  13.302  1.00  0.00     0.145 C 
HETATM    5  C15 UNL     1      19.958  31.491  12.334  1.00  0.00     0.145 C 
HETATM    6  N3  UNL     1      19.658  30.109  12.583  1.00  0.00    -0.349 N 
HETATM    7  C16 UNL     1      20.570  29.136  12.031  1.00  0.00     0.220 C 
HETATM    8  O4  UNL     1      21.585  29.548  11.435  1.00  0.00    -0.273 OA
HETATM    9  C27 UNL     1      18.548  29.708  13.367  1.00  0.00     0.145 C 
HETATM   10  C28 UNL     1      17.507  30.711  13.708  1.00  0.00     0.145 C 
ENDROOT
BRANCH   7  11
HETATM   11  C17 UNL     1      20.369  27.664  12.143  1.00  0.00     0.113 C 
BRANCH  11  12
HETATM   12  C18 UNL     1      20.536  26.942  10.828  1.00  0.00     0.068 C 
HETATM   13  C19 UNL     1      20.742  25.443  11.028  1.00  0.00     0.179 C 
HETATM   14  O5  UNL     1      19.344  25.327  11.060  1.00  0.00    -0.364 OA
HETATM   15  C20 UNL     1      19.323  26.439  10.183  1.00  0.00     0.180 C 
BRANCH  15  16
HETATM   16  C21 UNL     1      19.415  25.884   8.803  1.00  0.00     0.261 C 
HETATM   17  O6  UNL     1      20.177  26.302   7.920  1.00  0.00    -0.270 OA
HETATM   18  N4  UNL     1      18.550  24.766   8.443  1.00  0.00    -0.310 N 
ATOM     19  H4  UNL     1      17.903  24.406   9.145  1.00  0.00     0.166 HD
BRANCH  18  20
HETATM   20  C22 UNL     1      18.567  24.154   7.156  1.00  0.00     0.269 C 
HETATM   21 CL1  UNL     1      17.458  22.765   7.153  1.00  0.00    -0.060 Cl
HETATM   22 CL2  UNL     1      20.181  23.527   6.725  1.00  0.00    -0.060 Cl
HETATM   23 CL3  UNL     1      18.036  25.240   5.847  1.00  0.00    -0.060 Cl
ENDBRANCH  18  20
ENDBRANCH  15  16
BRANCH  15  24
HETATM   24  C23 UNL     1      18.062  27.218  10.457  1.00  0.00     0.027 A 
HETATM   25  C24 UNL     1      17.627  28.377   9.906  1.00  0.00     0.019 A 
HETATM   26  C25 UNL     1      16.444  28.871  10.317  1.00  0.00     0.008 A 
HETATM   27  C26 UNL     1      15.767  28.156  11.270  1.00  0.00     0.050 A 
HETATM   28  S1  UNL     1      16.789  26.830  11.560  1.00  0.00    -0.103 SA
ENDBRANCH  15  24
ENDBRANCH  11  12
ENDBRANCH   7  11
BRANCH   1  29
HETATM   29  C12 UNL     1      15.967  32.781  14.987  1.00  0.00     0.129 C 
BRANCH  29  30
HETATM   30  C11 UNL     1      15.822  32.583  16.421  1.00  0.00    -0.022 C 
HETATM   31  C10 UNL     1      15.875  33.652  17.395  1.00  0.00    -0.030 C 
BRANCH  31  32
HETATM   32  C9  UNL     1      14.901  34.720  17.450  1.00  0.00     0.027 C 
BRANCH  32  33
HETATM   33  C8  UNL     1      15.307  36.119  17.753  1.00  0.00     0.005 C 
BRANCH  33  34
HETATM   34  C7  UNL     1      16.478  36.489  16.779  1.00  0.00     0.020 C 
BRANCH  34  35
HETATM   35  C6  UNL     1      17.721  36.702  17.587  1.00  0.00     0.125 C 
BRANCH  35  36
HETATM   36  N1  UNL     1      18.787  35.809  17.181  1.00  0.00    -0.337 N 
HETATM   37  C5  UNL     1      19.750  35.415  18.126  1.00  0.00     0.360 C 
HETATM   38  O2  UNL     1      19.754  35.785  19.333  1.00  0.00    -0.239 OA
ATOM     39  H1  UNL     1      18.839  35.470  16.220  1.00  0.00     0.164 HD
BRANCH  37  40
HETATM   40  O1  UNL     1      20.818  34.543  17.752  1.00  0.00    -0.304 OA
BRANCH  40  41
HETATM   41  C4  UNL     1      21.059  34.419  16.342  1.00  0.00     0.184 C 
BRANCH  41  42
HETATM   42  C2  UNL     1      21.573  33.039  16.060  1.00  0.00     0.002 C 
HETATM   43  C1  UNL     1      22.539  33.106  14.880  1.00  0.00     0.011 C 
HETATM   44  C3  UNL     1      22.353  32.606  17.301  1.00  0.00     0.011 C 
ENDBRANCH  41  42
ENDBRANCH  40  41
ENDBRANCH  37  40
ENDBRANCH  35  36
ENDBRANCH  34  35
ENDBRANCH  33  34
ENDBRANCH  32  33
ENDBRANCH  31  32
ENDBRANCH  29  30
ENDBRANCH   1  29
TORSDOF 15
ENDMDL
MODEL 2
REMARK VINA RESULT: -7.982950445      1.368      1.843
REMARK  15 active torsions:
REMARK  status: ('A' for Active; 'I' for Inactive)
REMARK    1  A    between atoms: C2_2  and  C4_4 
REMARK    2  A    between atoms: C4_4  and  O1_5 
REMARK    3  A    between atoms: O1_5  and  C5_6 
REMARK       I    between atoms: C5_6  and  N1_8 
REMARK    4  A    between atoms: N1_8  and  C6_10 
REMARK    5  A    between atoms: C6_10  and  C7_11 
REMARK    6  A    between atoms: C7_11  and  C8_12 
REMARK    7  A    between atoms: C8_12  and  C9_13 
REMARK    8  A    between atoms: C9_13  and  C10_14 
REMARK    9  A    between atoms: C11_15  and  C12_16 
REMARK   10  A    between atoms: C12_16  and  C13_17 
REMARK       I    between atoms: C13_17  and  N2_19 
REMARK       I    between atoms: N3_22  and  C16_23 
REMARK   11  A    between atoms: C16_23  and  C17_25 
REMARK   12  A    between atoms: C17_25  and  C18_26 
REMARK   13  A    between atoms: C20_29  and  C21_30 
REMARK   14  A    between atoms: C20_29  and  C23_38 
REMARK       I    between atoms: C21_30  and  N4_32 
REMARK   15  A    between atoms: N4_32  and  C22_34 
ROOT
HETATM    1  C13 UNL     1      17.746  32.779  15.004  1.00  0.00     0.223 C 
HETATM    2  O3  UNL     1      18.195  33.959  14.903  1.00  0.00    -0.273 OA
HETATM    3  N2  UNL     1      18.422  31.802  14.185  1.00  0.00    -0.349 N 
HETATM    4  C14 UNL     1      19.412  32.308  13.286  1.00  0.00     0.145 C 
HETATM    5  C15 UNL     1      19.895  31.373  12.252  1.00  0.00     0.145 C 
HETATM    6  N3  UNL     1      19.927  30.004  12.685  1.00  0.00    -0.349 N 
HETATM    7  C16 UNL     1      20.808  29.116  11.966  1.00  0.00     0.220 C 
HETATM    8  O4  UNL     1      21.527  29.595  11.067  1.00  0.00    -0.273 OA
HETATM    9  C27 UNL     1      19.168  29.545  13.791  1.00  0.00     0.145 C 
HETATM   10  C28 UNL     1      18.102  30.418  14.344  1.00  0.00     0.145 C 
ENDROOT
BRANCH   7  11
HETATM   11  C17 UNL     1      20.911  27.656  12.245  1.00  0.00     0.113 C 
BRANCH  11  12
HETATM   12  C18 UNL     1      21.166  26.832  11.006  1.00  0.00     0.068 C 
HETATM   13  C19 UNL     1      21.379  25.358  11.341  1.00  0.00     0.179 C 
HETATM   14  O5  UNL     1      19.983  25.221  11.300  1.00  0.00    -0.364 OA
HETATM   15  C20 UNL     1      20.001  26.257  10.334  1.00  0.00     0.180 C 
BRANCH  15  16
HETATM   16  C21 UNL     1      20.183  25.593   9.013  1.00  0.00     0.261 C 
HETATM   17  O6  UNL     1      19.322  24.918   8.434  1.00  0.00    -0.270 OA
HETATM   18  N4  UNL     1      21.466  25.736   8.334  1.00  0.00    -0.310 N 
ATOM     19  H4  UNL     1      22.201  26.278   8.791  1.00  0.00     0.166 HD
BRANCH  18  20
HETATM   20  C22 UNL     1      21.742  25.153   7.063  1.00  0.00     0.269 C 
HETATM   21 CL1  UNL     1      23.450  25.422   6.653  1.00  0.00    -0.060 Cl
HETATM   22 CL2  UNL     1      20.775  25.890   5.757  1.00  0.00    -0.060 Cl
HETATM   23 CL3  UNL     1      21.471  23.392   7.016  1.00  0.00    -0.060 Cl
ENDBRANCH  18  20
ENDBRANCH  15  16
BRANCH  15  24
HETATM   24  C23 UNL     1      18.715  27.033  10.469  1.00  0.00     0.027 A 
HETATM   25  C24 UNL     1      18.252  28.070   9.728  1.00  0.00     0.019 A 
HETATM   26  C25 UNL     1      17.052  28.590  10.046  1.00  0.00     0.008 A 
HETATM   27  C26 UNL     1      16.388  28.027  11.103  1.00  0.00     0.050 A 
HETATM   28  S1  UNL     1      17.445  26.799  11.616  1.00  0.00    -0.103 SA
ENDBRANCH  15  24
ENDBRANCH  11  12
ENDBRANCH   7  11
BRANCH   1  29
HETATM   29  C12 UNL     1      16.635  32.382  15.857  1.00  0.00     0.129 C 
BRANCH  29  30
HETATM   30  C11 UNL     1      15.470  33.252  15.798  1.00  0.00    -0.022 C 
HETATM   31  C10 UNL     1      15.129  34.216  16.821  1.00  0.00    -0.030 C 
BRANCH  31  32
HETATM   32  C9  UNL     1      15.959  35.357  17.142  1.00  0.00     0.027 C 
BRANCH  32  33
HETATM   33  C8  UNL     1      16.546  35.527  18.497  1.00  0.00     0.005 C 
BRANCH  33  34
HETATM   34  C7  UNL     1      18.019  34.992  18.440  1.00  0.00     0.020 C 
BRANCH  34  35
HETATM   35  C6  UNL     1      18.868  36.005  17.737  1.00  0.00     0.125 C 
BRANCH  35  36
HETATM   36  N1  UNL     1      19.917  35.381  16.956  1.00  0.00    -0.337 N 
HETATM   37  C5  UNL     1      21.205  35.263  17.507  1.00  0.00     0.360 C 
HETATM   38  O2  UNL     1      21.524  35.665  18.660  1.00  0.00    -0.239 OA
ATOM     39  H1  UNL     1      19.724  35.031  16.018  1.00  0.00     0.164 HD
BRANCH  37  40
HETATM   40  O1  UNL     1      22.261  34.660  16.757  1.00  0.00    -0.304 OA
BRANCH  40  41
HETATM   41  C4  UNL     1      21.853  33.790  15.690  1.00  0.00     0.184 C 
BRANCH  41  42
HETATM   42  C2  UNL     1      22.255  32.387  16.032  1.00  0.00     0.002 C 
HETATM   43  C1  UNL     1      21.029  31.635  16.543  1.00  0.00     0.011 C 
HETATM   44  C3  UNL     1      22.713  31.737  14.726  1.00  0.00     0.011 C 
ENDBRANCH  41  42
ENDBRANCH  40  41
ENDBRANCH  37  40
ENDBRANCH  35  36
ENDBRANCH  34  35
ENDBRANCH  33  34
ENDBRANCH  32  33
ENDBRANCH  31  32
ENDBRANCH  29  30
ENDBRANCH   1  29
TORSDOF 15
ENDMDL
MODEL 3
REMARK VINA RESULT: -7.872060912      1.350      1.668
REMARK  15 active torsions:
REMARK  status: ('A' for Active; 'I' for Inactive)
REMARK    1  A    between atoms: C2_2  and  C4_4 
REMARK    2  A    between atoms: C4_4  and  O1_5 
REMARK    3  A    between atoms: O1_5  and  C5_6 
REMARK       I    between atoms: C5_6  and  N1_8 
REMARK    4  A    between atoms: N1_8  and  C6_10 
REMARK    5  A    between atoms: C6_10  and  C7_11 
REMARK    6  A    between atoms: C7_11  and  C8_12 
REMARK    7  A    between atoms: C8_12  and  C9_13 
REMARK    8  A    between atoms: C9_13  and  C10_14 
REMARK    9  A    between atoms: C11_15  and  C12_16 
REMARK   10  A    between atoms: C12_16  and  C13_17 
REMARK       I    between atoms: C13_17  and  N2_19 
REMARK       I    between atoms: N3_22  and  C16_23 
REMARK   11  A    between atoms: C16_23  and  C17_25 
REMARK   12  A    between atoms: C17_25  and  C18_26 
REMARK   13  A    between atoms: C20_29  and  C21_30 
REMARK   14  A    between atoms: C20_29  and  C23_38 
REMARK       I    between atoms: C21_30  and  N4_32 
REMARK   15  A    between atoms: N4_32  and  C22_34 
ROOT
HETATM    1  C13 UNL     1      17.425  32.706  15.205  1.00  0.00     0.223 C 
HETATM    2  O3  UNL     1      17.836  33.905  15.193  1.00  0.00    -0.273 OA
HETATM    3  N2  UNL     1      18.178  31.802  14.371  1.00  0.00    -0.349 N 
HETATM    4  C14 UNL     1      19.196  32.390  13.557  1.00  0.00     0.145 C 
HETATM    5  C15 UNL     1      19.767  31.532  12.501  1.00  0.00     0.145 C 
HETATM    6  N3  UNL     1      19.825  30.143  12.858  1.00  0.00    -0.349 N 
HETATM    7  C16 UNL     1      20.774  29.327  12.141  1.00  0.00     0.220 C 
HETATM    8  O4  UNL     1      21.522  29.880  11.310  1.00  0.00    -0.273 OA
HETATM    9  C27 UNL     1      19.026  29.597  13.893  1.00  0.00     0.145 C 
HETATM   10  C28 UNL     1      17.901  30.400  14.435  1.00  0.00     0.145 C 
ENDROOT
BRANCH   7  11
HETATM   11  C17 UNL     1      20.915  27.858  12.343  1.00  0.00     0.113 C 
BRANCH  11  12
HETATM   12  C18 UNL     1      21.180  27.106  11.062  1.00  0.00     0.068 C 
HETATM   13  C19 UNL     1      21.725  25.705  11.331  1.00  0.00     0.179 C 
HETATM   14  O5  UNL     1      20.391  25.286  11.451  1.00  0.00    -0.364 OA
HETATM   15  C20 UNL     1      20.083  26.305  10.517  1.00  0.00     0.180 C 
BRANCH  15  16
HETATM   16  C21 UNL     1      20.235  25.695   9.167  1.00  0.00     0.261 C 
HETATM   17  O6  UNL     1      19.330  25.131   8.537  1.00  0.00    -0.270 OA
HETATM   18  N4  UNL     1      21.541  25.754   8.520  1.00  0.00    -0.310 N 
ATOM     19  H4  UNL     1      22.311  26.203   9.017  1.00  0.00     0.166 HD
BRANCH  18  20
HETATM   20  C22 UNL     1      21.791  25.213   7.225  1.00  0.00     0.269 C 
HETATM   21 CL1  UNL     1      21.502  23.459   7.257  1.00  0.00    -0.060 Cl
HETATM   22 CL2  UNL     1      23.483  25.448   6.708  1.00  0.00    -0.060 Cl
HETATM   23 CL3  UNL     1      20.735  25.886   5.958  1.00  0.00    -0.060 Cl
ENDBRANCH  18  20
ENDBRANCH  15  16
BRANCH  15  24
HETATM   24  C23 UNL     1      18.693  26.803  10.822  1.00  0.00     0.027 A 
HETATM   25  C24 UNL     1      17.793  26.349  11.729  1.00  0.00     0.019 A 
HETATM   26  C25 UNL     1      16.608  26.981  11.819  1.00  0.00     0.008 A 
HETATM   27  C26 UNL     1      16.402  28.043  10.978  1.00  0.00     0.050 A 
HETATM   28  S1  UNL     1      17.853  28.128  10.098  1.00  0.00    -0.103 SA
ENDBRANCH  15  24
ENDBRANCH  11  12
ENDBRANCH   7  11
BRANCH   1  29
HETATM   29  C12 UNL     1      16.286  32.225  15.971  1.00  0.00     0.129 C 
BRANCH  29  30
HETATM   30  C11 UNL     1      15.224  33.199  16.176  1.00  0.00    -0.022 C 
HETATM   31  C10 UNL     1      14.921  33.806  17.454  1.00  0.00    -0.030 C 
BRANCH  31  32
HETATM   32  C9  UNL     1      15.843  34.671  18.158  1.00  0.00     0.027 C 
BRANCH  32  33
HETATM   33  C8  UNL     1      16.225  36.000  17.610  1.00  0.00     0.005 C 
BRANCH  33  34
HETATM   34  C7  UNL     1      17.221  36.657  18.627  1.00  0.00     0.020 C 
BRANCH  34  35
HETATM   35  C6  UNL     1      18.476  37.023  17.896  1.00  0.00     0.125 C 
BRANCH  35  36
HETATM   36  N1  UNL     1      19.022  35.897  17.167  1.00  0.00    -0.337 N 
HETATM   37  C5  UNL     1      20.032  35.119  17.760  1.00  0.00     0.360 C 
HETATM   38  O2  UNL     1      20.508  35.330  18.910  1.00  0.00    -0.239 OA
ATOM     39  H1  UNL     1      18.679  35.671  16.234  1.00  0.00     0.164 HD
BRANCH  37  40
HETATM   40  O1  UNL     1      20.596  34.009  17.060  1.00  0.00    -0.304 OA
BRANCH  40  41
HETATM   41  C4  UNL     1      21.495  34.336  15.989  1.00  0.00     0.184 C 
BRANCH  41  42
HETATM   42  C2  UNL     1      22.681  33.422  16.058  1.00  0.00     0.002 C 
HETATM   43  C1  UNL     1      22.414  32.350  17.111  1.00  0.00     0.011 C 
HETATM   44  C3  UNL     1      22.785  32.744  14.692  1.00  0.00     0.011 C 
ENDBRANCH  41  42
ENDBRANCH  40  41
ENDBRANCH  37  40
ENDBRANCH  35  36
ENDBRANCH  34  35
ENDBRANCH  33  34
ENDBRANCH  32  33
ENDBRANCH  31  32
ENDBRANCH  29  30
ENDBRANCH   1  29
TORSDOF 15
ENDMDL
MODEL 4
REMARK VINA RESULT: -7.834443050      4.716     10.936
REMARK  15 active torsions:
REMARK  status: ('A' for Active; 'I' for Inactive)
REMARK    1  A    between atoms: C2_2  and  C4_4 
REMARK    2  A    between atoms: C4_4  and  O1_5 
REMARK    3  A    between atoms: O1_5  and  C5_6 
REMARK       I    between atoms: C5_6  and  N1_8 
REMARK    4  A    between atoms: N1_8  and  C6_10 
REMARK    5  A    between atoms: C6_10  and  C7_11 
REMARK    6  A    between atoms: C7_11  and  C8_12 
REMARK    7  A    between atoms: C8_12  and  C9_13 
REMARK    8  A    between atoms: C9_13  and  C10_14 
REMARK    9  A    between atoms: C11_15  and  C12_16 
REMARK   10  A    between atoms: C12_16  and  C13_17 
REMARK       I    between atoms: C13_17  and  N2_19 
REMARK       I    between atoms: N3_22  and  C16_23 
REMARK   11  A    between atoms: C16_23  and  C17_25 
REMARK   12  A    between atoms: C17_25  and  C18_26 
REMARK   13  A    between atoms: C20_29  and  C21_30 
REMARK   14  A    between atoms: C20_29  and  C23_38 
REMARK       I    between atoms: C21_30  and  N4_32 
REMARK   15  A    between atoms: N4_32  and  C22_34 
ROOT
HETATM    1  C13 UNL     1      19.980  25.030   8.169  1.00  0.00     0.223 C 
HETATM    2  O3  UNL     1      20.063  23.817   8.524  1.00  0.00    -0.273 OA
HETATM    3  N2  UNL     1      19.363  25.903   9.137  1.00  0.00    -0.349 N 
HETATM    4  C14 UNL     1      18.822  25.274  10.301  1.00  0.00     0.145 C 
HETATM    5  C15 UNL     1      17.944  26.106  11.146  1.00  0.00     0.145 C 
HETATM    6  N3  UNL     1      18.313  27.493  11.167  1.00  0.00    -0.349 N 
HETATM    7  C16 UNL     1      17.857  28.270  12.293  1.00  0.00     0.220 C 
HETATM    8  O4  UNL     1      17.233  27.687  13.201  1.00  0.00    -0.273 OA
HETATM    9  C27 UNL     1      19.123  28.073  10.158  1.00  0.00     0.145 C 
HETATM   10  C28 UNL     1      19.366  27.314   8.905  1.00  0.00     0.145 C 
ENDROOT
BRANCH   7  11
HETATM   11  C17 UNL     1      18.097  29.734  12.435  1.00  0.00     0.113 C 
BRANCH  11  12
HETATM   12  C18 UNL     1      19.436  30.057  13.053  1.00  0.00     0.068 C 
HETATM   13  C19 UNL     1      20.266  30.973  12.156  1.00  0.00     0.179 C 
HETATM   14  O5  UNL     1      19.589  32.049  12.749  1.00  0.00    -0.364 OA
HETATM   15  C20 UNL     1      19.509  31.242  13.910  1.00  0.00     0.180 C 
BRANCH  15  16
HETATM   16  C21 UNL     1      20.755  31.498  14.684  1.00  0.00     0.261 C 
HETATM   17  O6  UNL     1      21.628  30.652  14.923  1.00  0.00    -0.270 OA
HETATM   18  N4  UNL     1      20.983  32.838  15.212  1.00  0.00    -0.310 N 
ATOM     19  H4  UNL     1      20.278  33.555  15.042  1.00  0.00     0.166 HD
BRANCH  18  20
HETATM   20  C22 UNL     1      22.147  33.192  15.955  1.00  0.00     0.269 C 
HETATM   21 CL1  UNL     1      22.043  34.904  16.426  1.00  0.00    -0.060 Cl
HETATM   22 CL2  UNL     1      23.643  33.010  15.000  1.00  0.00    -0.060 Cl
HETATM   23 CL3  UNL     1      22.341  32.256  17.459  1.00  0.00    -0.060 Cl
ENDBRANCH  18  20
ENDBRANCH  15  16
BRANCH  15  24
HETATM   24  C23 UNL     1      18.239  31.605  14.636  1.00  0.00     0.027 A 
HETATM   25  C24 UNL     1      17.537  30.896  15.555  1.00  0.00     0.019 A 
HETATM   26  C25 UNL     1      16.426  31.453  16.072  1.00  0.00     0.008 A 
HETATM   27  C26 UNL     1      16.088  32.703  15.625  1.00  0.00     0.050 A 
HETATM   28  S1  UNL     1      17.318  33.062  14.509  1.00  0.00    -0.103 SA
ENDBRANCH  15  24
ENDBRANCH  11  12
ENDBRANCH   7  11
BRANCH   1  29
HETATM   29  C12 UNL     1      20.445  25.557   6.894  1.00  0.00     0.129 C 
BRANCH  29  30
HETATM   30  C11 UNL     1      19.938  24.866   5.718  1.00  0.00    -0.022 C 
HETATM   31  C10 UNL     1      20.775  24.375   4.646  1.00  0.00    -0.030 C 
BRANCH  31  32
HETATM   32  C9  UNL     1      21.762  23.332   4.826  1.00  0.00     0.027 C 
BRANCH  32  33
HETATM   33  C8  UNL     1      21.500  22.169   5.716  1.00  0.00     0.005 C 
BRANCH  33  34
HETATM   34  C7  UNL     1      22.772  21.968   6.612  1.00  0.00     0.020 C 
BRANCH  34  35
HETATM   35  C6  UNL     1      23.304  23.315   6.993  1.00  0.00     0.125 C 
BRANCH  35  36
HETATM   36  N1  UNL     1      23.247  23.531   8.425  1.00  0.00    -0.337 N 
HETATM   37  C5  UNL     1      23.592  24.791   8.943  1.00  0.00     0.360 C 
HETATM   38  O2  UNL     1      23.953  25.775   8.239  1.00  0.00    -0.239 OA
ATOM     39  H1  UNL     1      22.960  22.778   9.049  1.00  0.00     0.164 HD
BRANCH  37  40
HETATM   40  O1  UNL     1      23.554  25.030  10.351  1.00  0.00    -0.304 OA
BRANCH  40  41
HETATM   41  C4  UNL     1      22.555  25.959  10.801  1.00  0.00     0.184 C 
BRANCH  41  42
HETATM   42  C2  UNL     1      23.232  27.225  11.232  1.00  0.00     0.002 C 
HETATM   43  C1  UNL     1      22.399  27.877  12.332  1.00  0.00     0.011 C 
HETATM   44  C3  UNL     1      24.580  26.814  11.824  1.00  0.00     0.011 C 
ENDBRANCH  41  42
ENDBRANCH  40  41
ENDBRANCH  37  40
ENDBRANCH  35  36
ENDBRANCH  34  35
ENDBRANCH  33  34
ENDBRANCH  32  33
ENDBRANCH  31  32
ENDBRANCH  29  30
ENDBRANCH   1  29
TORSDOF 15
ENDMDL
MODEL 5
REMARK VINA RESULT: -7.785603115      2.990      4.668
REMARK  15 active torsions:
REMARK  status: ('A' for Active; 'I' for Inactive)
REMARK    1  A    between atoms: C2_2  and  C4_4 
REMARK    2  A    between atoms: C4_4  and  O1_5 
REMARK    3  A    between atoms: O1_5  and  C5_6 
REMARK       I    between atoms: C5_6  and  N1_8 
REMARK    4  A    between atoms: N1_8  and  C6_10 
REMARK    5  A    between atoms: C6_10  and  C7_11 
REMARK    6  A    between atoms: C7_11  and  C8_12 
REMARK    7  A    between atoms: C8_12  and  C9_13 
REMARK    8  A    between atoms: C9_13  and  C10_14 
REMARK    9  A    between atoms: C11_15  and  C12_16 
REMARK   10  A    between atoms: C12_16  and  C13_17 
REMARK       I    between atoms: C13_17  and  N2_19 
REMARK       I    between atoms: N3_22  and  C16_23 
REMARK   11  A    between atoms: C16_23  and  C17_25 
REMARK   12  A    between atoms: C17_25  and  C18_26 
REMARK   13  A    between atoms: C20_29  and  C21_30 
REMARK   14  A    between atoms: C20_29  and  C23_38 
REMARK       I    between atoms: C21_30  and  N4_32 
REMARK   15  A    between atoms: N4_32  and  C22_34 
ROOT
HETATM    1  C13 UNL     1      18.086  31.165  14.317  1.00  0.00     0.223 C 
HETATM    2  O3  UNL     1      17.903  32.272  13.730  1.00  0.00    -0.273 OA
HETATM    3  N2  UNL     1      17.815  30.001  13.509  1.00  0.00    -0.349 N 
HETATM    4  C14 UNL     1      17.263  30.245  12.213  1.00  0.00     0.145 C 
HETATM    5  C15 UNL     1      16.717  29.072  11.504  1.00  0.00     0.145 C 
HETATM    6  N3  UNL     1      17.419  27.852  11.784  1.00  0.00    -0.349 N 
HETATM    7  C16 UNL     1      17.295  26.793  10.813  1.00  0.00     0.220 C 
HETATM    8  O4  UNL     1      16.648  27.018   9.771  1.00  0.00    -0.273 OA
HETATM    9  C27 UNL     1      18.233  27.699  12.934  1.00  0.00     0.145 C 
HETATM   10  C28 UNL     1      18.142  28.706  14.021  1.00  0.00     0.145 C 
ENDROOT
BRANCH   7  11
HETATM   11  C17 UNL     1      17.906  25.445  10.982  1.00  0.00     0.113 C 
BRANCH  11  12
HETATM   12  C18 UNL     1      19.329  25.371  10.484  1.00  0.00     0.068 C 
HETATM   13  C19 UNL     1      20.089  24.205  11.112  1.00  0.00     0.179 C 
HETATM   14  O5  UNL     1      19.554  23.401  10.093  1.00  0.00    -0.364 OA
HETATM   15  C20 UNL     1      19.577  24.565   9.287  1.00  0.00     0.180 C 
BRANCH  15  16
HETATM   16  C21 UNL     1      20.924  24.610   8.654  1.00  0.00     0.261 C 
HETATM   17  O6  UNL     1      21.707  25.567   8.718  1.00  0.00    -0.270 OA
HETATM   18  N4  UNL     1      21.374  23.449   7.893  1.00  0.00    -0.310 N 
ATOM     19  H4  UNL     1      20.747  22.648   7.812  1.00  0.00     0.166 HD
BRANCH  18  20
HETATM   20  C22 UNL     1      22.648  23.383   7.258  1.00  0.00     0.269 C 
HETATM   21 CL1  UNL     1      22.651  24.451   5.837  1.00  0.00    -0.060 Cl
HETATM   22 CL2  UNL     1      23.028  21.741   6.670  1.00  0.00    -0.060 Cl
HETATM   23 CL3  UNL     1      23.991  23.913   8.303  1.00  0.00    -0.060 Cl
ENDBRANCH  18  20
ENDBRANCH  15  16
BRANCH  15  24
HETATM   24  C23 UNL     1      18.432  24.471   8.310  1.00  0.00     0.027 A 
HETATM   25  C24 UNL     1      18.103  25.294   7.285  1.00  0.00     0.019 A 
HETATM   26  C25 UNL     1      17.026  24.981   6.540  1.00  0.00     0.008 A 
HETATM   27  C26 UNL     1      16.340  23.845   6.882  1.00  0.00     0.050 A 
HETATM   28  S1  UNL     1      17.210  23.253   8.216  1.00  0.00    -0.103 SA
ENDBRANCH  15  24
ENDBRANCH  11  12
ENDBRANCH   7  11
BRANCH   1  29
HETATM   29  C12 UNL     1      18.527  31.017  15.696  1.00  0.00     0.129 C 
BRANCH  29  30
HETATM   30  C11 UNL     1      18.199  32.133  16.571  1.00  0.00    -0.022 C 
HETATM   31  C10 UNL     1      19.145  33.154  16.967  1.00  0.00    -0.030 C 
BRANCH  31  32
HETATM   32  C9  UNL     1      19.754  34.074  16.031  1.00  0.00     0.027 C 
BRANCH  32  33
HETATM   33  C8  UNL     1      21.225  34.294  16.012  1.00  0.00     0.005 C 
BRANCH  33  34
HETATM   34  C7  UNL     1      21.899  33.008  16.604  1.00  0.00     0.020 C 
BRANCH  34  35
HETATM   35  C6  UNL     1      22.866  32.470  15.595  1.00  0.00     0.125 C 
BRANCH  35  36
HETATM   36  N1  UNL     1      22.426  31.201  15.051  1.00  0.00    -0.337 N 
HETATM   37  C5  UNL     1      21.738  31.180  13.825  1.00  0.00     0.360 C 
HETATM   38  O2  UNL     1      21.473  32.208  13.142  1.00  0.00    -0.239 OA
ATOM     39  H1  UNL     1      22.612  30.332  15.552  1.00  0.00     0.164 HD
BRANCH  37  40
HETATM   40  O1  UNL     1      21.284  29.945  13.269  1.00  0.00    -0.304 OA
BRANCH  40  41
HETATM   41  C4  UNL     1      22.171  28.826  13.425  1.00  0.00     0.184 C 
BRANCH  41  42
HETATM   42  C2  UNL     1      21.941  27.867  12.296  1.00  0.00     0.002 C 
HETATM   43  C1  UNL     1      21.366  28.635  11.110  1.00  0.00     0.011 C 
HETATM   44  C3  UNL     1      23.314  27.323  11.904  1.00  0.00     0.011 C 
ENDBRANCH  41  42
ENDBRANCH  40  41
ENDBRANCH  37  40
ENDBRANCH  35  36
ENDBRANCH  34  35
ENDBRANCH  33  34
ENDBRANCH  32  33
ENDBRANCH  31  32
ENDBRANCH  29  30
ENDBRANCH   1  29
TORSDOF 15
ENDMDL
