MODEL 1
REMARK VINA RESULT: -8.719708285      0.000      0.000
REMARK  13 active torsions:
REMARK  status: ('A' for Active; 'I' for Inactive)
REMARK    1  A    between atoms: C7_8  and  N1_9 
REMARK    2  A    between atoms: N1_9  and  C8_10 
REMARK       I    between atoms: N1_9  and  C22_31 
REMARK    3  A    between atoms: C8_10  and  C9_11 
REMARK    4  A    between atoms: C9_11  and  N2_12 
REMARK    5  A    between atoms: C12_15  and  C13_16 
REMARK    6  A    between atoms: C13_16  and  N3_17 
REMARK    7  A    between atoms: N3_17  and  C14_19 
REMARK    8  A    between atoms: C14_19  and  C15_20 
REMARK    9  A    between atoms: C14_19  and  C17_24 
REMARK   10  A    between atoms: C15_20  and  S1_21 
REMARK   11  A    between atoms: C22_31  and  C23_33 
REMARK   12  A    between atoms: C23_33  and  C24_34 
REMARK   13  A    between atoms: C24_34  and  C25_35 
REMARK       I    between atoms: C25_35  and  N5_37 
ROOT
HETATM    1  S1  UNL     1      19.568  39.024  17.692  1.00  0.00    -0.049 SA
HETATM    2  C16 UNL     1      17.929  39.416  17.121  1.00  0.00     0.133 C 
HETATM    3  N4  UNL     1      16.852  39.652  16.737  1.00  0.00    -0.184 NA
ENDROOT
BRANCH   1   4
HETATM    4  C15 UNL     1      19.495  37.504  18.625  1.00  0.00     0.115 C 
BRANCH   4   5
HETATM    5  C14 UNL     1      19.594  36.234  17.780  1.00  0.00     0.095 C 
BRANCH   5   6
HETATM    6  N3  UNL     1      18.442  35.445  18.221  1.00  0.00    -0.415 N 
ATOM      7  H3  UNL     1      18.463  34.873  19.066  1.00  0.00     0.153 HD
BRANCH   6   8
HETATM    8  C13 UNL     1      17.294  35.534  17.389  1.00  0.00     0.118 C 
BRANCH   8   9
HETATM    9  C12 UNL     1      17.469  34.434  16.328  1.00  0.00     0.006 C 
HETATM   10  C11 UNL     1      18.034  33.257  17.097  1.00  0.00     0.026 C 
HETATM   11  C10 UNL     1      18.136  32.022  16.250  1.00  0.00     0.122 C 
HETATM   12  N2  UNL     1      16.946  31.847  15.486  1.00  0.00    -0.392 N 
HETATM   13  C21 UNL     1      15.833  32.644  15.942  1.00  0.00     0.122 C 
HETATM   14  C20 UNL     1      16.179  34.109  15.660  1.00  0.00     0.026 C 
BRANCH  12  15
HETATM   15  C9  UNL     1      17.084  31.767  14.094  1.00  0.00     0.078 C 
BRANCH  15  16
HETATM   16  C8  UNL     1      18.396  31.740  13.453  1.00  0.00     0.176 C 
BRANCH  16  17
HETATM   17  N1  UNL     1      18.839  30.548  12.776  1.00  0.00    -0.311 N 
HETATM   18  C22 UNL     1      20.067  30.569  12.006  1.00  0.00     0.225 C 
HETATM   19  O1  UNL     1      20.543  31.729  11.778  1.00  0.00    -0.273 OA
BRANCH  17  20
HETATM   20  C7  UNL     1      18.195  29.293  12.889  1.00  0.00     0.065 A 
HETATM   21  C2  UNL     1      17.315  28.784  11.986  1.00  0.00    -0.033 A 
HETATM   22  C1  UNL     1      16.906  29.469  10.742  1.00  0.00     0.050 C 
HETATM   23  C3  UNL     1      16.721  27.528  12.179  1.00  0.00     0.009 A 
HETATM   24  C4  UNL     1      17.000  26.761  13.283  1.00  0.00     0.002 A 
HETATM   25  C5  UNL     1      17.893  27.265  14.211  1.00  0.00     0.026 A 
HETATM   26  C6  UNL     1      18.463  28.494  14.004  1.00  0.00     0.061 A 
HETATM   27 CL1  UNL     1      19.591  29.072  15.211  1.00  0.00    -0.082 Cl
ENDBRANCH  17  20
BRANCH  18  28
HETATM   28  C23 UNL     1      20.760  29.399  11.501  1.00  0.00     0.112 C 
BRANCH  28  29
HETATM   29  C24 UNL     1      21.601  28.756  12.552  1.00  0.00     0.112 C 
BRANCH  29  30
HETATM   30  C25 UNL     1      22.418  27.653  11.987  1.00  0.00     0.220 C 
HETATM   31  O2  UNL     1      23.669  27.720  12.122  1.00  0.00    -0.273 OA
HETATM   32  N5  UNL     1      21.790  26.564  11.317  1.00  0.00    -0.349 N 
HETATM   33  C26 UNL     1      22.540  25.505  10.732  1.00  0.00     0.145 C 
HETATM   34  C32 UNL     1      20.363  26.522  11.243  1.00  0.00     0.150 C 
HETATM   35  C27 UNL     1      22.045  25.287   9.321  1.00  0.00     0.137 C 
HETATM   36  N6  UNL     1      20.648  25.406   9.135  1.00  0.00    -0.405 N 
HETATM   37  C28 UNL     1      19.895  24.202   9.149  1.00  0.00     0.117 C 
HETATM   38  C31 UNL     1      19.969  26.451   9.803  1.00  0.00     0.097 C 
HETATM   39  C29 UNL     1      18.584  24.548   9.856  1.00  0.00     0.021 C 
HETATM   40  C30 UNL     1      18.504  26.066   9.694  1.00  0.00     0.028 C 
ENDBRANCH  29  30
ENDBRANCH  28  29
ENDBRANCH  18  28
ENDBRANCH  16  17
ENDBRANCH  15  16
ENDBRANCH  12  15
ENDBRANCH   8   9
ENDBRANCH   6   8
ENDBRANCH   5   6
BRANCH   5  41
HETATM   41  C17 UNL     1      20.864  35.496  18.026  1.00  0.00     0.068 A 
HETATM   42  C18 UNL     1      22.180  35.882  17.426  1.00  0.00     0.072 A 
HETATM   43  C19 UNL     1      21.452  34.726  16.832  1.00  0.00     0.185 A 
HETATM   44  F1  UNL     1      20.868  34.926  15.597  1.00  0.00    -0.225 F 
HETATM   45 CL2  UNL     1      21.996  33.073  17.119  1.00  0.00    -0.082 Cl
ENDBRANCH   5  41
ENDBRANCH   4   5
ENDBRANCH   1   4
TORSDOF 13
ENDMDL
MODEL 2
REMARK VINA RESULT: -8.708929982      4.470     11.017
REMARK  13 active torsions:
REMARK  status: ('A' for Active; 'I' for Inactive)
REMARK    1  A    between atoms: C7_8  and  N1_9 
REMARK    2  A    between atoms: N1_9  and  C8_10 
REMARK       I    between atoms: N1_9  and  C22_31 
REMARK    3  A    between atoms: C8_10  and  C9_11 
REMARK    4  A    between atoms: C9_11  and  N2_12 
REMARK    5  A    between atoms: C12_15  and  C13_16 
REMARK    6  A    between atoms: C13_16  and  N3_17 
REMARK    7  A    between atoms: N3_17  and  C14_19 
REMARK    8  A    between atoms: C14_19  and  C15_20 
REMARK    9  A    between atoms: C14_19  and  C17_24 
REMARK   10  A    between atoms: C15_20  and  S1_21 
REMARK   11  A    between atoms: C22_31  and  C23_33 
REMARK   12  A    between atoms: C23_33  and  C24_34 
REMARK   13  A    between atoms: C24_34  and  C25_35 
REMARK       I    between atoms: C25_35  and  N5_37 
ROOT
HETATM    1  S1  UNL     1      18.974  26.955   7.226  1.00  0.00    -0.049 SA
HETATM    2  C16 UNL     1      18.153  27.715   8.609  1.00  0.00     0.133 C 
HETATM    3  N4  UNL     1      17.600  28.196   9.518  1.00  0.00    -0.184 NA
ENDROOT
BRANCH   1   4
HETATM    4  C15 UNL     1      19.493  25.316   7.707  1.00  0.00     0.115 C 
BRANCH   4   5
HETATM    5  C14 UNL     1      20.986  25.042   7.522  1.00  0.00     0.095 C 
BRANCH   5   6
HETATM    6  N3  UNL     1      21.609  25.858   8.566  1.00  0.00    -0.415 N 
ATOM      7  H3  UNL     1      21.543  26.876   8.577  1.00  0.00     0.153 HD
BRANCH   6   8
HETATM    8  C13 UNL     1      22.314  25.130   9.562  1.00  0.00     0.118 C 
BRANCH   8   9
HETATM    9  C12 UNL     1      22.101  25.912  10.870  1.00  0.00     0.006 C 
HETATM   10  C11 UNL     1      23.301  26.833  10.957  1.00  0.00     0.026 C 
HETATM   11  C10 UNL     1      23.198  27.793  12.105  1.00  0.00     0.122 C 
HETATM   12  N2  UNL     1      21.889  28.350  12.168  1.00  0.00    -0.392 N 
HETATM   13  C21 UNL     1      21.110  28.156  10.968  1.00  0.00     0.122 C 
HETATM   14  C20 UNL     1      20.813  26.658  10.858  1.00  0.00     0.026 C 
BRANCH  12  15
HETATM   15  C9  UNL     1      21.178  28.187  13.365  1.00  0.00     0.078 C 
BRANCH  15  16
HETATM   16  C8  UNL     1      19.773  28.566  13.481  1.00  0.00     0.176 C 
BRANCH  16  17
HETATM   17  N1  UNL     1      19.420  29.927  13.795  1.00  0.00    -0.311 N 
HETATM   18  C22 UNL     1      18.060  30.385  13.599  1.00  0.00     0.225 C 
HETATM   19  O1  UNL     1      17.319  29.603  12.917  1.00  0.00    -0.273 OA
BRANCH  17  20
HETATM   20  C7  UNL     1      20.310  30.853  14.390  1.00  0.00     0.065 A 
HETATM   21  C2  UNL     1      20.532  30.972  15.727  1.00  0.00    -0.033 A 
HETATM   22  C1  UNL     1      19.877  30.141  16.759  1.00  0.00     0.050 C 
HETATM   23  C3  UNL     1      21.433  31.921  16.231  1.00  0.00     0.009 A 
HETATM   24  C4  UNL     1      22.127  32.768  15.404  1.00  0.00     0.002 A 
HETATM   25  C5  UNL     1      21.913  32.659  14.042  1.00  0.00     0.026 A 
HETATM   26  C6  UNL     1      21.029  31.726  13.568  1.00  0.00     0.061 A 
HETATM   27 CL1  UNL     1      20.807  31.633  11.835  1.00  0.00    -0.082 Cl
ENDBRANCH  17  20
BRANCH  18  28
HETATM   28  C23 UNL     1      17.510  31.626  14.110  1.00  0.00     0.112 C 
BRANCH  28  29
HETATM   29  C24 UNL     1      16.929  31.455  15.474  1.00  0.00     0.112 C 
BRANCH  29  30
HETATM   30  C25 UNL     1      16.034  32.587  15.823  1.00  0.00     0.220 C 
HETATM   31  O2  UNL     1      14.884  32.606  15.310  1.00  0.00    -0.273 OA
HETATM   32  N5  UNL     1      16.481  33.608  16.710  1.00  0.00    -0.349 N 
HETATM   33  C26 UNL     1      15.666  34.726  17.043  1.00  0.00     0.145 C 
HETATM   34  C32 UNL     1      17.779  33.500  17.298  1.00  0.00     0.150 C 
HETATM   35  C27 UNL     1      16.483  35.986  16.866  1.00  0.00     0.137 C 
HETATM   36  N6  UNL     1      17.836  35.902  17.265  1.00  0.00    -0.405 N 
HETATM   37  C28 UNL     1      18.151  36.370  18.569  1.00  0.00     0.117 C 
HETATM   38  C31 UNL     1      18.557  34.727  16.948  1.00  0.00     0.097 C 
HETATM   39  C29 UNL     1      19.220  35.414  19.100  1.00  0.00     0.021 C 
HETATM   40  C30 UNL     1      19.798  34.810  17.819  1.00  0.00     0.028 C 
ENDBRANCH  29  30
ENDBRANCH  28  29
ENDBRANCH  18  28
ENDBRANCH  16  17
ENDBRANCH  15  16
ENDBRANCH  12  15
ENDBRANCH   8   9
ENDBRANCH   6   8
ENDBRANCH   5   6
BRANCH   5  41
HETATM   41  C17 UNL     1      21.468  25.451   6.174  1.00  0.00     0.068 A 
HETATM   42  C18 UNL     1      21.016  24.811   4.899  1.00  0.00     0.072 A 
HETATM   43  C19 UNL     1      22.359  24.444   5.429  1.00  0.00     0.185 A 
HETATM   44  F1  UNL     1      22.488  23.183   5.978  1.00  0.00    -0.225 F 
HETATM   45 CL2  UNL     1      23.828  25.061   4.672  1.00  0.00    -0.082 Cl
ENDBRANCH   5  41
ENDBRANCH   4   5
ENDBRANCH   1   4
TORSDOF 13
ENDMDL
MODEL 3
REMARK VINA RESULT: -8.685920806      2.732      4.124
REMARK  13 active torsions:
REMARK  status: ('A' for Active; 'I' for Inactive)
REMARK    1  A    between atoms: C7_8  and  N1_9 
REMARK    2  A    between atoms: N1_9  and  C8_10 
REMARK       I    between atoms: N1_9  and  C22_31 
REMARK    3  A    between atoms: C8_10  and  C9_11 
REMARK    4  A    between atoms: C9_11  and  N2_12 
REMARK    5  A    between atoms: C12_15  and  C13_16 
REMARK    6  A    between atoms: C13_16  and  N3_17 
REMARK    7  A    between atoms: N3_17  and  C14_19 
REMARK    8  A    between atoms: C14_19  and  C15_20 
REMARK    9  A    between atoms: C14_19  and  C17_24 
REMARK   10  A    between atoms: C15_20  and  S1_21 
REMARK   11  A    between atoms: C22_31  and  C23_33 
REMARK   12  A    between atoms: C23_33  and  C24_34 
REMARK   13  A    between atoms: C24_34  and  C25_35 
REMARK       I    between atoms: C25_35  and  N5_37 
ROOT
HETATM    1  S1  UNL     1      19.345  35.554  18.598  1.00  0.00    -0.049 SA
HETATM    2  C16 UNL     1      20.473  34.796  17.449  1.00  0.00     0.133 C 
HETATM    3  N4  UNL     1      21.197  34.303  16.678  1.00  0.00    -0.184 NA
ENDROOT
BRANCH   1   4
HETATM    4  C15 UNL     1      18.885  37.158  17.966  1.00  0.00     0.115 C 
BRANCH   4   5
HETATM    5  C14 UNL     1      17.385  37.341  17.728  1.00  0.00     0.095 C 
BRANCH   5   6
HETATM    6  N3  UNL     1      17.119  36.479  16.576  1.00  0.00    -0.415 N 
ATOM      7  H3  UNL     1      17.741  36.438  15.768  1.00  0.00     0.153 HD
BRANCH   6   8
HETATM    8  C13 UNL     1      15.933  35.702  16.664  1.00  0.00     0.118 C 
BRANCH   8   9
HETATM    9  C12 UNL     1      16.227  34.411  15.881  1.00  0.00     0.006 C 
HETATM   10  C11 UNL     1      17.532  34.694  15.165  1.00  0.00     0.026 C 
HETATM   11  C10 UNL     1      18.066  33.484  14.457  1.00  0.00     0.122 C 
HETATM   12  N2  UNL     1      17.969  32.337  15.297  1.00  0.00    -0.392 N 
HETATM   13  C21 UNL     1      17.732  32.646  16.687  1.00  0.00     0.122 C 
HETATM   14  C20 UNL     1      16.322  33.233  16.787  1.00  0.00     0.026 C 
BRANCH  12  15
HETATM   15  C9  UNL     1      17.249  31.240  14.805  1.00  0.00     0.078 C 
BRANCH  15  16
HETATM   16  C8  UNL     1      17.129  30.981  13.373  1.00  0.00     0.176 C 
BRANCH  16  17
HETATM   17  N1  UNL     1      18.032  30.059  12.733  1.00  0.00    -0.311 N 
HETATM   18  C22 UNL     1      17.624  29.364  11.530  1.00  0.00     0.225 C 
HETATM   19  O1  UNL     1      16.380  29.435  11.260  1.00  0.00    -0.273 OA
BRANCH  17  20
HETATM   20  C7  UNL     1      19.368  29.848  13.152  1.00  0.00     0.065 A 
HETATM   21  C2  UNL     1      20.429  30.620  12.793  1.00  0.00    -0.033 A 
HETATM   22  C1  UNL     1      20.340  31.803  11.912  1.00  0.00     0.050 C 
HETATM   23  C3  UNL     1      21.722  30.336  13.255  1.00  0.00     0.009 A 
HETATM   24  C4  UNL     1      21.974  29.272  14.085  1.00  0.00     0.002 A 
HETATM   25  C5  UNL     1      20.906  28.478  14.460  1.00  0.00     0.026 A 
HETATM   26  C6  UNL     1      19.649  28.772  13.998  1.00  0.00     0.061 A 
HETATM   27 CL1  UNL     1      18.338  27.734  14.514  1.00  0.00    -0.082 Cl
ENDBRANCH  17  20
BRANCH  18  28
HETATM   28  C23 UNL     1      18.505  28.625  10.647  1.00  0.00     0.112 C 
BRANCH  28  29
HETATM   29  C24 UNL     1      18.594  27.185  11.030  1.00  0.00     0.112 C 
BRANCH  29  30
HETATM   30  C25 UNL     1      19.152  26.368   9.924  1.00  0.00     0.220 C 
HETATM   31  O2  UNL     1      18.341  25.746   9.186  1.00  0.00    -0.273 OA
HETATM   32  N5  UNL     1      20.560  26.300   9.719  1.00  0.00    -0.349 N 
HETATM   33  C26 UNL     1      21.135  25.501   8.691  1.00  0.00     0.145 C 
HETATM   34  C32 UNL     1      21.423  27.070  10.560  1.00  0.00     0.150 C 
HETATM   35  C27 UNL     1      22.243  24.667   9.294  1.00  0.00     0.137 C 
HETATM   36  N6  UNL     1      23.035  25.312  10.271  1.00  0.00    -0.405 N 
HETATM   37  C28 UNL     1      24.259  25.882   9.830  1.00  0.00     0.117 C 
HETATM   38  C31 UNL     1      22.389  26.140  11.219  1.00  0.00     0.097 C 
HETATM   39  C29 UNL     1      24.418  27.178  10.627  1.00  0.00     0.021 C 
HETATM   40  C30 UNL     1      23.521  26.937  11.842  1.00  0.00     0.028 C 
ENDBRANCH  29  30
ENDBRANCH  28  29
ENDBRANCH  18  28
ENDBRANCH  16  17
ENDBRANCH  15  16
ENDBRANCH  12  15
ENDBRANCH   8   9
ENDBRANCH   6   8
ENDBRANCH   5   6
BRANCH   5  41
HETATM   41  C17 UNL     1      17.037  38.756  17.420  1.00  0.00     0.068 A 
HETATM   42  C18 UNL     1      17.743  39.936  18.012  1.00  0.00     0.072 A 
HETATM   43  C19 UNL     1      16.407  39.572  18.561  1.00  0.00     0.185 A 
HETATM   44  F1  UNL     1      16.384  38.996  19.816  1.00  0.00    -0.225 F 
HETATM   45 CL2  UNL     1      14.981  40.538  18.179  1.00  0.00    -0.082 Cl
ENDBRANCH   5  41
ENDBRANCH   4   5
ENDBRANCH   1   4
TORSDOF 13
ENDMDL
MODEL 4
REMARK VINA RESULT: -8.627237953      2.651      3.956
REMARK  13 active torsions:
REMARK  status: ('A' for Active; 'I' for Inactive)
REMARK    1  A    between atoms: C7_8  and  N1_9 
REMARK    2  A    between atoms: N1_9  and  C8_10 
REMARK       I    between atoms: N1_9  and  C22_31 
REMARK    3  A    between atoms: C8_10  and  C9_11 
REMARK    4  A    between atoms: C9_11  and  N2_12 
REMARK    5  A    between atoms: C12_15  and  C13_16 
REMARK    6  A    between atoms: C13_16  and  N3_17 
REMARK    7  A    between atoms: N3_17  and  C14_19 
REMARK    8  A    between atoms: C14_19  and  C15_20 
REMARK    9  A    between atoms: C14_19  and  C17_24 
REMARK   10  A    between atoms: C15_20  and  S1_21 
REMARK   11  A    between atoms: C22_31  and  C23_33 
REMARK   12  A    between atoms: C23_33  and  C24_34 
REMARK   13  A    between atoms: C24_34  and  C25_35 
REMARK       I    between atoms: C25_35  and  N5_37 
ROOT
HETATM    1  S1  UNL     1      19.664  35.163  18.484  1.00  0.00    -0.049 SA
HETATM    2  C16 UNL     1      19.515  36.900  18.839  1.00  0.00     0.133 C 
HETATM    3  N4  UNL     1      19.426  38.044  19.052  1.00  0.00    -0.184 NA
ENDROOT
BRANCH   1   4
HETATM    4  C15 UNL     1      18.833  34.826  16.941  1.00  0.00     0.115 C 
BRANCH   4   5
HETATM    5  C14 UNL     1      17.453  34.183  17.088  1.00  0.00     0.095 C 
BRANCH   5   6
HETATM    6  N3  UNL     1      17.521  33.031  16.187  1.00  0.00    -0.415 N 
ATOM      7  H3  UNL     1      17.021  33.002  15.299  1.00  0.00     0.153 HD
BRANCH   6   8
HETATM    8  C13 UNL     1      18.335  31.958  16.640  1.00  0.00     0.118 C 
BRANCH   8   9
HETATM    9  C12 UNL     1      19.015  31.397  15.379  1.00  0.00     0.006 C 
HETATM   10  C11 UNL     1      18.358  32.142  14.235  1.00  0.00     0.026 C 
HETATM   11  C10 UNL     1      19.001  31.836  12.914  1.00  0.00     0.122 C 
HETATM   12  N2  UNL     1      20.420  31.862  13.037  1.00  0.00    -0.392 N 
HETATM   13  C21 UNL     1      20.893  32.498  14.244  1.00  0.00     0.122 C 
HETATM   14  C20 UNL     1      20.489  31.602  15.417  1.00  0.00     0.026 C 
BRANCH  12  15
HETATM   15  C9  UNL     1      21.118  30.704  12.668  1.00  0.00     0.078 C 
BRANCH  15  16
HETATM   16  C8  UNL     1      20.814  29.985  11.435  1.00  0.00     0.176 C 
BRANCH  16  17
HETATM   17  N1  UNL     1      20.493  28.582  11.483  1.00  0.00    -0.311 N 
HETATM   18  C22 UNL     1      21.556  27.597  11.478  1.00  0.00     0.225 C 
HETATM   19  O1  UNL     1      22.710  28.048  11.177  1.00  0.00    -0.273 OA
BRANCH  17  20
HETATM   20  C7  UNL     1      19.179  28.079  11.636  1.00  0.00     0.065 A 
HETATM   21  C2  UNL     1      18.350  27.739  10.612  1.00  0.00    -0.033 A 
HETATM   22  C1  UNL     1      18.707  27.839   9.181  1.00  0.00     0.050 C 
HETATM   23  C3  UNL     1      17.059  27.249  10.855  1.00  0.00     0.009 A 
HETATM   24  C4  UNL     1      16.576  27.092  12.131  1.00  0.00     0.002 A 
HETATM   25  C5  UNL     1      17.406  27.434  13.182  1.00  0.00     0.026 A 
HETATM   26  C6  UNL     1      18.665  27.910  12.924  1.00  0.00     0.061 A 
HETATM   27 CL1  UNL     1      19.670  28.317  14.297  1.00  0.00    -0.082 Cl
ENDBRANCH  17  20
BRANCH  18  28
HETATM   28  C23 UNL     1      21.396  26.189  11.784  1.00  0.00     0.112 C 
BRANCH  28  29
HETATM   29  C24 UNL     1      21.139  25.380  10.557  1.00  0.00     0.112 C 
BRANCH  29  30
HETATM   30  C25 UNL     1      22.408  24.922   9.938  1.00  0.00     0.220 C 
HETATM   31  O2  UNL     1      23.427  24.845  10.676  1.00  0.00    -0.273 OA
HETATM   32  N5  UNL     1      22.453  24.588   8.554  1.00  0.00    -0.349 N 
HETATM   33  C26 UNL     1      23.658  24.178   7.916  1.00  0.00     0.145 C 
HETATM   34  C32 UNL     1      21.250  24.649   7.784  1.00  0.00     0.150 C 
HETATM   35  C27 UNL     1      23.828  24.983   6.648  1.00  0.00     0.137 C 
HETATM   36  N6  UNL     1      22.644  25.237   5.918  1.00  0.00    -0.405 N 
HETATM   37  C28 UNL     1      22.356  24.361   4.838  1.00  0.00     0.117 C 
HETATM   38  C31 UNL     1      21.474  25.578   6.636  1.00  0.00     0.097 C 
HETATM   39  C29 UNL     1      20.838  24.178   4.853  1.00  0.00     0.021 C 
HETATM   40  C30 UNL     1      20.358  25.411   5.619  1.00  0.00     0.028 C 
ENDBRANCH  29  30
ENDBRANCH  28  29
ENDBRANCH  18  28
ENDBRANCH  16  17
ENDBRANCH  15  16
ENDBRANCH  12  15
ENDBRANCH   8   9
ENDBRANCH   6   8
ENDBRANCH   5   6
BRANCH   5  41
HETATM   41  C17 UNL     1      16.359  35.108  16.682  1.00  0.00     0.068 A 
HETATM   42  C18 UNL     1      16.453  36.599  16.771  1.00  0.00     0.072 A 
HETATM   43  C19 UNL     1      15.661  35.884  17.811  1.00  0.00     0.185 A 
HETATM   44  F1  UNL     1      16.217  35.805  19.073  1.00  0.00    -0.225 F 
HETATM   45 CL2  UNL     1      13.898  35.932  17.796  1.00  0.00    -0.082 Cl
ENDBRANCH   5  41
ENDBRANCH   4   5
ENDBRANCH   1   4
TORSDOF 13
ENDMDL
MODEL 5
REMARK VINA RESULT: -8.523138928      2.764      4.101
REMARK  13 active torsions:
REMARK  status: ('A' for Active; 'I' for Inactive)
REMARK    1  A    between atoms: C7_8  and  N1_9 
REMARK    2  A    between atoms: N1_9  and  C8_10 
REMARK       I    between atoms: N1_9  and  C22_31 
REMARK    3  A    between atoms: C8_10  and  C9_11 
REMARK    4  A    between atoms: C9_11  and  N2_12 
REMARK    5  A    between atoms: C12_15  and  C13_16 
REMARK    6  A    between atoms: C13_16  and  N3_17 
REMARK    7  A    between atoms: N3_17  and  C14_19 
REMARK    8  A    between atoms: C14_19  and  C15_20 
REMARK    9  A    between atoms: C14_19  and  C17_24 
REMARK   10  A    between atoms: C15_20  and  S1_21 
REMARK   11  A    between atoms: C22_31  and  C23_33 
REMARK   12  A    between atoms: C23_33  and  C24_34 
REMARK   13  A    between atoms: C24_34  and  C25_35 
REMARK       I    between atoms: C25_35  and  N5_37 
ROOT
HETATM    1  S1  UNL     1      20.845  36.684  17.496  1.00  0.00    -0.049 SA
HETATM    2  C16 UNL     1      22.453  37.390  17.783  1.00  0.00     0.133 C 
HETATM    3  N4  UNL     1      23.504  37.869  17.955  1.00  0.00    -0.184 NA
ENDROOT
BRANCH   1   4
HETATM    4  C15 UNL     1      19.628  37.986  17.594  1.00  0.00     0.115 C 
BRANCH   4   5
HETATM    5  C14 UNL     1      18.254  37.537  18.092  1.00  0.00     0.095 C 
BRANCH   5   6
HETATM    6  N3  UNL     1      18.120  36.188  17.538  1.00  0.00    -0.415 N 
ATOM      7  H3  UNL     1      18.506  35.929  16.630  1.00  0.00     0.153 HD
BRANCH   6   8
HETATM    8  C13 UNL     1      17.413  35.267  18.357  1.00  0.00     0.118 C 
BRANCH   8   9
HETATM    9  C12 UNL     1      17.143  34.044  17.462  1.00  0.00     0.006 C 
HETATM   10  C11 UNL     1      15.888  34.409  16.696  1.00  0.00     0.026 C 
HETATM   11  C10 UNL     1      15.545  33.389  15.651  1.00  0.00     0.122 C 
HETATM   12  N2  UNL     1      16.713  33.008  14.930  1.00  0.00    -0.392 N 
HETATM   13  C21 UNL     1      17.832  33.902  15.110  1.00  0.00     0.122 C 
HETATM   14  C20 UNL     1      18.295  33.762  16.563  1.00  0.00     0.026 C 
BRANCH  12  15
HETATM   15  C9  UNL     1      17.043  31.646  14.915  1.00  0.00     0.078 C 
BRANCH  15  16
HETATM   16  C8  UNL     1      17.710  31.030  13.771  1.00  0.00     0.176 C 
BRANCH  16  17
HETATM   17  N1  UNL     1      19.001  30.414  13.939  1.00  0.00    -0.311 N 
HETATM   18  C22 UNL     1      19.217  29.055  13.487  1.00  0.00     0.225 C 
HETATM   19  O1  UNL     1      18.159  28.408  13.192  1.00  0.00    -0.273 OA
BRANCH  17  20
HETATM   20  C7  UNL     1      20.137  31.092  14.441  1.00  0.00     0.065 A 
HETATM   21  C2  UNL     1      20.546  31.074  15.738  1.00  0.00    -0.033 A 
HETATM   22  C1  UNL     1      19.861  30.333  16.818  1.00  0.00     0.050 C 
HETATM   23  C3  UNL     1      21.686  31.779  16.150  1.00  0.00     0.009 A 
HETATM   24  C4  UNL     1      22.437  32.514  15.267  1.00  0.00     0.002 A 
HETATM   25  C5  UNL     1      22.035  32.542  13.945  1.00  0.00     0.026 A 
HETATM   26  C6  UNL     1      20.918  31.847  13.561  1.00  0.00     0.061 A 
HETATM   27 CL1  UNL     1      20.465  31.917  11.873  1.00  0.00    -0.082 Cl
ENDBRANCH  17  20
BRANCH  18  28
HETATM   28  C23 UNL     1      20.510  28.411  13.352  1.00  0.00     0.112 C 
BRANCH  28  29
HETATM   29  C24 UNL     1      20.989  28.419  11.939  1.00  0.00     0.112 C 
BRANCH  29  30
HETATM   30  C25 UNL     1      21.351  27.052  11.486  1.00  0.00     0.220 C 
HETATM   31  O2  UNL     1      22.386  26.526  11.975  1.00  0.00    -0.273 OA
HETATM   32  N5  UNL     1      20.542  26.375  10.528  1.00  0.00    -0.349 N 
HETATM   33  C26 UNL     1      20.873  25.079  10.044  1.00  0.00     0.145 C 
HETATM   34  C32 UNL     1      19.352  27.008  10.051  1.00  0.00     0.150 C 
HETATM   35  C27 UNL     1      20.798  25.096   8.534  1.00  0.00     0.137 C 
HETATM   36  N6  UNL     1      19.741  25.854   7.980  1.00  0.00    -0.405 N 
HETATM   37  C28 UNL     1      18.563  25.146   7.623  1.00  0.00     0.117 C 
HETATM   38  C31 UNL     1      19.437  27.107   8.563  1.00  0.00     0.097 C 
HETATM   39  C29 UNL     1      17.403  26.079   7.972  1.00  0.00     0.021 C 
HETATM   40  C30 UNL     1      18.072  27.453   7.996  1.00  0.00     0.028 C 
ENDBRANCH  29  30
ENDBRANCH  28  29
ENDBRANCH  18  28
ENDBRANCH  16  17
ENDBRANCH  15  16
ENDBRANCH  12  15
ENDBRANCH   8   9
ENDBRANCH   6   8
ENDBRANCH   5   6
BRANCH   5  41
HETATM   41  C17 UNL     1      17.164  38.422  17.598  1.00  0.00     0.068 A 
HETATM   42  C18 UNL     1      17.340  39.881  17.312  1.00  0.00     0.072 A 
HETATM   43  C19 UNL     1      16.653  39.493  18.576  1.00  0.00     0.185 A 
HETATM   44  F1  UNL     1      17.359  39.670  19.749  1.00  0.00    -0.225 F 
HETATM   45 CL2  UNL     1      14.906  39.673  18.746  1.00  0.00    -0.082 Cl
ENDBRANCH   5  41
ENDBRANCH   4   5
ENDBRANCH   1   4
TORSDOF 13
ENDMDL
