MODEL 1
REMARK VINA RESULT: -9.434323257      0.000      0.000
REMARK  13 active torsions:
REMARK  status: ('A' for Active; 'I' for Inactive)
REMARK    1  A    between atoms: C4_6  and  C5_7 
REMARK    2  A    between atoms: C5_7  and  C6_8 
REMARK    3  A    between atoms: C6_8  and  N2_9 
REMARK    4  A    between atoms: N3_12  and  C9_13 
REMARK    5  A    between atoms: C9_13  and  C10_14 
REMARK    6  A    between atoms: C10_14  and  C11_15 
REMARK    7  A    between atoms: C11_15  and  C12_16 
REMARK    8  A    between atoms: C12_16  and  C13_17 
REMARK    9  A    between atoms: C13_17  and  N4_18 
REMARK   10  A    between atoms: N5_21  and  C16_22 
REMARK   11  A    between atoms: C16_22  and  C17_23 
REMARK   12  A    between atoms: C17_23  and  C18_24 
REMARK   13  A    between atoms: N6_25  and  C19_27 
ROOT
HETATM    1  C13 UNL     1      20.837  32.114  13.424  1.00  0.00     0.272 C 
ENDROOT
BRANCH   1   2
HETATM    2  C12 UNL     1      19.684  31.672  12.613  1.00  0.00     0.030 C 
BRANCH   2   3
HETATM    3  C11 UNL     1      18.328  31.795  13.198  1.00  0.00     0.003 C 
BRANCH   3   4
HETATM    4  C10 UNL     1      17.544  30.552  13.399  1.00  0.00     0.030 C 
BRANCH   4   5
HETATM    5  C9  UNL     1      17.789  29.546  12.263  1.00  0.00     0.272 C 
BRANCH   5   6
HETATM    6  N3  UNL     1      18.537  28.407  12.665  1.00  0.00     0.091 N 
HETATM    7  C8  UNL     1      17.701  27.263  12.972  1.00  0.00     0.302 C 
HETATM    8  C7  UNL     1      17.206  26.577  11.717  1.00  0.00     0.302 C 
HETATM    9  N2  UNL     1      18.291  26.186  10.849  1.00  0.00     0.092 N 
HETATM   10  C31 UNL     1      19.150  27.297  10.618  1.00  0.00     0.302 C 
HETATM   11  C30 UNL     1      19.626  28.017  11.842  1.00  0.00     0.302 C 
BRANCH   9  12
HETATM   12  C6  UNL     1      18.952  24.980  11.285  1.00  0.00     0.277 C 
BRANCH  12  13
HETATM   13  C5  UNL     1      19.259  24.037  10.170  1.00  0.00     0.073 C 
BRANCH  13  14
HETATM   14  C4  UNL     1      20.641  24.300   9.693  1.00  0.00    -0.005 C 
HETATM   15  C3  UNL     1      20.915  24.045   8.357  1.00  0.00     0.180 C 
HETATM   16  C2  UNL     1      22.107  24.144   7.667  1.00  0.00     0.083 C 
HETATM   17  O1  UNL     1      19.916  23.669   7.687  1.00  0.00    -0.288 OA
HETATM   18  C1  UNL     1      23.264  24.827   8.004  1.00  0.00     0.073 C 
HETATM   19  N1  UNL     1      24.280  24.863   7.014  1.00  0.00    -0.101 NA
HETATM   20  C34 UNL     1      23.507  25.468   9.213  1.00  0.00     0.080 C 
HETATM   21  C33 UNL     1      22.768  25.452  10.375  1.00  0.00     0.058 C 
HETATM   22 CL3  UNL     1      24.976  26.428   9.224  1.00  0.00    -0.081 Cl
HETATM   23  C32 UNL     1      21.569  24.777  10.597  1.00  0.00     0.036 C 
HETATM   24 CL2  UNL     1      23.392  26.375  11.723  1.00  0.00    -0.082 Cl
ENDBRANCH  13  14
ENDBRANCH  12  13
ENDBRANCH   9  12
ENDBRANCH   5   6
ENDBRANCH   4   5
ENDBRANCH   3   4
ENDBRANCH   2   3
ENDBRANCH   1   2
BRANCH   1  25
HETATM   25  N4  UNL     1      21.438  31.163  14.292  1.00  0.00     0.091 N 
HETATM   26  C14 UNL     1      22.793  31.563  14.672  1.00  0.00     0.302 C 
HETATM   27  C15 UNL     1      22.771  32.906  15.378  1.00  0.00     0.302 C 
HETATM   28  N5  UNL     1      21.722  32.951  16.376  1.00  0.00     0.092 N 
HETATM   29  C28 UNL     1      21.223  31.660  16.707  1.00  0.00     0.302 C 
HETATM   30  C29 UNL     1      20.702  30.911  15.520  1.00  0.00     0.302 C 
BRANCH  28  31
HETATM   31  C16 UNL     1      22.175  33.756  17.474  1.00  0.00     0.277 C 
BRANCH  31  32
HETATM   32  C17 UNL     1      21.483  35.079  17.587  1.00  0.00     0.074 C 
BRANCH  32  33
HETATM   33  C18 UNL     1      20.164  34.792  18.351  1.00  0.00     0.063 C 
HETATM   34  N6  UNL     1      19.121  34.450  17.579  1.00  0.00    -0.369 N 
ATOM     35  H6  UNL     1      19.524  34.502  16.644  1.00  0.00     0.165 HD
BRANCH  34  36
HETATM   36  C19 UNL     1      17.967  34.110  17.341  1.00  0.00     0.045 A 
HETATM   37  C20 UNL     1      17.709  32.885  16.692  1.00  0.00     0.047 A 
HETATM   38  C21 UNL     1      16.451  32.494  16.425  1.00  0.00     0.090 A 
HETATM   39  N7  UNL     1      15.380  33.236  16.756  1.00  0.00    -0.365 N 
HETATM   40  C22 UNL     1      15.612  34.411  17.377  1.00  0.00     0.044 A 
ATOM     41  H7  UNL     1      14.432  32.924  16.546  1.00  0.00     0.165 HD
HETATM   42  C23 UNL     1      14.484  35.157  17.707  1.00  0.00     0.032 A 
HETATM   43  C27 UNL     1      16.866  34.876  17.682  1.00  0.00     0.019 A 
HETATM   44  C24 UNL     1      14.623  36.369  18.342  1.00  0.00     0.026 A 
HETATM   45  C25 UNL     1      15.869  36.849  18.654  1.00  0.00     0.035 A 
HETATM   46 CL1  UNL     1      15.997  38.380  19.453  1.00  0.00    -0.084 Cl
HETATM   47  C26 UNL     1      17.004  36.111  18.329  1.00  0.00     0.040 A 
ENDBRANCH  34  36
ENDBRANCH  32  33
ENDBRANCH  31  32
ENDBRANCH  28  31
ENDBRANCH   1  25
TORSDOF 13
ENDMDL
MODEL 2
REMARK VINA RESULT: -9.402257285      2.300      3.712
REMARK  13 active torsions:
REMARK  status: ('A' for Active; 'I' for Inactive)
REMARK    1  A    between atoms: C4_6  and  C5_7 
REMARK    2  A    between atoms: C5_7  and  C6_8 
REMARK    3  A    between atoms: C6_8  and  N2_9 
REMARK    4  A    between atoms: N3_12  and  C9_13 
REMARK    5  A    between atoms: C9_13  and  C10_14 
REMARK    6  A    between atoms: C10_14  and  C11_15 
REMARK    7  A    between atoms: C11_15  and  C12_16 
REMARK    8  A    between atoms: C12_16  and  C13_17 
REMARK    9  A    between atoms: C13_17  and  N4_18 
REMARK   10  A    between atoms: N5_21  and  C16_22 
REMARK   11  A    between atoms: C16_22  and  C17_23 
REMARK   12  A    between atoms: C17_23  and  C18_24 
REMARK   13  A    between atoms: N6_25  and  C19_27 
ROOT
HETATM    1  C13 UNL     1      18.911  28.774  13.120  1.00  0.00     0.272 C 
ENDROOT
BRANCH   1   2
HETATM    2  C12 UNL     1      17.878  27.738  12.918  1.00  0.00     0.030 C 
BRANCH   2   3
HETATM    3  C11 UNL     1      16.747  28.046  12.011  1.00  0.00     0.003 C 
BRANCH   3   4
HETATM    4  C10 UNL     1      17.026  28.868  10.808  1.00  0.00     0.030 C 
BRANCH   4   5
HETATM    5  C9  UNL     1      17.193  27.991   9.557  1.00  0.00     0.272 C 
BRANCH   5   6
HETATM    6  N3  UNL     1      18.265  27.064   9.652  1.00  0.00     0.091 N 
HETATM    7  C8  UNL     1      17.819  25.685   9.659  1.00  0.00     0.302 C 
HETATM    8  C7  UNL     1      17.445  25.210   8.272  1.00  0.00     0.302 C 
HETATM    9  N2  UNL     1      18.525  25.382   7.330  1.00  0.00     0.092 N 
HETATM   10  C31 UNL     1      19.009  26.719   7.389  1.00  0.00     0.302 C 
HETATM   11  C30 UNL     1      19.352  27.227   8.754  1.00  0.00     0.302 C 
BRANCH   9  12
HETATM   12  C6  UNL     1      19.535  24.359   7.441  1.00  0.00     0.277 C 
BRANCH  12  13
HETATM   13  C5  UNL     1      20.791  24.683   6.703  1.00  0.00     0.073 C 
BRANCH  13  14
HETATM   14  C4  UNL     1      21.860  24.981   7.691  1.00  0.00    -0.005 C 
HETATM   15  C3  UNL     1      23.055  25.491   7.205  1.00  0.00     0.180 C 
HETATM   16  C2  UNL     1      24.220  25.800   7.878  1.00  0.00     0.083 C 
HETATM   17  O1  UNL     1      23.061  25.696   5.961  1.00  0.00    -0.288 OA
HETATM   18  C1  UNL     1      24.424  26.011   9.232  1.00  0.00     0.073 C 
HETATM   19  N1  UNL     1      25.716  26.463   9.608  1.00  0.00    -0.101 NA
HETATM   20  C34 UNL     1      23.482  25.819  10.236  1.00  0.00     0.080 C 
HETATM   21  C33 UNL     1      22.230  25.249  10.163  1.00  0.00     0.058 C 
HETATM   22 CL3  UNL     1      23.995  26.397  11.811  1.00  0.00    -0.081 Cl
HETATM   23  C32 UNL     1      21.608  24.735   9.026  1.00  0.00     0.036 C 
HETATM   24 CL2  UNL     1      21.313  25.156  11.648  1.00  0.00    -0.082 Cl
ENDBRANCH  13  14
ENDBRANCH  12  13
ENDBRANCH   9  12
ENDBRANCH   5   6
ENDBRANCH   4   5
ENDBRANCH   3   4
ENDBRANCH   2   3
ENDBRANCH   1   2
BRANCH   1  25
HETATM   25  N4  UNL     1      20.260  28.428  12.830  1.00  0.00     0.091 N 
HETATM   26  C14 UNL     1      20.833  29.311  11.812  1.00  0.00     0.302 C 
HETATM   27  C15 UNL     1      20.800  30.753  12.282  1.00  0.00     0.302 C 
HETATM   28  N5  UNL     1      21.266  30.865  13.649  1.00  0.00     0.092 N 
HETATM   29  C28 UNL     1      21.966  29.706  14.088  1.00  0.00     0.302 C 
HETATM   30  C29 UNL     1      21.153  28.453  13.976  1.00  0.00     0.302 C 
BRANCH  28  31
HETATM   31  C16 UNL     1      21.958  32.114  13.791  1.00  0.00     0.277 C 
BRANCH  31  32
HETATM   32  C17 UNL     1      23.032  32.101  14.834  1.00  0.00     0.074 C 
BRANCH  32  33
HETATM   33  C18 UNL     1      22.756  33.338  15.728  1.00  0.00     0.063 C 
HETATM   34  N6  UNL     1      21.519  33.403  16.244  1.00  0.00    -0.369 N 
ATOM     35  H6  UNL     1      21.082  32.570  15.852  1.00  0.00     0.165 HD
BRANCH  34  36
HETATM   36  C19 UNL     1      20.607  33.879  16.912  1.00  0.00     0.045 A 
HETATM   37  C20 UNL     1      20.895  34.741  17.991  1.00  0.00     0.047 A 
HETATM   38  C21 UNL     1      19.909  35.275  18.732  1.00  0.00     0.090 A 
HETATM   39  N7  UNL     1      18.610  35.023  18.494  1.00  0.00    -0.365 N 
HETATM   40  C22 UNL     1      18.321  34.200  17.465  1.00  0.00     0.044 A 
ATOM     41  H7  UNL     1      17.875  35.437  19.067  1.00  0.00     0.165 HD
HETATM   42  C23 UNL     1      16.968  33.958  17.243  1.00  0.00     0.032 A 
HETATM   43  C27 UNL     1      19.270  33.618  16.665  1.00  0.00     0.019 A 
HETATM   44  C24 UNL     1      16.577  33.130  16.216  1.00  0.00     0.026 A 
HETATM   45  C25 UNL     1      17.514  32.540  15.407  1.00  0.00     0.035 A 
HETATM   46 CL1  UNL     1      16.977  31.505  14.127  1.00  0.00    -0.084 Cl
HETATM   47  C26 UNL     1      18.870  32.775  15.620  1.00  0.00     0.040 A 
ENDBRANCH  34  36
ENDBRANCH  32  33
ENDBRANCH  31  32
ENDBRANCH  28  31
ENDBRANCH   1  25
TORSDOF 13
ENDMDL
MODEL 3
REMARK VINA RESULT: -9.345736779      3.091     12.716
REMARK  13 active torsions:
REMARK  status: ('A' for Active; 'I' for Inactive)
REMARK    1  A    between atoms: C4_6  and  C5_7 
REMARK    2  A    between atoms: C5_7  and  C6_8 
REMARK    3  A    between atoms: C6_8  and  N2_9 
REMARK    4  A    between atoms: N3_12  and  C9_13 
REMARK    5  A    between atoms: C9_13  and  C10_14 
REMARK    6  A    between atoms: C10_14  and  C11_15 
REMARK    7  A    between atoms: C11_15  and  C12_16 
REMARK    8  A    between atoms: C12_16  and  C13_17 
REMARK    9  A    between atoms: C13_17  and  N4_18 
REMARK   10  A    between atoms: N5_21  and  C16_22 
REMARK   11  A    between atoms: C16_22  and  C17_23 
REMARK   12  A    between atoms: C17_23  and  C18_24 
REMARK   13  A    between atoms: N6_25  and  C19_27 
ROOT
HETATM    1  C13 UNL     1      19.461  29.873  11.935  1.00  0.00     0.272 C 
ENDROOT
BRANCH   1   2
HETATM    2  C12 UNL     1      20.003  30.538  13.138  1.00  0.00     0.030 C 
BRANCH   2   3
HETATM    3  C11 UNL     1      21.225  31.364  12.990  1.00  0.00     0.003 C 
BRANCH   3   4
HETATM    4  C10 UNL     1      22.231  31.315  14.080  1.00  0.00     0.030 C 
BRANCH   4   5
HETATM    5  C9  UNL     1      22.415  32.693  14.734  1.00  0.00     0.272 C 
BRANCH   5   6
HETATM    6  N3  UNL     1      22.028  32.729  16.101  1.00  0.00     0.091 N 
HETATM    7  C8  UNL     1      22.113  34.057  16.676  1.00  0.00     0.302 C 
HETATM    8  C7  UNL     1      20.948  34.926  16.256  1.00  0.00     0.302 C 
HETATM    9  N2  UNL     1      19.677  34.322  16.577  1.00  0.00     0.092 N 
HETATM   10  C31 UNL     1      19.635  32.989  16.076  1.00  0.00     0.302 C 
HETATM   11  C30 UNL     1      20.794  32.118  16.447  1.00  0.00     0.302 C 
BRANCH   9  12
HETATM   12  C6  UNL     1      19.322  34.465  17.967  1.00  0.00     0.277 C 
BRANCH  12  13
HETATM   13  C5  UNL     1      17.850  34.449  18.208  1.00  0.00     0.073 C 
BRANCH  13  14
HETATM   14  C4  UNL     1      17.382  35.848  18.387  1.00  0.00    -0.005 C 
HETATM   15  C3  UNL     1      16.062  36.037  18.770  1.00  0.00     0.180 C 
HETATM   16  C2  UNL     1      15.356  37.209  18.952  1.00  0.00     0.083 C 
HETATM   17  O1  UNL     1      15.427  34.968  18.979  1.00  0.00    -0.288 OA
HETATM   18  C1  UNL     1      15.825  38.499  19.134  1.00  0.00     0.073 C 
HETATM   19  N1  UNL     1      14.850  39.482  19.445  1.00  0.00    -0.101 NA
HETATM   20  C34 UNL     1      17.152  38.903  19.038  1.00  0.00     0.080 C 
HETATM   21  C33 UNL     1      18.252  38.196  18.604  1.00  0.00     0.058 C 
HETATM   22 CL3  UNL     1      17.429  40.558  19.552  1.00  0.00    -0.081 Cl
HETATM   23  C32 UNL     1      18.278  36.874  18.163  1.00  0.00     0.036 C 
HETATM   24 CL2  UNL     1      19.784  39.038  18.602  1.00  0.00    -0.082 Cl
ENDBRANCH  13  14
ENDBRANCH  12  13
ENDBRANCH   9  12
ENDBRANCH   5   6
ENDBRANCH   4   5
ENDBRANCH   3   4
ENDBRANCH   2   3
ENDBRANCH   1   2
BRANCH   1  25
HETATM   25  N4  UNL     1      18.104  29.450  11.968  1.00  0.00     0.091 N 
HETATM   26  C14 UNL     1      17.707  28.823  10.707  1.00  0.00     0.302 C 
HETATM   27  C15 UNL     1      18.578  27.614  10.418  1.00  0.00     0.302 C 
HETATM   28  N5  UNL     1      18.723  26.785  11.596  1.00  0.00     0.092 N 
HETATM   29  C28 UNL     1      17.757  27.082  12.600  1.00  0.00     0.302 C 
HETATM   30  C29 UNL     1      17.786  28.515  13.034  1.00  0.00     0.302 C 
BRANCH  28  31
HETATM   31  C16 UNL     1      18.801  25.415  11.180  1.00  0.00     0.277 C 
BRANCH  31  32
HETATM   32  C17 UNL     1      18.377  25.182   9.763  1.00  0.00     0.074 C 
BRANCH  32  33
HETATM   33  C18 UNL     1      19.507  24.332   9.126  1.00  0.00     0.063 C 
HETATM   34  N6  UNL     1      20.703  24.935   9.057  1.00  0.00    -0.369 N 
ATOM     35  H6  UNL     1      20.502  25.852   9.454  1.00  0.00     0.165 HD
BRANCH  34  36
HETATM   36  C19 UNL     1      21.898  25.028   8.796  1.00  0.00     0.045 A 
HETATM   37  C20 UNL     1      22.433  24.352   7.679  1.00  0.00     0.047 A 
HETATM   38  C21 UNL     1      23.739  24.445   7.375  1.00  0.00     0.090 A 
HETATM   39  N7  UNL     1      24.600  25.175   8.104  1.00  0.00    -0.365 N 
HETATM   40  C22 UNL     1      24.102  25.827   9.176  1.00  0.00     0.044 A 
ATOM     41  H7  UNL     1      25.588  25.234   7.859  1.00  0.00     0.165 HD
HETATM   42  C23 UNL     1      25.016  26.573   9.912  1.00  0.00     0.032 A 
HETATM   43  C27 UNL     1      22.783  25.780   9.549  1.00  0.00     0.019 A 
HETATM   44  C24 UNL     1      24.599  27.272  11.021  1.00  0.00     0.026 A 
HETATM   45  C25 UNL     1      23.285  27.236  11.409  1.00  0.00     0.035 A 
HETATM   46 CL1  UNL     1      22.804  28.129  12.812  1.00  0.00    -0.084 Cl
HETATM   47  C26 UNL     1      22.361  26.492  10.679  1.00  0.00     0.040 A 
ENDBRANCH  34  36
ENDBRANCH  32  33
ENDBRANCH  31  32
ENDBRANCH  28  31
ENDBRANCH   1  25
TORSDOF 13
ENDMDL
MODEL 4
REMARK VINA RESULT: -9.320493284      3.004      5.225
REMARK  13 active torsions:
REMARK  status: ('A' for Active; 'I' for Inactive)
REMARK    1  A    between atoms: C4_6  and  C5_7 
REMARK    2  A    between atoms: C5_7  and  C6_8 
REMARK    3  A    between atoms: C6_8  and  N2_9 
REMARK    4  A    between atoms: N3_12  and  C9_13 
REMARK    5  A    between atoms: C9_13  and  C10_14 
REMARK    6  A    between atoms: C10_14  and  C11_15 
REMARK    7  A    between atoms: C11_15  and  C12_16 
REMARK    8  A    between atoms: C12_16  and  C13_17 
REMARK    9  A    between atoms: C13_17  and  N4_18 
REMARK   10  A    between atoms: N5_21  and  C16_22 
REMARK   11  A    between atoms: C16_22  and  C17_23 
REMARK   12  A    between atoms: C17_23  and  C18_24 
REMARK   13  A    between atoms: N6_25  and  C19_27 
ROOT
HETATM    1  C13 UNL     1      19.956  34.111  16.038  1.00  0.00     0.272 C 
ENDROOT
BRANCH   1   2
HETATM    2  C12 UNL     1      21.297  34.000  15.428  1.00  0.00     0.030 C 
BRANCH   2   3
HETATM    3  C11 UNL     1      22.217  32.958  15.945  1.00  0.00     0.003 C 
BRANCH   3   4
HETATM    4  C10 UNL     1      22.616  31.866  15.023  1.00  0.00     0.030 C 
BRANCH   4   5
HETATM    5  C9  UNL     1      21.760  31.871  13.747  1.00  0.00     0.272 C 
BRANCH   5   6
HETATM    6  N3  UNL     1      21.488  30.571  13.240  1.00  0.00     0.091 N 
HETATM    7  C8  UNL     1      21.218  29.604  14.285  1.00  0.00     0.302 C 
HETATM    8  C7  UNL     1      19.819  29.752  14.839  1.00  0.00     0.302 C 
HETATM    9  N2  UNL     1      18.815  29.665  13.806  1.00  0.00     0.092 N 
HETATM   10  C31 UNL     1      19.132  30.563  12.747  1.00  0.00     0.302 C 
HETATM   11  C30 UNL     1      20.523  30.463  12.205  1.00  0.00     0.302 C 
BRANCH   9  12
HETATM   12  C6  UNL     1      18.543  28.309  13.398  1.00  0.00     0.277 C 
BRANCH  12  13
HETATM   13  C5  UNL     1      17.458  28.202  12.380  1.00  0.00     0.073 C 
BRANCH  13  14
HETATM   14  C4  UNL     1      18.026  27.610  11.141  1.00  0.00    -0.005 C 
HETATM   15  C3  UNL     1      17.683  28.201   9.934  1.00  0.00     0.180 C 
HETATM   16  C2  UNL     1      18.015  27.832   8.645  1.00  0.00     0.083 C 
HETATM   17  O1  UNL     1      16.960  29.228  10.049  1.00  0.00    -0.288 OA
HETATM   18  C1  UNL     1      19.028  26.999   8.202  1.00  0.00     0.073 C 
HETATM   19  N1  UNL     1      19.212  26.928   6.797  1.00  0.00    -0.101 NA
HETATM   20  C34 UNL     1      19.866  26.237   9.010  1.00  0.00     0.080 C 
HETATM   21  C33 UNL     1      19.801  26.006  10.366  1.00  0.00     0.058 C 
HETATM   22 CL3  UNL     1      21.187  25.475   8.141  1.00  0.00    -0.081 Cl
HETATM   23  C32 UNL     1      18.856  26.513  11.257  1.00  0.00     0.036 C 
HETATM   24 CL2  UNL     1      21.029  24.970  11.053  1.00  0.00    -0.082 Cl
ENDBRANCH  13  14
ENDBRANCH  12  13
ENDBRANCH   9  12
ENDBRANCH   5   6
ENDBRANCH   4   5
ENDBRANCH   3   4
ENDBRANCH   2   3
ENDBRANCH   1   2
BRANCH   1  25
HETATM   25  N4  UNL     1      18.957  33.194  15.611  1.00  0.00     0.091 N 
HETATM   26  C14 UNL     1      18.145  32.722  16.733  1.00  0.00     0.302 C 
HETATM   27  C15 UNL     1      17.461  33.889  17.420  1.00  0.00     0.302 C 
HETATM   28  N5  UNL     1      16.861  34.783  16.451  1.00  0.00     0.092 N 
HETATM   29  C28 UNL     1      16.737  34.193  15.161  1.00  0.00     0.302 C 
HETATM   30  C29 UNL     1      18.044  33.716  14.607  1.00  0.00     0.302 C 
BRANCH  28  31
HETATM   31  C16 UNL     1      15.661  35.327  17.016  1.00  0.00     0.277 C 
BRANCH  31  32
HETATM   32  C17 UNL     1      15.753  35.613  18.483  1.00  0.00     0.074 C 
BRANCH  32  33
HETATM   33  C18 UNL     1      15.676  37.156  18.610  1.00  0.00     0.063 C 
HETATM   34  N6  UNL     1      16.588  37.833  17.895  1.00  0.00    -0.369 N 
ATOM     35  H6  UNL     1      17.118  37.078  17.460  1.00  0.00     0.165 HD
BRANCH  34  36
HETATM   36  C19 UNL     1      17.156  38.828  17.458  1.00  0.00     0.045 A 
HETATM   37  C20 UNL     1      16.408  39.967  17.094  1.00  0.00     0.047 A 
HETATM   38  C21 UNL     1      17.013  41.068  16.616  1.00  0.00     0.090 A 
HETATM   39  N7  UNL     1      18.345  41.149  16.459  1.00  0.00    -0.365 N 
HETATM   40  C22 UNL     1      19.073  40.066  16.803  1.00  0.00     0.044 A 
ATOM     41  H7  UNL     1      18.788  41.993  16.095  1.00  0.00     0.165 HD
HETATM   42  C23 UNL     1      20.449  40.179  16.629  1.00  0.00     0.032 A 
HETATM   43  C27 UNL     1      18.528  38.908  17.297  1.00  0.00     0.019 A 
HETATM   44  C24 UNL     1      21.272  39.125  16.952  1.00  0.00     0.026 A 
HETATM   45  C25 UNL     1      20.744  37.959  17.446  1.00  0.00     0.035 A 
HETATM   46 CL1  UNL     1      21.816  36.658  17.839  1.00  0.00    -0.084 Cl
HETATM   47  C26 UNL     1      19.368  37.836  17.625  1.00  0.00     0.040 A 
ENDBRANCH  34  36
ENDBRANCH  32  33
ENDBRANCH  31  32
ENDBRANCH  28  31
ENDBRANCH   1  25
TORSDOF 13
ENDMDL
MODEL 5
REMARK VINA RESULT: -9.284344955      1.466      2.557
REMARK  13 active torsions:
REMARK  status: ('A' for Active; 'I' for Inactive)
REMARK    1  A    between atoms: C4_6  and  C5_7 
REMARK    2  A    between atoms: C5_7  and  C6_8 
REMARK    3  A    between atoms: C6_8  and  N2_9 
REMARK    4  A    between atoms: N3_12  and  C9_13 
REMARK    5  A    between atoms: C9_13  and  C10_14 
REMARK    6  A    between atoms: C10_14  and  C11_15 
REMARK    7  A    between atoms: C11_15  and  C12_16 
REMARK    8  A    between atoms: C12_16  and  C13_17 
REMARK    9  A    between atoms: C13_17  and  N4_18 
REMARK   10  A    between atoms: N5_21  and  C16_22 
REMARK   11  A    between atoms: C16_22  and  C17_23 
REMARK   12  A    between atoms: C17_23  and  C18_24 
REMARK   13  A    between atoms: N6_25  and  C19_27 
ROOT
HETATM    1  C13 UNL     1      21.566  31.819  13.507  1.00  0.00     0.272 C 
ENDROOT
BRANCH   1   2
HETATM    2  C12 UNL     1      20.828  31.116  12.439  1.00  0.00     0.030 C 
BRANCH   2   3
HETATM    3  C11 UNL     1      19.418  31.503  12.192  1.00  0.00     0.003 C 
BRANCH   3   4
HETATM    4  C10 UNL     1      18.360  30.516  12.524  1.00  0.00     0.030 C 
BRANCH   4   5
HETATM    5  C9  UNL     1      18.126  29.536  11.364  1.00  0.00     0.272 C 
BRANCH   5   6
HETATM    6  N3  UNL     1      19.091  28.496  11.294  1.00  0.00     0.091 N 
HETATM    7  C8  UNL     1      19.080  27.637  12.462  1.00  0.00     0.302 C 
HETATM    8  C7  UNL     1      17.928  26.658  12.426  1.00  0.00     0.302 C 
HETATM    9  N2  UNL     1      17.927  25.864  11.221  1.00  0.00     0.092 N 
HETATM   10  C31 UNL     1      18.018  26.714  10.082  1.00  0.00     0.302 C 
HETATM   11  C30 UNL     1      19.129  27.718  10.108  1.00  0.00     0.302 C 
BRANCH   9  12
HETATM   12  C6  UNL     1      18.883  24.785  11.259  1.00  0.00     0.277 C 
BRANCH  12  13
HETATM   13  C5  UNL     1      19.129  24.164   9.925  1.00  0.00     0.073 C 
BRANCH  13  14
HETATM   14  C4  UNL     1      20.552  24.383   9.555  1.00  0.00    -0.005 C 
HETATM   15  C3  UNL     1      20.939  24.033   8.270  1.00  0.00     0.180 C 
HETATM   16  C2  UNL     1      22.188  24.074   7.683  1.00  0.00     0.083 C 
HETATM   17  O1  UNL     1      19.997  23.616   7.542  1.00  0.00    -0.288 OA
HETATM   18  C1  UNL     1      23.320  24.771   8.072  1.00  0.00     0.073 C 
HETATM   19  N1  UNL     1      24.420  24.730   7.176  1.00  0.00    -0.101 NA
HETATM   20  C34 UNL     1      23.464  25.495   9.250  1.00  0.00     0.080 C 
HETATM   21  C33 UNL     1      22.625  25.566  10.340  1.00  0.00     0.058 C 
HETATM   22 CL3  UNL     1      24.938  26.443   9.324  1.00  0.00    -0.081 Cl
HETATM   23  C32 UNL     1      21.403  24.917  10.501  1.00  0.00     0.036 C 
HETATM   24 CL2  UNL     1      23.140  26.578  11.670  1.00  0.00    -0.082 Cl
ENDBRANCH  13  14
ENDBRANCH  12  13
ENDBRANCH   9  12
ENDBRANCH   5   6
ENDBRANCH   4   5
ENDBRANCH   3   4
ENDBRANCH   2   3
ENDBRANCH   1   2
BRANCH   1  25
HETATM   25  N4  UNL     1      21.911  31.077  14.671  1.00  0.00     0.091 N 
HETATM   26  C14 UNL     1      21.751  31.878  15.885  1.00  0.00     0.302 C 
HETATM   27  C15 UNL     1      20.315  32.346  16.026  1.00  0.00     0.302 C 
HETATM   28  N5  UNL     1      19.388  31.262  15.775  1.00  0.00     0.092 N 
HETATM   29  C28 UNL     1      20.012  29.983  15.821  1.00  0.00     0.302 C 
HETATM   30  C29 UNL     1      21.151  29.853  14.857  1.00  0.00     0.302 C 
BRANCH  28  31
HETATM   31  C16 UNL     1      18.244  31.438  16.622  1.00  0.00     0.277 C 
BRANCH  31  32
HETATM   32  C17 UNL     1      16.937  31.149  15.951  1.00  0.00     0.074 C 
BRANCH  32  33
HETATM   33  C18 UNL     1      16.321  32.535  15.629  1.00  0.00     0.063 C 
HETATM   34  N6  UNL     1      16.321  33.409  16.647  1.00  0.00    -0.369 N 
ATOM     35  H6  UNL     1      16.738  32.859  17.398  1.00  0.00     0.165 HD
BRANCH  34  36
HETATM   36  C19 UNL     1      16.113  34.482  17.203  1.00  0.00     0.045 A 
HETATM   37  C20 UNL     1      14.790  34.916  17.432  1.00  0.00     0.047 A 
HETATM   38  C21 UNL     1      14.542  36.087  18.043  1.00  0.00     0.090 A 
HETATM   39  N7  UNL     1      15.522  36.903  18.465  1.00  0.00    -0.365 N 
HETATM   40  C22 UNL     1      16.793  36.500  18.253  1.00  0.00     0.044 A 
ATOM     41  H7  UNL     1      15.316  37.788  18.927  1.00  0.00     0.165 HD
HETATM   42  C23 UNL     1      17.787  37.365  18.700  1.00  0.00     0.032 A 
HETATM   43  C27 UNL     1      17.125  35.320  17.637  1.00  0.00     0.019 A 
HETATM   44  C24 UNL     1      19.112  37.039  18.526  1.00  0.00     0.026 A 
HETATM   45  C25 UNL     1      19.462  35.864  17.912  1.00  0.00     0.035 A 
HETATM   46 CL1  UNL     1      21.141  35.494  17.714  1.00  0.00    -0.084 Cl
HETATM   47  C26 UNL     1      18.475  34.991  17.461  1.00  0.00     0.040 A 
ENDBRANCH  34  36
ENDBRANCH  32  33
ENDBRANCH  31  32
ENDBRANCH  28  31
ENDBRANCH   1  25
TORSDOF 13
ENDMDL
