MODEL 1
REMARK VINA RESULT: -8.490641630      0.000      0.000
REMARK  15 active torsions:
REMARK  status: ('A' for Active; 'I' for Inactive)
REMARK    1  A    between atoms: C2_2  and  C3_3 
REMARK    2  A    between atoms: C3_3  and  C4_4 
REMARK    3  A    between atoms: C5_5  and  C6_6 
REMARK    4  A    between atoms: C6_6  and  C7_7 
REMARK    5  A    between atoms: C7_7  and  C8_8 
REMARK       I    between atoms: N1_12  and  C11_13 
REMARK    6  A    between atoms: C11_13  and  C12_15 
REMARK    7  A    between atoms: C12_15  and  C13_16 
REMARK    8  A    between atoms: C12_15  and  N2_20 
REMARK    9  A    between atoms: C13_16  and  C14_17 
REMARK   10  A    between atoms: C14_17  and  S1_18 
REMARK       I    between atoms: N2_20  and  C16_22 
REMARK   11  A    between atoms: C16_22  and  C17_24 
REMARK   12  A    between atoms: C17_24  and  N3_25 
REMARK       I    between atoms: N3_25  and  C18_27 
REMARK   13  A    between atoms: C18_27  and  C19_29 
REMARK       I    between atoms: N4_42  and  C29_43 
REMARK   14  A    between atoms: C29_43  and  O6_45 
REMARK   15  A    between atoms: O6_45  and  C30_46 
ROOT
HETATM    1  C12 UNL     1      20.306  27.575  12.520  1.00  0.00     0.178 C 
ENDROOT
BRANCH   1   2
HETATM    2  C11 UNL     1      20.912  28.868  13.016  1.00  0.00     0.249 C 
HETATM    3  N1  UNL     1      20.274  29.986  13.489  1.00  0.00    -0.285 N 
HETATM    4  C10 UNL     1      18.845  30.158  13.470  1.00  0.00     0.228 C 
HETATM    5  C27 UNL     1      21.105  31.100  13.997  1.00  0.00     0.155 C 
HETATM    6  C9  UNL     1      18.035  31.355  13.230  1.00  0.00     0.128 C 
HETATM    7  O1  UNL     1      18.195  29.117  13.692  1.00  0.00    -0.273 OA
HETATM    8  C8  UNL     1      18.057  32.274  14.506  1.00  0.00     0.099 C 
HETATM    9  N4  UNL     1      19.412  32.731  14.569  1.00  0.00    -0.321 N 
HETATM   10  C28 UNL     1      20.507  32.417  13.605  1.00  0.00     0.149 C 
HETATM   11  C29 UNL     1      19.909  33.620  15.549  1.00  0.00     0.363 C 
HETATM   12  O5  UNL     1      19.294  34.194  16.466  1.00  0.00    -0.238 OA
HETATM   13  O2  UNL     1      22.199  28.951  13.001  1.00  0.00    -0.271 OA
BRANCH   8  14
HETATM   14  C7  UNL     1      17.484  31.434  15.570  1.00  0.00     0.038 C 
BRANCH  14  15
HETATM   15  C6  UNL     1      16.125  31.636  16.126  1.00  0.00     0.096 C 
BRANCH  15  16
HETATM   16  C5  UNL     1      15.928  33.096  16.393  1.00  0.00    -0.107 C 
HETATM   17  C4  UNL     1      15.805  34.279  16.570  1.00  0.00    -0.107 C 
BRANCH  17  18
HETATM   18  C3  UNL     1      15.699  35.748  16.768  1.00  0.00     0.093 C 
BRANCH  18  19
HETATM   19  C2  UNL     1      14.620  35.941  17.851  1.00  0.00     0.007 C 
HETATM   20  C1  UNL     1      15.258  36.645  19.006  1.00  0.00     0.006 C 
ENDBRANCH  18  19
ENDBRANCH  17  18
ENDBRANCH  15  16
ENDBRANCH  14  15
ENDBRANCH   8  14
BRANCH  11  21
HETATM   21  O6  UNL     1      21.278  33.912  15.519  1.00  0.00    -0.304 OA
BRANCH  21  22
HETATM   22  C30 UNL     1      22.122  33.930  16.640  1.00  0.00     0.176 C 
HETATM   23  C31 UNL     1      22.389  32.552  17.161  1.00  0.00     0.034 C 
ENDBRANCH  21  22
ENDBRANCH  11  21
ENDBRANCH   1   2
BRANCH   1  24
HETATM   24  C13 UNL     1      21.363  26.683  11.967  1.00  0.00     0.045 C 
BRANCH  24  25
HETATM   25  C14 UNL     1      21.550  26.892  10.463  1.00  0.00     0.076 C 
BRANCH  25  26
HETATM   26  S1  UNL     1      21.667  25.261   9.690  1.00  0.00    -0.173 SA
HETATM   27  C15 UNL     1      20.242  24.251  10.157  1.00  0.00     0.089 C 
ENDBRANCH  25  26
ENDBRANCH  24  25
ENDBRANCH   1  24
BRANCH   1  28
HETATM   28  N2  UNL     1      19.300  27.804  11.491  1.00  0.00    -0.346 N 
HETATM   29  C16 UNL     1      18.127  27.048  11.324  1.00  0.00     0.246 C 
HETATM   30  O3  UNL     1      17.862  26.112  12.100  1.00  0.00    -0.271 OA
ATOM     31  H2  UNL     1      19.461  28.573  10.840  1.00  0.00     0.163 HD
BRANCH  29  32
HETATM   32  C17 UNL     1      17.176  27.365  10.241  1.00  0.00     0.114 A 
HETATM   33  C25 UNL     1      16.873  28.826  10.028  1.00  0.00     0.044 A 
HETATM   34  C26 UNL     1      15.791  27.932  10.593  1.00  0.00     0.044 A 
BRANCH  32  35
HETATM   35  N3  UNL     1      17.333  26.623   9.001  1.00  0.00    -0.339 N 
HETATM   36  C18 UNL     1      18.349  26.892   8.089  1.00  0.00     0.255 C 
HETATM   37  O4  UNL     1      19.153  27.842   8.389  1.00  0.00    -0.268 OA
ATOM     38  H3  UNL     1      16.672  25.875   8.791  1.00  0.00     0.164 HD
BRANCH  36  39
HETATM   39  C19 UNL     1      18.560  26.166   6.845  1.00  0.00     0.075 A 
HETATM   40  C20 UNL     1      19.840  26.261   6.222  1.00  0.00     0.062 A 
HETATM   41  C21 UNL     1      20.134  25.546   5.105  1.00  0.00     0.119 A 
HETATM   42  F1  UNL     1      21.381  25.626   4.527  1.00  0.00    -0.206 F 
HETATM   43  C22 UNL     1      19.209  24.706   4.524  1.00  0.00     0.069 A 
HETATM   44  C23 UNL     1      17.942  24.580   5.092  1.00  0.00     0.076 A 
HETATM   45 CL1  UNL     1      16.751  23.535   4.395  1.00  0.00    -0.081 Cl
HETATM   46  C24 UNL     1      17.691  25.324   6.231  1.00  0.00     0.153 A 
HETATM   47  F2  UNL     1      16.435  25.191   6.760  1.00  0.00    -0.203 F 
ENDBRANCH  36  39
ENDBRANCH  32  35
ENDBRANCH  29  32
ENDBRANCH   1  28
TORSDOF 15
ENDMDL
MODEL 2
REMARK VINA RESULT: -8.474657013      2.398      3.092
REMARK  15 active torsions:
REMARK  status: ('A' for Active; 'I' for Inactive)
REMARK    1  A    between atoms: C2_2  and  C3_3 
REMARK    2  A    between atoms: C3_3  and  C4_4 
REMARK    3  A    between atoms: C5_5  and  C6_6 
REMARK    4  A    between atoms: C6_6  and  C7_7 
REMARK    5  A    between atoms: C7_7  and  C8_8 
REMARK       I    between atoms: N1_12  and  C11_13 
REMARK    6  A    between atoms: C11_13  and  C12_15 
REMARK    7  A    between atoms: C12_15  and  C13_16 
REMARK    8  A    between atoms: C12_15  and  N2_20 
REMARK    9  A    between atoms: C13_16  and  C14_17 
REMARK   10  A    between atoms: C14_17  and  S1_18 
REMARK       I    between atoms: N2_20  and  C16_22 
REMARK   11  A    between atoms: C16_22  and  C17_24 
REMARK   12  A    between atoms: C17_24  and  N3_25 
REMARK       I    between atoms: N3_25  and  C18_27 
REMARK   13  A    between atoms: C18_27  and  C19_29 
REMARK       I    between atoms: N4_42  and  C29_43 
REMARK   14  A    between atoms: C29_43  and  O6_45 
REMARK   15  A    between atoms: O6_45  and  C30_46 
ROOT
HETATM    1  C12 UNL     1      20.578  26.847  11.034  1.00  0.00     0.178 C 
ENDROOT
BRANCH   1   2
HETATM    2  C11 UNL     1      21.116  28.196  11.455  1.00  0.00     0.249 C 
HETATM    3  N1  UNL     1      20.465  29.211  12.108  1.00  0.00    -0.285 N 
HETATM    4  C10 UNL     1      19.055  29.199  12.398  1.00  0.00     0.228 C 
HETATM    5  C27 UNL     1      21.245  30.410  12.484  1.00  0.00     0.155 C 
HETATM    6  C9  UNL     1      18.075  30.287  12.395  1.00  0.00     0.128 C 
HETATM    7  O1  UNL     1      18.599  28.078  12.700  1.00  0.00    -0.273 OA
HETATM    8  C8  UNL     1      18.260  31.171  13.682  1.00  0.00     0.099 C 
HETATM    9  N4  UNL     1      19.532  31.797  13.482  1.00  0.00    -0.321 N 
HETATM   10  C28 UNL     1      20.423  31.649  12.294  1.00  0.00     0.149 C 
HETATM   11  C29 UNL     1      20.117  32.719  14.378  1.00  0.00     0.363 C 
HETATM   12  O5  UNL     1      19.650  33.188  15.431  1.00  0.00    -0.238 OA
HETATM   13  O2  UNL     1      22.350  28.443  11.174  1.00  0.00    -0.271 OA
BRANCH   8  14
HETATM   14  C7  UNL     1      18.036  30.240  14.799  1.00  0.00     0.038 C 
BRANCH  14  15
HETATM   15  C6  UNL     1      16.898  30.358  15.743  1.00  0.00     0.096 C 
BRANCH  15  16
HETATM   16  C5  UNL     1      16.524  31.802  15.865  1.00  0.00    -0.107 C 
HETATM   17  C4  UNL     1      16.202  32.953  16.009  1.00  0.00    -0.107 C 
BRANCH  17  18
HETATM   18  C3  UNL     1      15.769  34.357  16.221  1.00  0.00     0.093 C 
BRANCH  18  19
HETATM   19  C2  UNL     1      15.055  34.366  17.586  1.00  0.00     0.007 C 
HETATM   20  C1  UNL     1      14.483  35.734  17.790  1.00  0.00     0.006 C 
ENDBRANCH  18  19
ENDBRANCH  17  18
ENDBRANCH  15  16
ENDBRANCH  14  15
ENDBRANCH   8  14
BRANCH  11  21
HETATM   21  O6  UNL     1      21.403  33.185  14.074  1.00  0.00    -0.304 OA
BRANCH  21  22
HETATM   22  C30 UNL     1      22.456  33.298  14.995  1.00  0.00     0.176 C 
HETATM   23  C31 UNL     1      23.668  32.537  14.554  1.00  0.00     0.034 C 
ENDBRANCH  21  22
ENDBRANCH  11  21
ENDBRANCH   1   2
BRANCH   1  24
HETATM   24  C13 UNL     1      21.527  25.765  11.417  1.00  0.00     0.045 C 
BRANCH  24  25
HETATM   25  C14 UNL     1      22.190  25.134  10.192  1.00  0.00     0.076 C 
BRANCH  25  26
HETATM   26  S1  UNL     1      23.982  25.291  10.393  1.00  0.00    -0.173 SA
HETATM   27  C15 UNL     1      24.596  26.675   9.406  1.00  0.00     0.089 C 
ENDBRANCH  25  26
ENDBRANCH  24  25
ENDBRANCH   1  24
BRANCH   1  28
HETATM   28  N2  UNL     1      20.345  26.778   9.597  1.00  0.00    -0.346 N 
HETATM   29  C16 UNL     1      19.101  26.963   8.969  1.00  0.00     0.246 C 
HETATM   30  O3  UNL     1      18.088  27.231   9.640  1.00  0.00    -0.271 OA
ATOM     31  H2  UNL     1      21.148  26.581   8.999  1.00  0.00     0.163 HD
BRANCH  29  32
HETATM   32  C17 UNL     1      18.977  26.866   7.501  1.00  0.00     0.114 A 
HETATM   33  C25 UNL     1      18.045  27.853   6.847  1.00  0.00     0.044 A 
HETATM   34  C26 UNL     1      17.652  26.393   6.884  1.00  0.00     0.044 A 
BRANCH  32  35
HETATM   35  N3  UNL     1      20.208  26.657   6.759  1.00  0.00    -0.339 N 
HETATM   36  C18 UNL     1      20.805  25.406   6.632  1.00  0.00     0.255 C 
HETATM   37  O4  UNL     1      20.218  24.428   7.213  1.00  0.00    -0.268 OA
ATOM     38  H3  UNL     1      20.653  27.459   6.312  1.00  0.00     0.164 HD
BRANCH  36  39
HETATM   39  C19 UNL     1      22.026  25.142   5.885  1.00  0.00     0.075 A 
HETATM   40  C20 UNL     1      23.233  24.949   6.620  1.00  0.00     0.062 A 
HETATM   41  C21 UNL     1      24.393  24.617   5.994  1.00  0.00     0.119 A 
HETATM   42  F1  UNL     1      25.546  24.407   6.716  1.00  0.00    -0.206 F 
HETATM   43  C22 UNL     1      24.453  24.459   4.627  1.00  0.00     0.069 A 
HETATM   44  C23 UNL     1      23.302  24.641   3.862  1.00  0.00     0.076 A 
HETATM   45 CL1  UNL     1      23.334  24.451   2.142  1.00  0.00    -0.081 Cl
HETATM   46  C24 UNL     1      22.145  24.973   4.543  1.00  0.00     0.153 A 
HETATM   47  F2  UNL     1      21.033  25.158   3.767  1.00  0.00    -0.203 F 
ENDBRANCH  36  39
ENDBRANCH  32  35
ENDBRANCH  29  32
ENDBRANCH   1  28
TORSDOF 15
ENDMDL
MODEL 3
REMARK VINA RESULT: -8.454024728      1.640      1.932
REMARK  15 active torsions:
REMARK  status: ('A' for Active; 'I' for Inactive)
REMARK    1  A    between atoms: C2_2  and  C3_3 
REMARK    2  A    between atoms: C3_3  and  C4_4 
REMARK    3  A    between atoms: C5_5  and  C6_6 
REMARK    4  A    between atoms: C6_6  and  C7_7 
REMARK    5  A    between atoms: C7_7  and  C8_8 
REMARK       I    between atoms: N1_12  and  C11_13 
REMARK    6  A    between atoms: C11_13  and  C12_15 
REMARK    7  A    between atoms: C12_15  and  C13_16 
REMARK    8  A    between atoms: C12_15  and  N2_20 
REMARK    9  A    between atoms: C13_16  and  C14_17 
REMARK   10  A    between atoms: C14_17  and  S1_18 
REMARK       I    between atoms: N2_20  and  C16_22 
REMARK   11  A    between atoms: C16_22  and  C17_24 
REMARK   12  A    between atoms: C17_24  and  N3_25 
REMARK       I    between atoms: N3_25  and  C18_27 
REMARK   13  A    between atoms: C18_27  and  C19_29 
REMARK       I    between atoms: N4_42  and  C29_43 
REMARK   14  A    between atoms: C29_43  and  O6_45 
REMARK   15  A    between atoms: O6_45  and  C30_46 
ROOT
HETATM    1  C12 UNL     1      20.195  28.238  13.060  1.00  0.00     0.178 C 
ENDROOT
BRANCH   1   2
HETATM    2  C11 UNL     1      20.741  29.532  13.620  1.00  0.00     0.249 C 
HETATM    3  N1  UNL     1      20.051  30.626  14.077  1.00  0.00    -0.285 N 
HETATM    4  C10 UNL     1      18.623  30.769  13.973  1.00  0.00     0.228 C 
HETATM    5  C27 UNL     1      20.825  31.743  14.659  1.00  0.00     0.155 C 
HETATM    6  C9  UNL     1      17.803  31.954  13.709  1.00  0.00     0.128 C 
HETATM    7  O1  UNL     1      17.983  29.710  14.132  1.00  0.00    -0.273 OA
HETATM    8  C8  UNL     1      17.726  32.844  15.003  1.00  0.00     0.099 C 
HETATM    9  N4  UNL     1      19.065  33.327  15.160  1.00  0.00    -0.321 N 
HETATM   10  C28 UNL     1      20.224  33.057  14.259  1.00  0.00     0.149 C 
HETATM   11  C29 UNL     1      19.481  34.203  16.188  1.00  0.00     0.363 C 
HETATM   12  O5  UNL     1      18.798  34.743  17.077  1.00  0.00    -0.238 OA
HETATM   13  O2  UNL     1      22.024  29.641  13.688  1.00  0.00    -0.271 OA
BRANCH   8  14
HETATM   14  C7  UNL     1      17.108  31.968  16.011  1.00  0.00     0.038 C 
BRANCH  14  15
HETATM   15  C6  UNL     1      15.665  32.007  16.350  1.00  0.00     0.096 C 
BRANCH  15  16
HETATM   16  C5  UNL     1      15.342  33.355  16.917  1.00  0.00    -0.107 C 
HETATM   17  C4  UNL     1      15.033  34.429  17.362  1.00  0.00    -0.107 C 
BRANCH  17  18
HETATM   18  C3  UNL     1      14.607  35.753  17.883  1.00  0.00     0.093 C 
BRANCH  18  19
HETATM   19  C2  UNL     1      15.872  36.378  18.502  1.00  0.00     0.007 C 
HETATM   20  C1  UNL     1      16.443  37.332  17.499  1.00  0.00     0.006 C 
ENDBRANCH  18  19
ENDBRANCH  17  18
ENDBRANCH  15  16
ENDBRANCH  14  15
ENDBRANCH   8  14
BRANCH  11  21
HETATM   21  O6  UNL     1      20.843  34.523  16.249  1.00  0.00    -0.304 OA
BRANCH  21  22
HETATM   22  C30 UNL     1      21.643  34.422  17.398  1.00  0.00     0.176 C 
HETATM   23  C31 UNL     1      22.373  33.116  17.456  1.00  0.00     0.034 C 
ENDBRANCH  21  22
ENDBRANCH  11  21
ENDBRANCH   1   2
BRANCH   1  24
HETATM   24  C13 UNL     1      21.304  27.375  12.566  1.00  0.00     0.045 C 
BRANCH  24  25
HETATM   25  C14 UNL     1      21.503  27.519  11.057  1.00  0.00     0.076 C 
BRANCH  25  26
HETATM   26  S1  UNL     1      23.048  26.685  10.622  1.00  0.00    -0.173 SA
HETATM   27  C15 UNL     1      24.332  27.095  11.826  1.00  0.00     0.089 C 
ENDBRANCH  25  26
ENDBRANCH  24  25
ENDBRANCH   1  24
BRANCH   1  28
HETATM   28  N2  UNL     1      19.259  28.469  11.967  1.00  0.00    -0.346 N 
HETATM   29  C16 UNL     1      18.082  27.735  11.741  1.00  0.00     0.246 C 
HETATM   30  O3  UNL     1      17.750  26.818  12.514  1.00  0.00    -0.271 OA
ATOM     31  H2  UNL     1      19.475  29.224  11.316  1.00  0.00     0.163 HD
BRANCH  29  32
HETATM   32  C17 UNL     1      17.206  28.053  10.597  1.00  0.00     0.114 A 
HETATM   33  C25 UNL     1      16.366  29.297  10.728  1.00  0.00     0.044 A 
HETATM   34  C26 UNL     1      15.681  27.949  10.761  1.00  0.00     0.044 A 
BRANCH  32  35
HETATM   35  N3  UNL     1      17.780  27.882   9.273  1.00  0.00    -0.339 N 
HETATM   36  C18 UNL     1      18.080  26.632   8.741  1.00  0.00     0.255 C 
HETATM   37  O4  UNL     1      17.833  25.617   9.481  1.00  0.00    -0.268 OA
ATOM     38  H3  UNL     1      17.969  28.712   8.711  1.00  0.00     0.164 HD
BRANCH  36  39
HETATM   39  C19 UNL     1      18.638  26.407   7.415  1.00  0.00     0.075 A 
HETATM   40  C20 UNL     1      17.845  26.768   6.285  1.00  0.00     0.062 A 
HETATM   41  C21 UNL     1      18.333  26.664   5.021  1.00  0.00     0.119 A 
HETATM   42  F1  UNL     1      17.569  27.040   3.940  1.00  0.00    -0.206 F 
HETATM   43  C22 UNL     1      19.608  26.202   4.777  1.00  0.00     0.069 A 
HETATM   44  C23 UNL     1      20.423  25.833   5.847  1.00  0.00     0.076 A 
HETATM   45 CL1  UNL     1      22.030  25.249   5.585  1.00  0.00    -0.081 Cl
HETATM   46  C24 UNL     1      19.884  25.961   7.115  1.00  0.00     0.153 A 
HETATM   47  F2  UNL     1      20.700  25.579   8.146  1.00  0.00    -0.203 F 
ENDBRANCH  36  39
ENDBRANCH  32  35
ENDBRANCH  29  32
ENDBRANCH   1  28
TORSDOF 15
ENDMDL
MODEL 4
REMARK VINA RESULT: -8.452148498      1.061      1.103
REMARK  15 active torsions:
REMARK  status: ('A' for Active; 'I' for Inactive)
REMARK    1  A    between atoms: C2_2  and  C3_3 
REMARK    2  A    between atoms: C3_3  and  C4_4 
REMARK    3  A    between atoms: C5_5  and  C6_6 
REMARK    4  A    between atoms: C6_6  and  C7_7 
REMARK    5  A    between atoms: C7_7  and  C8_8 
REMARK       I    between atoms: N1_12  and  C11_13 
REMARK    6  A    between atoms: C11_13  and  C12_15 
REMARK    7  A    between atoms: C12_15  and  C13_16 
REMARK    8  A    between atoms: C12_15  and  N2_20 
REMARK    9  A    between atoms: C13_16  and  C14_17 
REMARK   10  A    between atoms: C14_17  and  S1_18 
REMARK       I    between atoms: N2_20  and  C16_22 
REMARK   11  A    between atoms: C16_22  and  C17_24 
REMARK   12  A    between atoms: C17_24  and  N3_25 
REMARK       I    between atoms: N3_25  and  C18_27 
REMARK   13  A    between atoms: C18_27  and  C19_29 
REMARK       I    between atoms: N4_42  and  C29_43 
REMARK   14  A    between atoms: C29_43  and  O6_45 
REMARK   15  A    between atoms: O6_45  and  C30_46 
ROOT
HETATM    1  C12 UNL     1      20.285  27.449  12.448  1.00  0.00     0.178 C 
ENDROOT
BRANCH   1   2
HETATM    2  C11 UNL     1      20.916  28.733  12.935  1.00  0.00     0.249 C 
HETATM    3  N1  UNL     1      20.300  29.865  13.406  1.00  0.00    -0.285 N 
HETATM    4  C10 UNL     1      18.875  30.063  13.391  1.00  0.00     0.228 C 
HETATM    5  C27 UNL     1      21.153  30.965  13.906  1.00  0.00     0.155 C 
HETATM    6  C9  UNL     1      18.086  31.273  13.149  1.00  0.00     0.128 C 
HETATM    7  O1  UNL     1      18.207  29.035  13.621  1.00  0.00    -0.273 OA
HETATM    8  C8  UNL     1      18.130  32.197  14.420  1.00  0.00     0.099 C 
HETATM    9  N4  UNL     1      19.493  32.630  14.477  1.00  0.00    -0.321 N 
HETATM   10  C28 UNL     1      20.579  32.292  13.510  1.00  0.00     0.149 C 
HETATM   11  C29 UNL     1      20.010  33.514  15.450  1.00  0.00     0.363 C 
HETATM   12  O5  UNL     1      19.409  34.103  16.367  1.00  0.00    -0.238 OA
HETATM   13  O2  UNL     1      22.204  28.792  12.916  1.00  0.00    -0.271 OA
BRANCH   8  14
HETATM   14  C7  UNL     1      17.546  31.373  15.490  1.00  0.00     0.038 C 
BRANCH  14  15
HETATM   15  C6  UNL     1      16.167  31.557  16.002  1.00  0.00     0.096 C 
BRANCH  15  16
HETATM   16  C5  UNL     1      15.962  33.007  16.315  1.00  0.00    -0.107 C 
HETATM   17  C4  UNL     1      15.829  34.184  16.527  1.00  0.00    -0.107 C 
BRANCH  17  18
HETATM   18  C3  UNL     1      15.711  35.645  16.766  1.00  0.00     0.093 C 
BRANCH  18  19
HETATM   19  C2  UNL     1      14.670  35.796  17.892  1.00  0.00     0.007 C 
HETATM   20  C1  UNL     1      15.258  36.691  18.937  1.00  0.00     0.006 C 
ENDBRANCH  18  19
ENDBRANCH  17  18
ENDBRANCH  15  16
ENDBRANCH  14  15
ENDBRANCH   8  14
BRANCH  11  21
HETATM   21  O6  UNL     1      21.385  33.781  15.414  1.00  0.00    -0.304 OA
BRANCH  21  22
HETATM   22  C30 UNL     1      22.232  33.791  16.532  1.00  0.00     0.176 C 
HETATM   23  C31 UNL     1      22.364  32.432  17.146  1.00  0.00     0.034 C 
ENDBRANCH  21  22
ENDBRANCH  11  21
ENDBRANCH   1   2
BRANCH   1  24
HETATM   24  C13 UNL     1      21.315  26.559  11.844  1.00  0.00     0.045 C 
BRANCH  24  25
HETATM   25  C14 UNL     1      21.402  26.743  10.328  1.00  0.00     0.076 C 
BRANCH  25  26
HETATM   26  S1  UNL     1      21.358  25.102   9.569  1.00  0.00    -0.173 SA
HETATM   27  C15 UNL     1      20.091  24.087  10.362  1.00  0.00     0.089 C 
ENDBRANCH  25  26
ENDBRANCH  24  25
ENDBRANCH   1  24
BRANCH   1  28
HETATM   28  N2  UNL     1      19.241  27.695  11.461  1.00  0.00    -0.346 N 
HETATM   29  C16 UNL     1      18.036  26.978  11.363  1.00  0.00     0.246 C 
HETATM   30  O3  UNL     1      17.775  26.066  12.167  1.00  0.00    -0.271 OA
ATOM     31  H2  UNL     1      19.397  28.447  10.790  1.00  0.00     0.163 HD
BRANCH  29  32
HETATM   32  C17 UNL     1      17.047  27.310  10.318  1.00  0.00     0.114 A 
HETATM   33  C25 UNL     1      16.817  28.777  10.062  1.00  0.00     0.044 A 
HETATM   34  C26 UNL     1      15.718  27.970  10.718  1.00  0.00     0.044 A 
BRANCH  32  35
HETATM   35  N3  UNL     1      17.094  26.514   9.104  1.00  0.00    -0.339 N 
HETATM   36  C18 UNL     1      18.046  26.717   8.109  1.00  0.00     0.255 C 
HETATM   37  O4  UNL     1      18.892  27.658   8.307  1.00  0.00    -0.268 OA
ATOM     38  H3  UNL     1      16.402  25.775   8.975  1.00  0.00     0.164 HD
BRANCH  36  39
HETATM   39  C19 UNL     1      18.146  25.936   6.885  1.00  0.00     0.075 A 
HETATM   40  C20 UNL     1      18.508  24.560   6.996  1.00  0.00     0.062 A 
HETATM   41  C21 UNL     1      18.540  23.750   5.905  1.00  0.00     0.119 A 
HETATM   42  F1  UNL     1      18.866  22.419   6.028  1.00  0.00    -0.206 F 
HETATM   43  C22 UNL     1      18.231  24.223   4.649  1.00  0.00     0.069 A 
HETATM   44  C23 UNL     1      17.874  25.562   4.485  1.00  0.00     0.076 A 
HETATM   45 CL1  UNL     1      17.477  26.195   2.925  1.00  0.00    -0.081 Cl
HETATM   46  C24 UNL     1      17.851  26.346   5.625  1.00  0.00     0.153 A 
HETATM   47  F2  UNL     1      17.510  27.657   5.434  1.00  0.00    -0.203 F 
ENDBRANCH  36  39
ENDBRANCH  32  35
ENDBRANCH  29  32
ENDBRANCH   1  28
TORSDOF 15
ENDMDL
MODEL 5
REMARK VINA RESULT: -8.345636104      2.664      3.405
REMARK  15 active torsions:
REMARK  status: ('A' for Active; 'I' for Inactive)
REMARK    1  A    between atoms: C2_2  and  C3_3 
REMARK    2  A    between atoms: C3_3  and  C4_4 
REMARK    3  A    between atoms: C5_5  and  C6_6 
REMARK    4  A    between atoms: C6_6  and  C7_7 
REMARK    5  A    between atoms: C7_7  and  C8_8 
REMARK       I    between atoms: N1_12  and  C11_13 
REMARK    6  A    between atoms: C11_13  and  C12_15 
REMARK    7  A    between atoms: C12_15  and  C13_16 
REMARK    8  A    between atoms: C12_15  and  N2_20 
REMARK    9  A    between atoms: C13_16  and  C14_17 
REMARK   10  A    between atoms: C14_17  and  S1_18 
REMARK       I    between atoms: N2_20  and  C16_22 
REMARK   11  A    between atoms: C16_22  and  C17_24 
REMARK   12  A    between atoms: C17_24  and  N3_25 
REMARK       I    between atoms: N3_25  and  C18_27 
REMARK   13  A    between atoms: C18_27  and  C19_29 
REMARK       I    between atoms: N4_42  and  C29_43 
REMARK   14  A    between atoms: C29_43  and  O6_45 
REMARK   15  A    between atoms: O6_45  and  C30_46 
ROOT
HETATM    1  C12 UNL     1      20.515  26.729  10.820  1.00  0.00     0.178 C 
ENDROOT
BRANCH   1   2
HETATM    2  C11 UNL     1      21.044  28.079  11.247  1.00  0.00     0.249 C 
HETATM    3  N1  UNL     1      20.391  29.083  11.916  1.00  0.00    -0.285 N 
HETATM    4  C10 UNL     1      18.985  29.054  12.222  1.00  0.00     0.228 C 
HETATM    5  C27 UNL     1      21.164  30.286  12.294  1.00  0.00     0.155 C 
HETATM    6  C9  UNL     1      17.994  30.132  12.240  1.00  0.00     0.128 C 
HETATM    7  O1  UNL     1      18.544  27.926  12.520  1.00  0.00    -0.273 OA
HETATM    8  C8  UNL     1      18.185  31.007  13.532  1.00  0.00     0.099 C 
HETATM    9  N4  UNL     1      19.448  31.647  13.322  1.00  0.00    -0.321 N 
HETATM   10  C28 UNL     1      20.328  31.518  12.123  1.00  0.00     0.149 C 
HETATM   11  C29 UNL     1      20.035  32.567  14.220  1.00  0.00     0.363 C 
HETATM   12  O5  UNL     1      19.575  33.023  15.283  1.00  0.00    -0.238 OA
HETATM   13  O2  UNL     1      22.273  28.341  10.954  1.00  0.00    -0.271 OA
BRANCH   8  14
HETATM   14  C7  UNL     1      17.983  30.064  14.644  1.00  0.00     0.038 C 
BRANCH  14  15
HETATM   15  C6  UNL     1      17.184  30.386  15.851  1.00  0.00     0.096 C 
BRANCH  15  16
HETATM   16  C5  UNL     1      16.610  31.760  15.694  1.00  0.00    -0.107 C 
HETATM   17  C4  UNL     1      16.118  32.854  15.607  1.00  0.00    -0.107 C 
BRANCH  17  18
HETATM   18  C3  UNL     1      15.468  34.187  15.526  1.00  0.00     0.093 C 
BRANCH  18  19
HETATM   19  C2  UNL     1      15.855  34.914  16.829  1.00  0.00     0.007 C 
HETATM   20  C1  UNL     1      14.829  34.571  17.862  1.00  0.00     0.006 C 
ENDBRANCH  18  19
ENDBRANCH  17  18
ENDBRANCH  15  16
ENDBRANCH  14  15
ENDBRANCH   8  14
BRANCH  11  21
HETATM   21  O6  UNL     1      21.313  33.049  13.906  1.00  0.00    -0.304 OA
BRANCH  21  22
HETATM   22  C30 UNL     1      22.337  33.280  14.837  1.00  0.00     0.176 C 
HETATM   23  C31 UNL     1      23.496  32.355  14.633  1.00  0.00     0.034 C 
ENDBRANCH  21  22
ENDBRANCH  11  21
ENDBRANCH   1   2
BRANCH   1  24
HETATM   24  C13 UNL     1      21.406  25.641  11.311  1.00  0.00     0.045 C 
BRANCH  24  25
HETATM   25  C14 UNL     1      22.037  24.863  10.155  1.00  0.00     0.076 C 
BRANCH  25  26
HETATM   26  S1  UNL     1      23.822  25.158  10.200  1.00  0.00    -0.173 SA
HETATM   27  C15 UNL     1      24.302  26.246   8.839  1.00  0.00     0.089 C 
ENDBRANCH  25  26
ENDBRANCH  24  25
ENDBRANCH   1  24
BRANCH   1  28
HETATM   28  N2  UNL     1      20.400  26.622   9.371  1.00  0.00    -0.346 N 
HETATM   29  C16 UNL     1      19.225  26.853   8.634  1.00  0.00     0.246 C 
HETATM   30  O3  UNL     1      18.177  27.199   9.207  1.00  0.00    -0.271 OA
ATOM     31  H2  UNL     1      21.237  26.360   8.851  1.00  0.00     0.163 HD
BRANCH  29  32
HETATM   32  C17 UNL     1      19.220  26.711   7.165  1.00  0.00     0.114 A 
HETATM   33  C25 UNL     1      18.470  27.770   6.398  1.00  0.00     0.044 A 
HETATM   34  C26 UNL     1      17.907  26.367   6.444  1.00  0.00     0.044 A 
BRANCH  32  35
HETATM   35  N3  UNL     1      20.478  26.333   6.544  1.00  0.00    -0.339 N 
HETATM   36  C18 UNL     1      20.955  25.026   6.551  1.00  0.00     0.255 C 
HETATM   37  O4  UNL     1      20.231  24.153   7.144  1.00  0.00    -0.268 OA
ATOM     38  H3  UNL     1      21.033  27.055   6.085  1.00  0.00     0.164 HD
BRANCH  36  39
HETATM   39  C19 UNL     1      22.198  24.594   5.929  1.00  0.00     0.075 A 
HETATM   40  C20 UNL     1      22.602  25.238   4.721  1.00  0.00     0.062 A 
HETATM   41  C21 UNL     1      23.790  24.945   4.130  1.00  0.00     0.119 A 
HETATM   42  F1  UNL     1      24.181  25.591   2.980  1.00  0.00    -0.206 F 
HETATM   43  C22 UNL     1      24.650  24.012   4.667  1.00  0.00     0.069 A 
HETATM   44  C23 UNL     1      24.301  23.351   5.845  1.00  0.00     0.076 A 
HETATM   45 CL1  UNL     1      25.352  22.173   6.553  1.00  0.00    -0.081 Cl
HETATM   46  C24 UNL     1      23.084  23.686   6.412  1.00  0.00     0.153 A 
HETATM   47  F2  UNL     1      22.761  23.014   7.559  1.00  0.00    -0.203 F 
ENDBRANCH  36  39
ENDBRANCH  32  35
ENDBRANCH  29  32
ENDBRANCH   1  28
TORSDOF 15
ENDMDL
