MODEL 1
REMARK VINA RESULT: -9.276164519      0.000      0.000
REMARK  13 active torsions:
REMARK  status: ('A' for Active; 'I' for Inactive)
REMARK    1  A    between atoms: C2_2  and  C3_3 
REMARK    2  A    between atoms: C3_3  and  C4_4 
REMARK    3  A    between atoms: C3_3  and  N6_27 
REMARK    4  A    between atoms: N1_7  and  C7_8 
REMARK    5  A    between atoms: C8_11  and  N3_12 
REMARK    6  A    between atoms: N3_12  and  C9_14 
REMARK    7  A    between atoms: C9_14  and  C10_15 
REMARK    8  A    between atoms: C10_15  and  N4_16 
REMARK    9  A    between atoms: C19_30  and  O2_31 
REMARK   10  A    between atoms: O2_31  and  C20_32 
REMARK   11  A    between atoms: C20_32  and  C21_33 
REMARK   12  A    between atoms: C23_36  and  C24_37 
REMARK   13  A    between atoms: C24_37  and  C25_38 
ROOT
HETATM    1  C3  UNL     1      22.755  26.847  11.079  1.00  0.00    -0.008 C 
ENDROOT
BRANCH   1   2
HETATM    2  C2  UNL     1      24.006  26.233  11.577  1.00  0.00     0.048 C 
HETATM    3  C1  UNL     1      25.298  26.870  11.195  1.00  0.00     0.011 C 
ENDBRANCH   1   2
BRANCH   1   4
HETATM    4  C4  UNL     1      21.911  27.678  11.949  1.00  0.00     0.034 C 
HETATM    5  C5  UNL     1      21.081  28.747  11.291  1.00  0.00     0.030 C 
HETATM    6  C6  UNL     1      21.244  30.127  11.832  1.00  0.00     0.125 C 
HETATM    7  N1  UNL     1      21.108  30.123  13.264  1.00  0.00    -0.365 N 
HETATM    8  C15 UNL     1      21.703  29.011  13.981  1.00  0.00     0.125 C 
HETATM    9  C16 UNL     1      22.728  28.405  13.035  1.00  0.00     0.030 C 
BRANCH   7  10
HETATM   10  C7  UNL     1      20.429  31.170  13.923  1.00  0.00     0.146 A 
HETATM   11  N2  UNL     1      19.064  31.151  14.011  1.00  0.00    -0.175 N 
HETATM   12  C8  UNL     1      18.395  32.137  14.618  1.00  0.00     0.682 A 
ATOM     13  H2  UNL     1      18.548  30.371  13.606  1.00  0.00     0.186 HD
HETATM   14  N5  UNL     1      19.048  33.200  15.173  1.00  0.00    -0.155 N 
HETATM   15  C13 UNL     1      20.379  33.265  15.115  1.00  0.00     0.285 A 
ATOM     16  H5  UNL     1      18.520  33.943  15.632  1.00  0.00     0.187 HD
HETATM   17  O1  UNL     1      21.025  34.226  15.614  1.00  0.00    -0.266 OA
HETATM   18  C14 UNL     1      21.078  32.232  14.478  1.00  0.00     0.146 A 
HETATM   19 CL1  UNL     1      22.823  32.301  14.387  1.00  0.00    -0.074 Cl
BRANCH  12  20
HETATM   20  N3  UNL     1      17.115  32.132  14.700  1.00  0.00    -0.224 N 
ATOM     21  H3  UNL     1      16.585  32.221  13.833  1.00  0.00     0.177 HD
BRANCH  20  22
HETATM   22  C9  UNL     1      16.382  32.012  15.908  1.00  0.00     0.168 C 
BRANCH  22  23
HETATM   23  C10 UNL     1      15.500  33.250  16.049  1.00  0.00     0.291 C 
BRANCH  23  24
HETATM   24  N4  UNL     1      16.104  34.224  16.971  1.00  0.00     0.081 N 
HETATM   25  C11 UNL     1      15.221  34.451  18.103  1.00  0.00     0.309 C 
HETATM   26  C12 UNL     1      16.317  35.457  16.228  1.00  0.00     0.309 C 
ENDBRANCH  23  24
ENDBRANCH  22  23
ENDBRANCH  20  22
ENDBRANCH  12  20
ENDBRANCH   7  10
ENDBRANCH   1   4
BRANCH   1  27
HETATM   27  N6  UNL     1      22.074  26.082  10.043  1.00  0.00    -0.367 N 
HETATM   28  C17 UNL     1      22.996  25.819   9.005  1.00  0.00     0.130 C 
HETATM   29  C18 UNL     1      22.939  24.404   8.520  1.00  0.00     0.052 C 
HETATM   30  C19 UNL     1      21.465  24.226   8.089  1.00  0.00     0.127 C 
HETATM   31  C31 UNL     1      20.703  24.187   9.385  1.00  0.00     0.076 C 
HETATM   32  C32 UNL     1      21.138  25.135  10.440  1.00  0.00     0.066 C 
BRANCH  30  33
HETATM   33  O2  UNL     1      21.174  25.356   7.356  1.00  0.00    -0.383 OA
BRANCH  33  34
HETATM   34  C20 UNL     1      20.119  25.295   6.493  1.00  0.00     0.200 C 
BRANCH  34  35
HETATM   35  C21 UNL     1      19.486  26.557   6.081  1.00  0.00     0.151 C 
HETATM   36  O3  UNL     1      18.389  26.585   5.247  1.00  0.00    -0.383 OA
HETATM   37  C22 UNL     1      18.095  27.860   5.795  1.00  0.00     0.175 C 
HETATM   38  C23 UNL     1      18.662  27.262   7.102  1.00  0.00     0.045 C 
BRANCH  38  39
HETATM   39  C24 UNL     1      17.654  26.563   7.913  1.00  0.00     0.048 C 
BRANCH  39  40
HETATM   40  C25 UNL     1      17.582  26.825   9.355  1.00  0.00    -0.056 A 
HETATM   41  C26 UNL     1      17.660  25.761  10.277  1.00  0.00     0.009 A 
HETATM   42  C27 UNL     1      17.572  25.949  11.635  1.00  0.00     0.026 A 
HETATM   43  C28 UNL     1      17.402  27.206  12.157  1.00  0.00     0.055 A 
HETATM   44 CL2  UNL     1      17.285  27.491  13.890  1.00  0.00    -0.083 Cl
HETATM   45  C29 UNL     1      17.322  28.262  11.306  1.00  0.00     0.056 A 
HETATM   46 CL3  UNL     1      17.105  29.894  11.884  1.00  0.00    -0.083 Cl
HETATM   47  C30 UNL     1      17.413  28.054   9.940  1.00  0.00     0.032 A 
ENDBRANCH  39  40
ENDBRANCH  38  39
ENDBRANCH  34  35
ENDBRANCH  33  34
ENDBRANCH  30  33
ENDBRANCH   1  27
TORSDOF 13
ENDMDL
MODEL 2
REMARK VINA RESULT: -9.015810015      3.552     10.932
REMARK  13 active torsions:
REMARK  status: ('A' for Active; 'I' for Inactive)
REMARK    1  A    between atoms: C2_2  and  C3_3 
REMARK    2  A    between atoms: C3_3  and  C4_4 
REMARK    3  A    between atoms: C3_3  and  N6_27 
REMARK    4  A    between atoms: N1_7  and  C7_8 
REMARK    5  A    between atoms: C8_11  and  N3_12 
REMARK    6  A    between atoms: N3_12  and  C9_14 
REMARK    7  A    between atoms: C9_14  and  C10_15 
REMARK    8  A    between atoms: C10_15  and  N4_16 
REMARK    9  A    between atoms: C19_30  and  O2_31 
REMARK   10  A    between atoms: O2_31  and  C20_32 
REMARK   11  A    between atoms: C20_32  and  C21_33 
REMARK   12  A    between atoms: C23_36  and  C24_37 
REMARK   13  A    between atoms: C24_37  and  C25_38 
ROOT
HETATM    1  C3  UNL     1      20.985  31.335  14.525  1.00  0.00    -0.008 C 
ENDROOT
BRANCH   1   2
HETATM    2  C2  UNL     1      21.899  32.404  14.068  1.00  0.00     0.048 C 
HETATM    3  C1  UNL     1      23.226  32.523  14.738  1.00  0.00     0.011 C 
ENDBRANCH   1   2
BRANCH   1   4
HETATM    4  C4  UNL     1      20.813  30.093  13.758  1.00  0.00     0.034 C 
HETATM    5  C5  UNL     1      21.596  28.889  14.207  1.00  0.00     0.030 C 
HETATM    6  C6  UNL     1      22.431  28.227  13.164  1.00  0.00     0.125 C 
HETATM    7  N1  UNL     1      21.650  27.971  11.983  1.00  0.00    -0.365 N 
HETATM    8  C15 UNL     1      20.705  28.996  11.581  1.00  0.00     0.125 C 
HETATM    9  C16 UNL     1      21.161  30.275  12.267  1.00  0.00     0.030 C 
BRANCH   7  10
HETATM   10  C7  UNL     1      21.817  26.771  11.258  1.00  0.00     0.146 A 
HETATM   11  N2  UNL     1      20.919  25.751  11.406  1.00  0.00    -0.175 N 
HETATM   12  C8  UNL     1      21.061  24.600  10.741  1.00  0.00     0.682 A 
ATOM     13  H2  UNL     1      20.126  25.871  12.036  1.00  0.00     0.186 HD
HETATM   14  N5  UNL     1      22.109  24.399   9.888  1.00  0.00    -0.155 N 
HETATM   15  C13 UNL     1      23.012  25.364   9.708  1.00  0.00     0.285 A 
ATOM     16  H5  UNL     1      22.201  23.513   9.390  1.00  0.00     0.187 HD
HETATM   17  O1  UNL     1      23.995  25.224   8.931  1.00  0.00    -0.266 OA
HETATM   18  C14 UNL     1      22.862  26.569  10.406  1.00  0.00     0.146 A 
HETATM   19 CL1  UNL     1      24.038  27.844  10.187  1.00  0.00    -0.074 Cl
BRANCH  12  20
HETATM   20  N3  UNL     1      20.228  23.635  10.878  1.00  0.00    -0.224 N 
ATOM     21  H3  UNL     1      20.596  22.684  10.842  1.00  0.00     0.177 HD
BRANCH  20  22
HETATM   22  C9  UNL     1      18.833  23.792  11.075  1.00  0.00     0.168 C 
BRANCH  22  23
HETATM   23  C10 UNL     1      18.214  24.216   9.746  1.00  0.00     0.291 C 
BRANCH  23  24
HETATM   24  N4  UNL     1      17.491  25.490   9.884  1.00  0.00     0.081 N 
HETATM   25  C11 UNL     1      18.217  26.550   9.202  1.00  0.00     0.309 C 
HETATM   26  C12 UNL     1      17.375  25.776  11.307  1.00  0.00     0.309 C 
ENDBRANCH  23  24
ENDBRANCH  22  23
ENDBRANCH  20  22
ENDBRANCH  12  20
ENDBRANCH   7  10
ENDBRANCH   1   4
BRANCH   1  27
HETATM   27  N6  UNL     1      19.827  31.806  15.274  1.00  0.00    -0.367 N 
HETATM   28  C17 UNL     1      19.503  33.105  14.823  1.00  0.00     0.130 C 
HETATM   29  C18 UNL     1      18.035  33.296  14.601  1.00  0.00     0.052 C 
HETATM   30  C19 UNL     1      17.412  32.951  15.973  1.00  0.00     0.127 C 
HETATM   31  C31 UNL     1      17.563  31.460  16.085  1.00  0.00     0.076 C 
HETATM   32  C32 UNL     1      18.840  30.883  15.598  1.00  0.00     0.066 C 
BRANCH  30  33
HETATM   33  O2  UNL     1      18.196  33.616  16.893  1.00  0.00    -0.383 OA
BRANCH  33  34
HETATM   34  C20 UNL     1      17.564  34.400  17.813  1.00  0.00     0.200 C 
BRANCH  34  35
HETATM   35  C21 UNL     1      16.115  34.607  17.669  1.00  0.00     0.151 C 
HETATM   36  O3  UNL     1      15.242  34.416  18.719  1.00  0.00    -0.383 OA
HETATM   37  C22 UNL     1      14.351  35.288  18.043  1.00  0.00     0.175 C 
HETATM   38  C23 UNL     1      15.639  36.017  17.598  1.00  0.00     0.045 C 
BRANCH  38  39
HETATM   39  C24 UNL     1      16.091  37.043  18.551  1.00  0.00     0.048 C 
BRANCH  39  40
HETATM   40  C25 UNL     1      16.380  38.398  18.065  1.00  0.00    -0.056 A 
HETATM   41  C26 UNL     1      15.461  39.443  18.284  1.00  0.00     0.009 A 
HETATM   42  C27 UNL     1      15.671  40.722  17.829  1.00  0.00     0.026 A 
HETATM   43  C28 UNL     1      16.808  41.038  17.129  1.00  0.00     0.055 A 
HETATM   44 CL2  UNL     1      17.116  42.662  16.529  1.00  0.00    -0.083 Cl
HETATM   45  C29 UNL     1      17.723  40.061  16.895  1.00  0.00     0.056 A 
HETATM   46 CL3  UNL     1      19.194  40.373  16.012  1.00  0.00    -0.083 Cl
HETATM   47  C30 UNL     1      17.495  38.777  17.361  1.00  0.00     0.032 A 
ENDBRANCH  39  40
ENDBRANCH  38  39
ENDBRANCH  34  35
ENDBRANCH  33  34
ENDBRANCH  30  33
ENDBRANCH   1  27
TORSDOF 13
ENDMDL
MODEL 3
REMARK VINA RESULT: -8.976275703      3.325      5.758
REMARK  13 active torsions:
REMARK  status: ('A' for Active; 'I' for Inactive)
REMARK    1  A    between atoms: C2_2  and  C3_3 
REMARK    2  A    between atoms: C3_3  and  C4_4 
REMARK    3  A    between atoms: C3_3  and  N6_27 
REMARK    4  A    between atoms: N1_7  and  C7_8 
REMARK    5  A    between atoms: C8_11  and  N3_12 
REMARK    6  A    between atoms: N3_12  and  C9_14 
REMARK    7  A    between atoms: C9_14  and  C10_15 
REMARK    8  A    between atoms: C10_15  and  N4_16 
REMARK    9  A    between atoms: C19_30  and  O2_31 
REMARK   10  A    between atoms: O2_31  and  C20_32 
REMARK   11  A    between atoms: C20_32  and  C21_33 
REMARK   12  A    between atoms: C23_36  and  C24_37 
REMARK   13  A    between atoms: C24_37  and  C25_38 
ROOT
HETATM    1  C3  UNL     1      19.600  29.258  13.267  1.00  0.00    -0.008 C 
ENDROOT
BRANCH   1   2
HETATM    2  C2  UNL     1      20.828  28.580  13.740  1.00  0.00     0.048 C 
HETATM    3  C1  UNL     1      22.138  29.233  13.460  1.00  0.00     0.011 C 
ENDBRANCH   1   2
BRANCH   1   4
HETATM    4  C4  UNL     1      18.774  30.068  14.173  1.00  0.00     0.034 C 
HETATM    5  C5  UNL     1      18.475  31.483  13.756  1.00  0.00     0.030 C 
HETATM    6  C6  UNL     1      18.812  32.542  14.750  1.00  0.00     0.125 C 
HETATM    7  N1  UNL     1      18.262  32.215  16.038  1.00  0.00    -0.365 N 
HETATM    8  C15 UNL     1      18.318  30.825  16.447  1.00  0.00     0.125 C 
HETATM    9  C16 UNL     1      19.389  30.178  15.582  1.00  0.00     0.030 C 
BRANCH   7  10
HETATM   10  C7  UNL     1      17.705  33.222  16.857  1.00  0.00     0.146 A 
HETATM   11  N2  UNL     1      18.522  34.027  17.601  1.00  0.00    -0.175 N 
HETATM   12  C8  UNL     1      18.020  34.979  18.395  1.00  0.00     0.682 A 
ATOM     13  H2  UNL     1      19.532  33.898  17.551  1.00  0.00     0.186 HD
HETATM   14  N5  UNL     1      16.673  35.184  18.491  1.00  0.00    -0.155 N 
HETATM   15  C13 UNL     1      15.834  34.426  17.784  1.00  0.00     0.285 A 
ATOM     16  H5  UNL     1      16.309  35.916  19.103  1.00  0.00     0.187 HD
HETATM   17  O1  UNL     1      14.584  34.579  17.840  1.00  0.00    -0.266 OA
HETATM   18  C14 UNL     1      16.362  33.428  16.954  1.00  0.00     0.146 A 
HETATM   19 CL1  UNL     1      15.278  32.421  16.022  1.00  0.00    -0.074 Cl
BRANCH  12  20
HETATM   20  N3  UNL     1      18.777  35.735  19.103  1.00  0.00    -0.224 N 
ATOM     21  H3  UNL     1      18.798  35.573  20.110  1.00  0.00     0.177 HD
BRANCH  20  22
HETATM   22  C9  UNL     1      19.585  36.779  18.588  1.00  0.00     0.168 C 
BRANCH  22  23
HETATM   23  C10 UNL     1      18.786  38.078  18.668  1.00  0.00     0.291 C 
BRANCH  23  24
HETATM   24  N4  UNL     1      18.279  38.466  17.342  1.00  0.00     0.081 N 
HETATM   25  C11 UNL     1      18.942  39.678  16.891  1.00  0.00     0.309 C 
HETATM   26  C12 UNL     1      16.844  38.678  17.466  1.00  0.00     0.309 C 
ENDBRANCH  23  24
ENDBRANCH  22  23
ENDBRANCH  20  22
ENDBRANCH  12  20
ENDBRANCH   7  10
ENDBRANCH   1   4
BRANCH   1  27
HETATM   27  N6  UNL     1      18.904  28.569  12.188  1.00  0.00    -0.367 N 
HETATM   28  C17 UNL     1      17.528  28.876  12.279  1.00  0.00     0.130 C 
HETATM   29  C18 UNL     1      16.917  29.210  10.954  1.00  0.00     0.052 C 
HETATM   30  C19 UNL     1      17.210  27.962  10.092  1.00  0.00     0.127 C 
HETATM   31  C31 UNL     1      18.689  28.032   9.828  1.00  0.00     0.076 C 
HETATM   32  C32 UNL     1      19.546  28.464  10.960  1.00  0.00     0.066 C 
BRANCH  30  33
HETATM   33  O2  UNL     1      16.884  26.892  10.898  1.00  0.00    -0.383 OA
BRANCH  33  34
HETATM   34  C20 UNL     1      17.225  25.645  10.464  1.00  0.00     0.200 C 
BRANCH  34  35
HETATM   35  C21 UNL     1      17.729  24.680  11.452  1.00  0.00     0.151 C 
HETATM   36  O3  UNL     1      17.596  23.319  11.278  1.00  0.00    -0.383 OA
HETATM   37  C22 UNL     1      18.698  23.171  12.159  1.00  0.00     0.175 C 
HETATM   38  C23 UNL     1      19.204  24.477  11.505  1.00  0.00     0.045 C 
BRANCH  38  39
HETATM   39  C24 UNL     1      20.006  24.254  10.293  1.00  0.00     0.048 C 
BRANCH  39  40
HETATM   40  C25 UNL     1      21.353  24.830  10.205  1.00  0.00    -0.056 A 
HETATM   41  C26 UNL     1      21.899  25.531  11.299  1.00  0.00     0.009 A 
HETATM   42  C27 UNL     1      23.144  26.111  11.260  1.00  0.00     0.026 A 
HETATM   43  C28 UNL     1      23.919  26.029  10.131  1.00  0.00     0.055 A 
HETATM   44 CL2  UNL     1      25.518  26.758  10.040  1.00  0.00    -0.083 Cl
HETATM   45  C29 UNL     1      23.433  25.364   9.052  1.00  0.00     0.056 A 
HETATM   46 CL3  UNL     1      24.349  25.213   7.575  1.00  0.00    -0.083 Cl
HETATM   47  C30 UNL     1      22.176  24.785   9.109  1.00  0.00     0.032 A 
ENDBRANCH  39  40
ENDBRANCH  38  39
ENDBRANCH  34  35
ENDBRANCH  33  34
ENDBRANCH  30  33
ENDBRANCH   1  27
TORSDOF 13
ENDMDL
MODEL 4
REMARK VINA RESULT: -8.922356805      3.163      5.491
REMARK  13 active torsions:
REMARK  status: ('A' for Active; 'I' for Inactive)
REMARK    1  A    between atoms: C2_2  and  C3_3 
REMARK    2  A    between atoms: C3_3  and  C4_4 
REMARK    3  A    between atoms: C3_3  and  N6_27 
REMARK    4  A    between atoms: N1_7  and  C7_8 
REMARK    5  A    between atoms: C8_11  and  N3_12 
REMARK    6  A    between atoms: N3_12  and  C9_14 
REMARK    7  A    between atoms: C9_14  and  C10_15 
REMARK    8  A    between atoms: C10_15  and  N4_16 
REMARK    9  A    between atoms: C19_30  and  O2_31 
REMARK   10  A    between atoms: O2_31  and  C20_32 
REMARK   11  A    between atoms: C20_32  and  C21_33 
REMARK   12  A    between atoms: C23_36  and  C24_37 
REMARK   13  A    between atoms: C24_37  and  C25_38 
ROOT
HETATM    1  C3  UNL     1      19.345  29.497  13.209  1.00  0.00    -0.008 C 
ENDROOT
BRANCH   1   2
HETATM    2  C2  UNL     1      20.535  28.703  13.588  1.00  0.00     0.048 C 
HETATM    3  C1  UNL     1      21.858  29.126  13.049  1.00  0.00     0.011 C 
ENDBRANCH   1   2
BRANCH   1   4
HETATM    4  C4  UNL     1      18.613  30.301  14.197  1.00  0.00     0.034 C 
HETATM    5  C5  UNL     1      18.287  31.723  13.829  1.00  0.00     0.030 C 
HETATM    6  C6  UNL     1      18.724  32.767  14.800  1.00  0.00     0.125 C 
HETATM    7  N1  UNL     1      18.292  32.427  16.129  1.00  0.00    -0.365 N 
HETATM    8  C15 UNL     1      18.374  31.030  16.514  1.00  0.00     0.125 C 
HETATM    9  C16 UNL     1      19.356  30.388  15.545  1.00  0.00     0.030 C 
BRANCH   7  10
HETATM   10  C7  UNL     1      17.821  33.426  17.008  1.00  0.00     0.146 A 
HETATM   11  N2  UNL     1      18.710  34.214  17.686  1.00  0.00    -0.175 N 
HETATM   12  C8  UNL     1      18.291  35.159  18.535  1.00  0.00     0.682 A 
ATOM     13  H2  UNL     1      19.710  34.078  17.542  1.00  0.00     0.186 HD
HETATM   14  N5  UNL     1      16.960  35.373  18.756  1.00  0.00    -0.155 N 
HETATM   15  C13 UNL     1      16.054  34.632  18.118  1.00  0.00     0.285 A 
ATOM     16  H5  UNL     1      16.661  36.099  19.408  1.00  0.00     0.187 HD
HETATM   17  O1  UNL     1      14.815  34.794  18.290  1.00  0.00    -0.266 OA
HETATM   18  C14 UNL     1      16.495  33.642  17.230  1.00  0.00     0.146 A 
HETATM   19 CL1  UNL     1      15.321  32.656  16.388  1.00  0.00    -0.074 Cl
BRANCH  12  20
HETATM   20  N3  UNL     1      19.116  35.899  19.181  1.00  0.00    -0.224 N 
ATOM     21  H3  UNL     1      19.533  35.514  20.029  1.00  0.00     0.177 HD
BRANCH  20  22
HETATM   22  C9  UNL     1      19.491  37.212  18.803  1.00  0.00     0.168 C 
BRANCH  22  23
HETATM   23  C10 UNL     1      20.415  37.109  17.592  1.00  0.00     0.291 C 
BRANCH  23  24
HETATM   24  N4  UNL     1      21.713  36.528  17.968  1.00  0.00     0.081 N 
HETATM   25  C11 UNL     1      22.757  37.534  17.865  1.00  0.00     0.309 C 
HETATM   26  C12 UNL     1      21.975  35.417  17.064  1.00  0.00     0.309 C 
ENDBRANCH  23  24
ENDBRANCH  22  23
ENDBRANCH  20  22
ENDBRANCH  12  20
ENDBRANCH   7  10
ENDBRANCH   1   4
BRANCH   1  27
HETATM   27  N6  UNL     1      18.564  28.935  12.116  1.00  0.00    -0.367 N 
HETATM   28  C17 UNL     1      18.711  27.530  12.140  1.00  0.00     0.130 C 
HETATM   29  C18 UNL     1      17.415  26.805  11.955  1.00  0.00     0.052 C 
HETATM   30  C19 UNL     1      16.887  27.341  10.605  1.00  0.00     0.127 C 
HETATM   31  C31 UNL     1      16.464  28.752  10.906  1.00  0.00     0.076 C 
HETATM   32  C32 UNL     1      17.347  29.532  11.808  1.00  0.00     0.066 C 
BRANCH  30  33
HETATM   33  O2  UNL     1      17.976  27.302   9.761  1.00  0.00    -0.383 OA
BRANCH  33  34
HETATM   34  C20 UNL     1      17.832  26.648   8.572  1.00  0.00     0.200 C 
BRANCH  34  35
HETATM   35  C21 UNL     1      17.412  25.239   8.602  1.00  0.00     0.151 C 
HETATM   36  O3  UNL     1      17.234  24.505   7.450  1.00  0.00    -0.383 OA
HETATM   37  C22 UNL     1      17.444  23.346   8.241  1.00  0.00     0.175 C 
HETATM   38  C23 UNL     1      18.436  24.240   9.019  1.00  0.00     0.045 C 
BRANCH  38  39
HETATM   39  C24 UNL     1      19.795  24.233   8.458  1.00  0.00     0.048 C 
BRANCH  39  40
HETATM   40  C25 UNL     1      20.906  24.762   9.259  1.00  0.00    -0.056 A 
HETATM   41  C26 UNL     1      20.770  24.911  10.654  1.00  0.00     0.009 A 
HETATM   42  C27 UNL     1      21.769  25.424  11.445  1.00  0.00     0.026 A 
HETATM   43  C28 UNL     1      22.963  25.819  10.897  1.00  0.00     0.055 A 
HETATM   44 CL2  UNL     1      24.267  26.481  11.874  1.00  0.00    -0.083 Cl
HETATM   45  C29 UNL     1      23.139  25.694   9.555  1.00  0.00     0.056 A 
HETATM   46 CL3  UNL     1      24.622  26.173   8.775  1.00  0.00    -0.083 Cl
HETATM   47  C30 UNL     1      22.121  25.174   8.773  1.00  0.00     0.032 A 
ENDBRANCH  39  40
ENDBRANCH  38  39
ENDBRANCH  34  35
ENDBRANCH  33  34
ENDBRANCH  30  33
ENDBRANCH   1  27
TORSDOF 13
ENDMDL
MODEL 5
REMARK VINA RESULT: -8.907761828      2.871      5.529
REMARK  13 active torsions:
REMARK  status: ('A' for Active; 'I' for Inactive)
REMARK    1  A    between atoms: C2_2  and  C3_3 
REMARK    2  A    between atoms: C3_3  and  C4_4 
REMARK    3  A    between atoms: C3_3  and  N6_27 
REMARK    4  A    between atoms: N1_7  and  C7_8 
REMARK    5  A    between atoms: C8_11  and  N3_12 
REMARK    6  A    between atoms: N3_12  and  C9_14 
REMARK    7  A    between atoms: C9_14  and  C10_15 
REMARK    8  A    between atoms: C10_15  and  N4_16 
REMARK    9  A    between atoms: C19_30  and  O2_31 
REMARK   10  A    between atoms: O2_31  and  C20_32 
REMARK   11  A    between atoms: C20_32  and  C21_33 
REMARK   12  A    between atoms: C23_36  and  C24_37 
REMARK   13  A    between atoms: C24_37  and  C25_38 
ROOT
HETATM    1  C3  UNL     1      17.543  28.494  12.052  1.00  0.00    -0.008 C 
ENDROOT
BRANCH   1   2
HETATM    2  C2  UNL     1      16.500  28.991  11.127  1.00  0.00     0.048 C 
HETATM    3  C1  UNL     1      15.355  28.088  10.815  1.00  0.00     0.011 C 
ENDBRANCH   1   2
BRANCH   1   4
HETATM    4  C4  UNL     1      17.932  29.255  13.247  1.00  0.00     0.034 C 
HETATM    5  C5  UNL     1      17.537  30.706  13.304  1.00  0.00     0.030 C 
HETATM    6  C6  UNL     1      18.640  31.674  13.565  1.00  0.00     0.125 C 
HETATM    7  N1  UNL     1      19.407  31.264  14.712  1.00  0.00    -0.365 N 
HETATM    8  C15 UNL     1      19.667  29.844  14.859  1.00  0.00     0.125 C 
HETATM    9  C16 UNL     1      19.456  29.236  13.480  1.00  0.00     0.030 C 
BRANCH   7  10
HETATM   10  C7  UNL     1      19.882  32.219  15.636  1.00  0.00     0.146 A 
HETATM   11  N2  UNL     1      19.023  32.787  16.535  1.00  0.00    -0.175 N 
HETATM   12  C8  UNL     1      19.444  33.704  17.413  1.00  0.00     0.682 A 
ATOM     13  H2  UNL     1      18.042  32.506  16.536  1.00  0.00     0.186 HD
HETATM   14  N5  UNL     1      20.748  34.107  17.445  1.00  0.00    -0.155 N 
HETATM   15  C13 UNL     1      21.627  33.582  16.590  1.00  0.00     0.285 A 
ATOM     16  H5  UNL     1      21.050  34.808  18.123  1.00  0.00     0.187 HD
HETATM   17  O1  UNL     1      22.840  33.923  16.583  1.00  0.00    -0.266 OA
HETATM   18  C14 UNL     1      21.183  32.622  15.670  1.00  0.00     0.146 A 
HETATM   19 CL1  UNL     1      22.318  31.926  14.537  1.00  0.00    -0.074 Cl
BRANCH  12  20
HETATM   20  N3  UNL     1      18.644  34.247  18.256  1.00  0.00    -0.224 N 
ATOM     21  H3  UNL     1      18.747  33.991  19.238  1.00  0.00     0.177 HD
BRANCH  20  22
HETATM   22  C9  UNL     1      17.629  35.178  17.922  1.00  0.00     0.168 C 
BRANCH  22  23
HETATM   23  C10 UNL     1      16.289  34.446  17.953  1.00  0.00     0.291 C 
BRANCH  23  24
HETATM   24  N4  UNL     1      15.635  34.491  16.637  1.00  0.00     0.081 N 
HETATM   25  C11 UNL     1      15.633  33.167  16.037  1.00  0.00     0.309 C 
HETATM   26  C12 UNL     1      16.377  35.431  15.810  1.00  0.00     0.309 C 
ENDBRANCH  23  24
ENDBRANCH  22  23
ENDBRANCH  20  22
ENDBRANCH  12  20
ENDBRANCH   7  10
ENDBRANCH   1   4
BRANCH   1  27
HETATM   27  N6  UNL     1      18.582  27.692  11.420  1.00  0.00    -0.367 N 
HETATM   28  C17 UNL     1      18.375  26.339  11.772  1.00  0.00     0.130 C 
HETATM   29  C18 UNL     1      18.511  25.408  10.607  1.00  0.00     0.052 C 
HETATM   30  C19 UNL     1      19.934  25.692  10.077  1.00  0.00     0.127 C 
HETATM   31  C31 UNL     1      19.827  27.047   9.436  1.00  0.00     0.076 C 
HETATM   32  C32 UNL     1      19.002  28.055  10.146  1.00  0.00     0.066 C 
BRANCH  30  33
HETATM   33  O2  UNL     1      20.730  25.719  11.203  1.00  0.00    -0.383 OA
BRANCH  33  34
HETATM   34  C20 UNL     1      21.989  25.204  11.099  1.00  0.00     0.200 C 
BRANCH  34  35
HETATM   35  C21 UNL     1      23.128  26.128  11.212  1.00  0.00     0.151 C 
HETATM   36  O3  UNL     1      24.311  25.759  11.815  1.00  0.00    -0.383 OA
HETATM   37  C22 UNL     1      24.934  26.783  11.056  1.00  0.00     0.175 C 
HETATM   38  C23 UNL     1      23.904  26.397   9.970  1.00  0.00     0.045 C 
BRANCH  38  39
HETATM   39  C24 UNL     1      24.363  25.314   9.086  1.00  0.00     0.048 C 
BRANCH  39  40
HETATM   40  C25 UNL     1      23.749  25.158   7.762  1.00  0.00    -0.056 A 
HETATM   41  C26 UNL     1      24.504  24.657   6.682  1.00  0.00     0.009 A 
HETATM   42  C27 UNL     1      23.985  24.515   5.418  1.00  0.00     0.026 A 
HETATM   43  C28 UNL     1      22.685  24.864   5.152  1.00  0.00     0.055 A 
HETATM   44 CL2  UNL     1      21.982  24.699   3.548  1.00  0.00    -0.083 Cl
HETATM   45  C29 UNL     1      21.920  25.352   6.163  1.00  0.00     0.056 A 
HETATM   46 CL3  UNL     1      20.259  25.822   5.913  1.00  0.00    -0.083 Cl
HETATM   47  C30 UNL     1      22.459  25.488   7.431  1.00  0.00     0.032 A 
ENDBRANCH  39  40
ENDBRANCH  38  39
ENDBRANCH  34  35
ENDBRANCH  33  34
ENDBRANCH  30  33
ENDBRANCH   1  27
TORSDOF 13
ENDMDL
