MODEL 1
REMARK VINA RESULT: -6.726122297      0.000      0.000
REMARK  4 active torsions:
REMARK  status: ('A' for Active; 'I' for Inactive)
REMARK       I    between atoms: N1_2  and  C2_4 
REMARK       I    between atoms: C2_4  and  N4_13 
REMARK    1  A    between atoms: N2_5  and  C3_7 
REMARK    2  A    between atoms: C3_7  and  N3_9 
REMARK    3  A    between atoms: C5_14  and  C6_15 
REMARK    4  A    between atoms: C10_22  and  C11_23 
ROOT
HETATM    1  C1  UNL     1      46.337  50.117  10.591  1.00  0.00     0.136 C 
HETATM    2  N1  UNL     1      46.265  48.893  10.874  1.00  0.00    -0.212 N 
ATOM      3  H1  UNL     1      45.820  48.695  11.771  1.00  0.00     0.182 HD
HETATM    4  C2  UNL     1      46.682  47.763  10.183  1.00  0.00     0.679 C 
HETATM    5  N2  UNL     1      46.048  47.403   9.092  1.00  0.00    -0.197 N 
ATOM      6  H2  UNL     1      46.348  46.574   8.578  1.00  0.00     0.180 HD
HETATM    7  N4  UNL     1      47.757  46.919  10.537  1.00  0.00    -0.182 N 
HETATM    8  C5  UNL     1      47.663  45.734  11.327  1.00  0.00     0.208 A 
HETATM    9  N5  UNL     1      49.029  45.183  11.381  1.00  0.00    -0.337 N 
ATOM     10  H5  UNL     1      49.297  44.333  11.878  1.00  0.00     0.164 HD
HETATM   11  C9  UNL     1      49.903  45.992  10.654  1.00  0.00     0.243 A 
HETATM   12  O1  UNL     1      51.118  45.812  10.478  1.00  0.00    -0.271 OA
HETATM   13  C10 UNL     1      49.117  47.118  10.123  1.00  0.00     0.199 A 
ENDROOT
BRANCH   8  14
HETATM   14  C6  UNL     1      47.215  45.861  12.731  1.00  0.00     0.021 C 
HETATM   15  C7  UNL     1      47.527  47.120  13.448  1.00  0.00     0.013 C 
HETATM   16  C8  UNL     1      45.682  45.703  12.693  1.00  0.00     0.013 C 
ENDBRANCH   8  14
BRANCH  13  17
HETATM   17  C11 UNL     1      49.732  48.422  10.509  1.00  0.00     0.010 C 
HETATM   18  C12 UNL     1      50.314  48.428  11.902  1.00  0.00     0.012 C 
HETATM   19  C13 UNL     1      50.901  48.766   9.585  1.00  0.00     0.012 C 
ENDBRANCH  13  17
BRANCH   5  20
HETATM   20  C3  UNL     1      44.933  48.175   8.621  1.00  0.00     0.293 C 
HETATM   21  C4  UNL     1      45.297  48.697   7.218  1.00  0.00     0.063 C 
BRANCH  20  22
HETATM   22  N3  UNL     1      43.746  47.356   8.495  1.00  0.00    -0.058 N 
ATOM     23  H33 UNL     1      43.822  46.499   9.043  1.00  0.00     0.276 HD
ATOM     24  H32 UNL     1      42.948  47.777   8.973  1.00  0.00     0.276 HD
ATOM     25  H31 UNL     1      43.535  47.159   7.517  1.00  0.00     0.276 HD
ENDBRANCH  20  22
ENDBRANCH   5  20
TORSDOF 4
ENDMDL
MODEL 2
REMARK VINA RESULT: -6.674864039      2.599      3.517
REMARK  4 active torsions:
REMARK  status: ('A' for Active; 'I' for Inactive)
REMARK       I    between atoms: N1_2  and  C2_4 
REMARK       I    between atoms: C2_4  and  N4_13 
REMARK    1  A    between atoms: N2_5  and  C3_7 
REMARK    2  A    between atoms: C3_7  and  N3_9 
REMARK    3  A    between atoms: C5_14  and  C6_15 
REMARK    4  A    between atoms: C10_22  and  C11_23 
ROOT
HETATM    1  C1  UNL     1      47.707  47.818   8.037  1.00  0.00     0.136 C 
HETATM    2  N1  UNL     1      47.153  47.849   9.166  1.00  0.00    -0.212 N 
ATOM      3  H1  UNL     1      47.647  48.407   9.862  1.00  0.00     0.182 HD
HETATM    4  C2  UNL     1      45.986  47.259   9.634  1.00  0.00     0.679 C 
HETATM    5  N2  UNL     1      44.825  47.697   9.209  1.00  0.00    -0.197 N 
ATOM      6  H2  UNL     1      43.963  47.269   9.548  1.00  0.00     0.180 HD
HETATM    7  N4  UNL     1      45.904  46.194  10.557  1.00  0.00    -0.182 N 
HETATM    8  C5  UNL     1      45.759  46.323  11.971  1.00  0.00     0.208 A 
HETATM    9  N5  UNL     1      45.674  44.947  12.490  1.00  0.00    -0.337 N 
ATOM     10  H5  UNL     1      45.569  44.699  13.474  1.00  0.00     0.164 HD
HETATM   11  C9  UNL     1      45.757  44.031  11.440  1.00  0.00     0.243 A 
HETATM   12  O1  UNL     1      45.701  42.794  11.520  1.00  0.00    -0.271 OA
HETATM   13  C10 UNL     1      45.924  44.804  10.198  1.00  0.00     0.199 A 
ENDROOT
BRANCH   8  14
HETATM   14  C6  UNL     1      46.844  46.983  12.730  1.00  0.00     0.021 C 
HETATM   15  C7  UNL     1      46.854  48.464  12.778  1.00  0.00     0.013 C 
HETATM   16  C8  UNL     1      46.718  46.460  14.174  1.00  0.00     0.013 C 
ENDBRANCH   8  14
BRANCH  13  17
HETATM   17  C11 UNL     1      47.128  44.342   9.446  1.00  0.00     0.010 C 
HETATM   18  C12 UNL     1      48.401  44.384  10.256  1.00  0.00     0.012 C 
HETATM   19  C13 UNL     1      46.973  42.882   9.017  1.00  0.00     0.012 C 
ENDBRANCH  13  17
BRANCH   5  20
HETATM   20  C3  UNL     1      44.767  48.780   8.268  1.00  0.00     0.293 C 
HETATM   21  C4  UNL     1      43.712  48.409   7.208  1.00  0.00     0.063 C 
BRANCH  20  22
HETATM   22  N3  UNL     1      44.341  50.007   8.906  1.00  0.00    -0.058 N 
ATOM     23  H33 UNL     1      43.359  50.208   8.717  1.00  0.00     0.276 HD
ATOM     24  H32 UNL     1      44.287  49.903   9.920  1.00  0.00     0.276 HD
ATOM     25  H31 UNL     1      44.941  50.788   8.642  1.00  0.00     0.276 HD
ENDBRANCH  20  22
ENDBRANCH   5  20
TORSDOF 4
ENDMDL
MODEL 3
REMARK VINA RESULT: -6.634715298      3.608      6.344
REMARK  4 active torsions:
REMARK  status: ('A' for Active; 'I' for Inactive)
REMARK       I    between atoms: N1_2  and  C2_4 
REMARK       I    between atoms: C2_4  and  N4_13 
REMARK    1  A    between atoms: N2_5  and  C3_7 
REMARK    2  A    between atoms: C3_7  and  N3_9 
REMARK    3  A    between atoms: C5_14  and  C6_15 
REMARK    4  A    between atoms: C10_22  and  C11_23 
ROOT
HETATM    1  C1  UNL     1      50.315  49.217  12.061  1.00  0.00     0.136 C 
HETATM    2  N1  UNL     1      50.690  49.383  10.871  1.00  0.00    -0.212 N 
ATOM      3  H1  UNL     1      51.581  49.870  10.775  1.00  0.00     0.182 HD
HETATM    4  C2  UNL     1      50.106  49.021   9.664  1.00  0.00     0.679 C 
HETATM    5  N2  UNL     1      50.059  47.755   9.323  1.00  0.00    -0.197 N 
ATOM      6  H2  UNL     1      49.632  47.480   8.439  1.00  0.00     0.180 HD
HETATM    7  N4  UNL     1      49.532  49.900   8.719  1.00  0.00    -0.182 N 
HETATM    8  C5  UNL     1      50.202  50.473   7.598  1.00  0.00     0.208 A 
HETATM    9  N5  UNL     1      49.185  51.274   6.893  1.00  0.00    -0.337 N 
ATOM     10  H5  UNL     1      49.353  51.816   6.045  1.00  0.00     0.164 HD
HETATM   11  C9  UNL     1      47.960  51.182   7.553  1.00  0.00     0.243 A 
HETATM   12  O1  UNL     1      46.889  51.715   7.221  1.00  0.00    -0.271 OA
HETATM   13  C10 UNL     1      48.161  50.326   8.734  1.00  0.00     0.199 A 
ENDROOT
BRANCH   8  14
HETATM   14  C6  UNL     1      51.340  51.385   7.852  1.00  0.00     0.021 C 
HETATM   15  C7  UNL     1      52.479  51.351   6.905  1.00  0.00     0.013 C 
HETATM   16  C8  UNL     1      50.745  52.807   7.831  1.00  0.00     0.013 C 
ENDBRANCH   8  14
BRANCH  13  17
HETATM   17  C11 UNL     1      47.707  51.021   9.974  1.00  0.00     0.010 C 
HETATM   18  C12 UNL     1      47.750  52.526   9.876  1.00  0.00     0.012 C 
HETATM   19  C13 UNL     1      46.249  50.680  10.284  1.00  0.00     0.012 C 
ENDBRANCH  13  17
BRANCH   5  20
HETATM   20  C3  UNL     1      50.609  46.756  10.196  1.00  0.00     0.293 C 
HETATM   21  C4  UNL     1      49.636  45.562  10.196  1.00  0.00     0.063 C 
BRANCH  20  22
HETATM   22  N3  UNL     1      51.889  46.285   9.710  1.00  0.00    -0.058 N 
ATOM     23  H33 UNL     1      52.483  45.960  10.474  1.00  0.00     0.276 HD
ATOM     24  H32 UNL     1      51.797  45.406   9.200  1.00  0.00     0.276 HD
ATOM     25  H31 UNL     1      52.356  46.997   9.149  1.00  0.00     0.276 HD
ENDBRANCH  20  22
ENDBRANCH   5  20
TORSDOF 4
ENDMDL
MODEL 4
REMARK VINA RESULT: -6.589711790      2.207      3.137
REMARK  4 active torsions:
REMARK  status: ('A' for Active; 'I' for Inactive)
REMARK       I    between atoms: N1_2  and  C2_4 
REMARK       I    between atoms: C2_4  and  N4_13 
REMARK    1  A    between atoms: N2_5  and  C3_7 
REMARK    2  A    between atoms: C3_7  and  N3_9 
REMARK    3  A    between atoms: C5_14  and  C6_15 
REMARK    4  A    between atoms: C10_22  and  C11_23 
ROOT
HETATM    1  C1  UNL     1      45.007  46.876   9.054  1.00  0.00     0.136 C 
HETATM    2  N1  UNL     1      45.747  46.705  10.058  1.00  0.00    -0.212 N 
ATOM      3  H1  UNL     1      45.408  47.151  10.910  1.00  0.00     0.182 HD
HETATM    4  C2  UNL     1      46.944  46.018  10.212  1.00  0.00     0.679 C 
HETATM    5  N2  UNL     1      46.946  44.707  10.165  1.00  0.00    -0.197 N 
ATOM      6  H2  UNL     1      47.821  44.194  10.277  1.00  0.00     0.180 HD
HETATM    7  N4  UNL     1      48.215  46.595  10.424  1.00  0.00    -0.182 N 
HETATM    8  C5  UNL     1      48.821  46.837  11.693  1.00  0.00     0.208 A 
HETATM    9  N5  UNL     1      50.149  47.403  11.399  1.00  0.00    -0.337 N 
ATOM     10  H5  UNL     1      50.832  47.689  12.101  1.00  0.00     0.164 HD
HETATM   11  C9  UNL     1      50.338  47.493  10.020  1.00  0.00     0.243 A 
HETATM   12  O1  UNL     1      51.347  47.906   9.428  1.00  0.00    -0.271 OA
HETATM   13  C10 UNL     1      49.109  47.001   9.377  1.00  0.00     0.199 A 
ENDROOT
BRANCH   8  14
HETATM   14  C6  UNL     1      48.162  47.790  12.615  1.00  0.00     0.021 C 
HETATM   15  C7  UNL     1      47.240  47.240  13.636  1.00  0.00     0.013 C 
HETATM   16  C8  UNL     1      49.307  48.516  13.348  1.00  0.00     0.013 C 
ENDBRANCH   8  14
BRANCH  13  17
HETATM   17  C11 UNL     1      48.573  48.011   8.417  1.00  0.00     0.010 C 
HETATM   18  C12 UNL     1      48.550  49.417   8.968  1.00  0.00     0.012 C 
HETATM   19  C13 UNL     1      49.446  48.086   7.163  1.00  0.00     0.012 C 
ENDBRANCH  13  17
BRANCH   5  20
HETATM   20  C3  UNL     1      45.718  43.994   9.956  1.00  0.00     0.293 C 
HETATM   21  C4  UNL     1      46.017  42.842   8.977  1.00  0.00     0.063 C 
BRANCH  20  22
HETATM   22  N3  UNL     1      45.233  43.412  11.190  1.00  0.00    -0.058 N 
ATOM     23  H33 UNL     1      45.208  42.393  11.139  1.00  0.00     0.276 HD
ATOM     24  H32 UNL     1      45.912  43.514  11.945  1.00  0.00     0.276 HD
ATOM     25  H31 UNL     1      44.325  43.797  11.448  1.00  0.00     0.276 HD
ENDBRANCH  20  22
ENDBRANCH   5  20
TORSDOF 4
ENDMDL
MODEL 5
REMARK VINA RESULT: -6.537785351      2.501      4.794
REMARK  4 active torsions:
REMARK  status: ('A' for Active; 'I' for Inactive)
REMARK       I    between atoms: N1_2  and  C2_4 
REMARK       I    between atoms: C2_4  and  N4_13 
REMARK    1  A    between atoms: N2_5  and  C3_7 
REMARK    2  A    between atoms: C3_7  and  N3_9 
REMARK    3  A    between atoms: C5_14  and  C6_15 
REMARK    4  A    between atoms: C10_22  and  C11_23 
ROOT
HETATM    1  C1  UNL     1      47.618  44.116  12.299  1.00  0.00     0.136 C 
HETATM    2  N1  UNL     1      48.286  44.705  11.409  1.00  0.00    -0.212 N 
ATOM      3  H1  UNL     1      49.291  44.724  11.583  1.00  0.00     0.182 HD
HETATM    4  C2  UNL     1      47.899  45.333  10.233  1.00  0.00     0.679 C 
HETATM    5  N2  UNL     1      47.464  44.610   9.228  1.00  0.00    -0.197 N 
ATOM      6  H2  UNL     1      47.177  45.063   8.360  1.00  0.00     0.180 HD
HETATM    7  N4  UNL     1      47.922  46.722   9.983  1.00  0.00    -0.182 N 
HETATM    8  C5  UNL     1      48.992  47.443   9.375  1.00  0.00     0.208 A 
HETATM    9  N5  UNL     1      48.533  48.841   9.290  1.00  0.00    -0.337 N 
ATOM     10  H5  UNL     1      49.077  49.613   8.903  1.00  0.00     0.164 HD
HETATM   11  C9  UNL     1      47.246  48.956   9.816  1.00  0.00     0.243 A 
HETATM   12  O1  UNL     1      46.555  49.985   9.884  1.00  0.00    -0.271 OA
HETATM   13  C10 UNL     1      46.843  47.620  10.283  1.00  0.00     0.199 A 
ENDROOT
BRANCH   8  14
HETATM   14  C6  UNL     1      50.298  47.481  10.071  1.00  0.00     0.021 C 
HETATM   15  C7  UNL     1      51.207  46.323   9.901  1.00  0.00     0.013 C 
HETATM   16  C8  UNL     1      51.018  48.734   9.535  1.00  0.00     0.013 C 
ENDBRANCH   8  14
BRANCH  13  17
HETATM   17  C11 UNL     1      46.411  47.667  11.711  1.00  0.00     0.010 C 
HETATM   18  C12 UNL     1      47.327  48.477  12.595  1.00  0.00     0.012 C 
HETATM   19  C13 UNL     1      45.038  48.329  11.841  1.00  0.00     0.012 C 
ENDBRANCH  13  17
BRANCH   5  20
HETATM   20  C3  UNL     1      47.392  43.181   9.350  1.00  0.00     0.293 C 
HETATM   21  C4  UNL     1      45.930  42.772   9.085  1.00  0.00     0.063 C 
BRANCH  20  22
HETATM   22  N3  UNL     1      48.222  42.528   8.359  1.00  0.00    -0.058 N 
ATOM     23  H33 UNL     1      47.679  42.249   7.541  1.00  0.00     0.276 HD
ATOM     24  H32 UNL     1      48.856  43.187   7.908  1.00  0.00     0.276 HD
ATOM     25  H31 UNL     1      48.725  41.738   8.762  1.00  0.00     0.276 HD
ENDBRANCH  20  22
ENDBRANCH   5  20
TORSDOF 4
ENDMDL
