MODEL 1
REMARK VINA RESULT: -6.052789603      0.000      0.000
REMARK  5 active torsions:
REMARK  status: ('A' for Active; 'I' for Inactive)
REMARK    1  A    between atoms: N1_1  and  C1_4 
REMARK    2  A    between atoms: C3_6  and  N2_7 
REMARK    3  A    between atoms: C8_14  and  N4_15 
REMARK    4  A    between atoms: N4_15  and  C9_17 
REMARK    5  A    between atoms: C9_17  and  C10_18 
ROOT
HETATM    1  C1  UNL     1      12.091   7.508   9.360  1.00  0.00     0.118 A 
HETATM    2  C2  UNL     1      12.350   8.670   8.672  1.00  0.00     0.097 A 
HETATM    3  C3  UNL     1      11.382   9.618   8.444  1.00  0.00     0.122 A 
HETATM    4  N3  UNL     1      10.157   9.340   8.939  1.00  0.00    -0.177 N 
ATOM      5  H3  UNL     1       9.404  10.013   8.797  1.00  0.00     0.185 HD
HETATM    6  C8  UNL     1       9.895   8.207   9.612  1.00  0.00     0.681 A 
HETATM    7  N5  UNL     1      10.853   7.298   9.823  1.00  0.00    -0.177 N 
ATOM      8  H5  UNL     1      10.640   6.444  10.337  1.00  0.00     0.185 HD
ENDROOT
BRANCH   6   9
HETATM    9  N4  UNL     1       8.672   8.044  10.046  1.00  0.00    -0.226 N 
ATOM     10  H4  UNL     1       7.923   7.745   9.422  1.00  0.00     0.177 HD
BRANCH   9  11
HETATM   11  C9  UNL     1       8.424   8.304  11.448  1.00  0.00     0.142 C 
BRANCH  11  12
HETATM   12  C10 UNL     1       6.903   8.343  11.661  1.00  0.00     0.004 C 
HETATM   13  C11 UNL     1       6.583   8.021  13.059  1.00  0.00     0.006 C 
HETATM   14  C12 UNL     1       5.397   7.196  13.337  1.00  0.00     0.000 C 
HETATM   15  C13 UNL     1       4.573   6.819  12.141  1.00  0.00     0.000 C 
HETATM   16  C14 UNL     1       5.565   6.290  11.101  1.00  0.00     0.000 C 
HETATM   17  C15 UNL     1       6.292   7.508  10.607  1.00  0.00     0.006 C 
ENDBRANCH  11  12
ENDBRANCH   9  11
ENDBRANCH   6   9
BRANCH   3  18
HETATM   18  N2  UNL     1      11.646  10.832   7.726  1.00  0.00    -0.367 N 
HETATM   19  C4  UNL     1      10.815  12.000   7.681  1.00  0.00     0.124 C 
HETATM   20  C5  UNL     1      11.387  12.860   6.604  1.00  0.00     0.021 C 
HETATM   21  C6  UNL     1      12.442  12.069   5.892  1.00  0.00     0.021 C 
HETATM   22  C7  UNL     1      12.835  11.042   6.922  1.00  0.00     0.124 C 
ENDBRANCH   3  18
BRANCH   1  23
HETATM   23  N1  UNL     1      13.043   6.625   9.557  1.00  0.00    -0.385 N 
ATOM     24  H12 UNL     1      13.870   6.605   8.961  1.00  0.00     0.157 HD
ATOM     25  H11 UNL     1      12.968   5.944  10.312  1.00  0.00     0.157 HD
ENDBRANCH   1  23
TORSDOF 5
ENDMDL
MODEL 2
REMARK VINA RESULT: -5.766838709      5.830      8.083
REMARK  5 active torsions:
REMARK  status: ('A' for Active; 'I' for Inactive)
REMARK    1  A    between atoms: N1_1  and  C1_4 
REMARK    2  A    between atoms: C3_6  and  N2_7 
REMARK    3  A    between atoms: C8_14  and  N4_15 
REMARK    4  A    between atoms: N4_15  and  C9_17 
REMARK    5  A    between atoms: C9_17  and  C10_18 
ROOT
HETATM    1  C1  UNL     1       6.923   8.361  13.299  1.00  0.00     0.118 A 
HETATM    2  C2  UNL     1       7.847   7.711  14.084  1.00  0.00     0.097 A 
HETATM    3  C3  UNL     1       7.669   6.416  14.506  1.00  0.00     0.122 A 
HETATM    4  N3  UNL     1       6.529   5.817  14.102  1.00  0.00    -0.177 N 
ATOM      5  H3  UNL     1       6.350   4.854  14.388  1.00  0.00     0.185 HD
HETATM    6  C8  UNL     1       5.621   6.443  13.335  1.00  0.00     0.681 A 
HETATM    7  N5  UNL     1       5.816   7.705  12.935  1.00  0.00    -0.177 N 
ATOM      8  H5  UNL     1       5.119   8.167  12.352  1.00  0.00     0.185 HD
ENDROOT
BRANCH   6   9
HETATM    9  N4  UNL     1       4.554   5.764  13.004  1.00  0.00    -0.226 N 
ATOM     10  H4  UNL     1       4.623   4.847  12.563  1.00  0.00     0.177 HD
BRANCH   9  11
HETATM   11  C9  UNL     1       3.268   6.366  13.289  1.00  0.00     0.142 C 
BRANCH  11  12
HETATM   12  C10 UNL     1       2.576   5.517  14.366  1.00  0.00     0.004 C 
HETATM   13  C11 UNL     1       1.153   5.349  14.035  1.00  0.00     0.006 C 
HETATM   14  C12 UNL     1       0.169   5.381  15.127  1.00  0.00     0.000 C 
HETATM   15  C13 UNL     1       0.736   5.512  16.510  1.00  0.00     0.000 C 
HETATM   16  C14 UNL     1       1.741   6.666  16.440  1.00  0.00     0.000 C 
HETATM   17  C15 UNL     1       2.909   6.113  15.676  1.00  0.00     0.006 C 
ENDBRANCH  11  12
ENDBRANCH   9  11
ENDBRANCH   6   9
BRANCH   3  18
HETATM   18  N2  UNL     1       8.629   5.734  15.326  1.00  0.00    -0.367 N 
HETATM   19  C4  UNL     1      10.052   5.718  15.148  1.00  0.00     0.124 C 
HETATM   20  C5  UNL     1      10.563   4.668  16.076  1.00  0.00     0.021 C 
HETATM   21  C6  UNL     1       9.383   3.939  16.642  1.00  0.00     0.021 C 
HETATM   22  C7  UNL     1       8.269   4.941  16.485  1.00  0.00     0.124 C 
ENDBRANCH   3  18
BRANCH   1  23
HETATM   23  N1  UNL     1       7.130   9.600  12.916  1.00  0.00    -0.385 N 
ATOM     24  H12 UNL     1       8.003  10.078  13.136  1.00  0.00     0.157 HD
ATOM     25  H11 UNL     1       6.416  10.104  12.392  1.00  0.00     0.157 HD
ENDBRANCH   1  23
TORSDOF 5
ENDMDL
MODEL 3
REMARK VINA RESULT: -5.663974677      5.550      7.852
REMARK  5 active torsions:
REMARK  status: ('A' for Active; 'I' for Inactive)
REMARK    1  A    between atoms: N1_1  and  C1_4 
REMARK    2  A    between atoms: C3_6  and  N2_7 
REMARK    3  A    between atoms: C8_14  and  N4_15 
REMARK    4  A    between atoms: N4_15  and  C9_17 
REMARK    5  A    between atoms: C9_17  and  C10_18 
ROOT
HETATM    1  C1  UNL     1       5.976   7.414  11.559  1.00  0.00     0.118 A 
HETATM    2  C2  UNL     1       6.957   7.289  12.516  1.00  0.00     0.097 A 
HETATM    3  C3  UNL     1       6.768   6.571  13.671  1.00  0.00     0.122 A 
HETATM    4  N3  UNL     1       5.556   5.992  13.812  1.00  0.00    -0.177 N 
ATOM      5  H3  UNL     1       5.366   5.446  14.653  1.00  0.00     0.185 HD
HETATM    6  C8  UNL     1       4.593   6.108  12.883  1.00  0.00     0.681 A 
HETATM    7  N5  UNL     1       4.799   6.812  11.765  1.00  0.00    -0.177 N 
ATOM      8  H5  UNL     1       4.059   6.891  11.069  1.00  0.00     0.185 HD
ENDROOT
BRANCH   6   9
HETATM    9  N4  UNL     1       3.458   5.504  13.126  1.00  0.00    -0.226 N 
ATOM     10  H4  UNL     1       2.688   5.532  12.458  1.00  0.00     0.177 HD
BRANCH   9  11
HETATM   11  C9  UNL     1       3.340   4.793  14.382  1.00  0.00     0.142 C 
BRANCH  11  12
HETATM   12  C10 UNL     1       2.092   5.319  15.108  1.00  0.00     0.004 C 
HETATM   13  C11 UNL     1       1.072   5.720  14.128  1.00  0.00     0.006 C 
HETATM   14  C12 UNL     1       0.270   6.922  14.399  1.00  0.00     0.000 C 
HETATM   15  C13 UNL     1       0.530   7.593  15.716  1.00  0.00     0.000 C 
HETATM   16  C14 UNL     1       2.052   7.730  15.821  1.00  0.00     0.000 C 
HETATM   17  C15 UNL     1       2.546   6.335  16.079  1.00  0.00     0.006 C 
ENDBRANCH  11  12
ENDBRANCH   9  11
ENDBRANCH   6   9
BRANCH   3  18
HETATM   18  N2  UNL     1       7.787   6.438  14.672  1.00  0.00    -0.367 N 
HETATM   19  C4  UNL     1       9.050   7.117  14.706  1.00  0.00     0.124 C 
HETATM   20  C5  UNL     1       9.841   6.444  15.777  1.00  0.00     0.021 C 
HETATM   21  C6  UNL     1       9.081   5.230  16.218  1.00  0.00     0.021 C 
HETATM   22  C7  UNL     1       7.666   5.565  15.823  1.00  0.00     0.124 C 
ENDBRANCH   3  18
BRANCH   1  23
HETATM   23  N1  UNL     1       6.196   8.110  10.468  1.00  0.00    -0.385 N 
ATOM     24  H12 UNL     1       7.008   8.723  10.392  1.00  0.00     0.157 HD
ATOM     25  H11 UNL     1       5.555   8.048   9.678  1.00  0.00     0.157 HD
ENDBRANCH   1  23
TORSDOF 5
ENDMDL
MODEL 4
REMARK VINA RESULT: -5.657908594      2.016      3.894
REMARK  5 active torsions:
REMARK  status: ('A' for Active; 'I' for Inactive)
REMARK    1  A    between atoms: N1_1  and  C1_4 
REMARK    2  A    between atoms: C3_6  and  N2_7 
REMARK    3  A    between atoms: C8_14  and  N4_15 
REMARK    4  A    between atoms: N4_15  and  C9_17 
REMARK    5  A    between atoms: C9_17  and  C10_18 
ROOT
HETATM    1  C1  UNL     1       8.918   8.446  13.367  1.00  0.00     0.118 A 
HETATM    2  C2  UNL     1       9.703   8.726  12.272  1.00  0.00     0.097 A 
HETATM    3  C3  UNL     1       9.220   8.661  10.988  1.00  0.00     0.122 A 
HETATM    4  N3  UNL     1       7.923   8.306  10.863  1.00  0.00    -0.177 N 
ATOM      5  H3  UNL     1       7.517   8.245   9.930  1.00  0.00     0.185 HD
HETATM    6  C8  UNL     1       7.149   8.031  11.927  1.00  0.00     0.681 A 
HETATM    7  N5  UNL     1       7.641   8.101  13.168  1.00  0.00    -0.177 N 
ATOM      8  H5  UNL     1       7.041   7.890  13.966  1.00  0.00     0.185 HD
ENDROOT
BRANCH   6   9
HETATM    9  N4  UNL     1       5.908   7.698  11.686  1.00  0.00    -0.226 N 
ATOM     10  H4  UNL     1       5.194   8.403  11.506  1.00  0.00     0.177 HD
BRANCH   9  11
HETATM   11  C9  UNL     1       5.587   6.285  11.686  1.00  0.00     0.142 C 
BRANCH  11  12
HETATM   12  C10 UNL     1       4.534   6.038  12.776  1.00  0.00     0.004 C 
HETATM   13  C11 UNL     1       3.702   7.238  12.952  1.00  0.00     0.006 C 
HETATM   14  C12 UNL     1       3.286   7.612  14.312  1.00  0.00     0.000 C 
HETATM   15  C13 UNL     1       3.700   6.666  15.402  1.00  0.00     0.000 C 
HETATM   16  C14 UNL     1       5.191   6.399  15.176  1.00  0.00     0.000 C 
HETATM   17  C15 UNL     1       5.244   5.517  13.962  1.00  0.00     0.006 C 
ENDBRANCH  11  12
ENDBRANCH   9  11
ENDBRANCH   6   9
BRANCH   3  18
HETATM   18  N2  UNL     1      10.034   8.952   9.843  1.00  0.00    -0.367 N 
HETATM   19  C4  UNL     1      10.539  10.236   9.453  1.00  0.00     0.124 C 
HETATM   20  C5  UNL     1      11.086  10.054   8.077  1.00  0.00     0.021 C 
HETATM   21  C6  UNL     1      10.700   8.685   7.605  1.00  0.00     0.021 C 
HETATM   22  C7  UNL     1      10.468   7.943   8.895  1.00  0.00     0.124 C 
ENDBRANCH   3  18
BRANCH   1  23
HETATM   23  N1  UNL     1       9.417   8.518  14.579  1.00  0.00    -0.385 N 
ATOM     24  H12 UNL     1       9.655   9.418  14.994  1.00  0.00     0.157 HD
ATOM     25  H11 UNL     1       9.574   7.671  15.124  1.00  0.00     0.157 HD
ENDBRANCH   1  23
TORSDOF 5
ENDMDL
MODEL 5
REMARK VINA RESULT: -5.648492797      6.592     11.382
REMARK  5 active torsions:
REMARK  status: ('A' for Active; 'I' for Inactive)
REMARK    1  A    between atoms: N1_1  and  C1_4 
REMARK    2  A    between atoms: C3_6  and  N2_7 
REMARK    3  A    between atoms: C8_14  and  N4_15 
REMARK    4  A    between atoms: N4_15  and  C9_17 
REMARK    5  A    between atoms: C9_17  and  C10_18 
ROOT
HETATM    1  C1  UNL     1       1.002   5.922  16.263  1.00  0.00     0.118 A 
HETATM    2  C2  UNL     1      -0.020   5.489  15.451  1.00  0.00     0.097 A 
HETATM    3  C3  UNL     1       0.212   4.906  14.229  1.00  0.00     0.122 A 
HETATM    4  N3  UNL     1       1.508   4.782  13.872  1.00  0.00    -0.177 N 
ATOM      5  H3  UNL     1       1.733   4.354  12.973  1.00  0.00     0.185 HD
HETATM    6  C8  UNL     1       2.512   5.201  14.660  1.00  0.00     0.681 A 
HETATM    7  N5  UNL     1       2.263   5.766  15.846  1.00  0.00    -0.177 N 
ATOM      8  H5  UNL     1       3.036   6.079  16.433  1.00  0.00     0.185 HD
ENDROOT
BRANCH   6   9
HETATM    9  N4  UNL     1       3.729   5.030  14.211  1.00  0.00    -0.226 N 
ATOM     10  H4  UNL     1       3.994   4.186  13.704  1.00  0.00     0.177 HD
BRANCH   9  11
HETATM   11  C9  UNL     1       4.685   6.088  14.463  1.00  0.00     0.142 C 
BRANCH  11  12
HETATM   12  C10 UNL     1       4.751   6.974  13.209  1.00  0.00     0.004 C 
HETATM   13  C11 UNL     1       4.681   6.140  12.000  1.00  0.00     0.006 C 
HETATM   14  C12 UNL     1       5.511   6.508  10.844  1.00  0.00     0.000 C 
HETATM   15  C13 UNL     1       6.311   7.769  10.992  1.00  0.00     0.000 C 
HETATM   16  C14 UNL     1       7.011   7.661  12.349  1.00  0.00     0.000 C 
HETATM   17  C15 UNL     1       5.921   7.863  13.362  1.00  0.00     0.006 C 
ENDBRANCH  11  12
ENDBRANCH   9  11
ENDBRANCH   6   9
BRANCH   3  18
HETATM   18  N2  UNL     1      -0.850   4.454  13.377  1.00  0.00    -0.367 N 
HETATM   19  C4  UNL     1      -0.913   3.205  12.673  1.00  0.00     0.124 C 
HETATM   20  C5  UNL     1      -2.065   3.330  11.733  1.00  0.00     0.021 C 
HETATM   21  C6  UNL     1      -2.536   4.751  11.766  1.00  0.00     0.021 C 
HETATM   22  C7  UNL     1      -2.044   5.231  13.107  1.00  0.00     0.124 C 
ENDBRANCH   3  18
BRANCH   1  23
HETATM   23  N1  UNL     1       0.739   6.474  17.425  1.00  0.00    -0.385 N 
ATOM     24  H12 UNL     1      -0.184   6.389  17.849  1.00  0.00     0.157 HD
ATOM     25  H11 UNL     1       1.458   7.000  17.921  1.00  0.00     0.157 HD
ENDBRANCH   1  23
TORSDOF 5
ENDMDL
