MODEL 1
REMARK VINA RESULT: -5.668145926      0.000      0.000
REMARK  5 active torsions:
REMARK  status: ('A' for Active; 'I' for Inactive)
REMARK    1  A    between atoms: C3_3  and  C4_4 
REMARK    2  A    between atoms: C10_13  and  N3_14 
REMARK    3  A    between atoms: C11_19  and  N5_20 
REMARK    4  A    between atoms: N5_20  and  C12_22 
REMARK    5  A    between atoms: C12_22  and  C13_23 
ROOT
HETATM    1  C1  UNL     1       5.674   6.446  11.071  1.00  0.00     0.054 C 
HETATM    2  C2  UNL     1       6.022   7.475  12.073  1.00  0.00     0.006 A 
HETATM    3  C3  UNL     1       5.215   7.711  13.196  1.00  0.00     0.040 A 
HETATM    4  N2  UNL     1       5.559   8.664  14.086  1.00  0.00    -0.195 N 
ATOM      5  H2  UNL     1       4.985   8.850  14.908  1.00  0.00     0.184 HD
HETATM    6  C10 UNL     1       6.685   9.359  13.850  1.00  0.00     0.677 A 
HETATM    7  N4  UNL     1       7.479   9.143  12.770  1.00  0.00    -0.177 N 
ATOM      8  H4  UNL     1       8.322   9.702  12.647  1.00  0.00     0.186 HD
HETATM    9  C11 UNL     1       7.171   8.203  11.859  1.00  0.00     0.124 A 
ENDROOT
BRANCH   3  10
HETATM   10  C4  UNL     1       4.015   6.903  13.363  1.00  0.00     0.040 C 
HETATM   11  C5  UNL     1       2.839   7.838  13.737  1.00  0.00     0.041 C 
HETATM   12  C6  UNL     1       1.611   6.995  14.020  1.00  0.00     0.272 C 
HETATM   13  N1  UNL     1       1.805   5.609  13.726  1.00  0.00     0.084 N 
HETATM   14  C7  UNL     1       0.593   4.911  14.188  1.00  0.00     0.309 C 
HETATM   15  C8  UNL     1       2.908   4.964  14.338  1.00  0.00     0.272 C 
HETATM   16  C9  UNL     1       4.038   5.946  14.537  1.00  0.00     0.041 C 
ENDBRANCH   3  10
BRANCH   9  17
HETATM   17  N5  UNL     1       7.887   7.971  10.837  1.00  0.00    -0.375 N 
ATOM     18  H5  UNL     1       7.439   7.421  10.105  1.00  0.00     0.161 HD
BRANCH  17  19
HETATM   19  C12 UNL     1       9.222   8.368  10.567  1.00  0.00     0.126 C 
BRANCH  19  20
HETATM   20  C13 UNL     1       9.836   7.687   9.376  1.00  0.00     0.003 A 
HETATM   21  C14 UNL     1      11.349   7.579   9.458  1.00  0.00     0.007 A 
HETATM   22  C15 UNL     1      10.669   8.374   8.391  1.00  0.00     0.007 A 
ENDBRANCH  19  20
ENDBRANCH  17  19
ENDBRANCH   9  17
BRANCH   6  23
HETATM   23  N3  UNL     1       7.065  10.277  14.659  1.00  0.00    -0.234 N 
ATOM     24  H32 UNL     1       6.768  11.227  14.437  1.00  0.00     0.174 HD
ATOM     25  H31 UNL     1       7.633  10.046  15.474  1.00  0.00     0.174 HD
ENDBRANCH   6  23
TORSDOF 5
ENDMDL
MODEL 2
REMARK VINA RESULT: -5.502443982      2.790      4.256
REMARK  5 active torsions:
REMARK  status: ('A' for Active; 'I' for Inactive)
REMARK    1  A    between atoms: C3_3  and  C4_4 
REMARK    2  A    between atoms: C10_13  and  N3_14 
REMARK    3  A    between atoms: C11_19  and  N5_20 
REMARK    4  A    between atoms: N5_20  and  C12_22 
REMARK    5  A    between atoms: C12_22  and  C13_23 
ROOT
HETATM    1  C1  UNL     1       3.267   5.076  14.520  1.00  0.00     0.054 C 
HETATM    2  C2  UNL     1       3.060   6.539  14.465  1.00  0.00     0.006 A 
HETATM    3  C3  UNL     1       1.785   7.107  14.603  1.00  0.00     0.040 A 
HETATM    4  N2  UNL     1       1.632   8.445  14.540  1.00  0.00    -0.195 N 
ATOM      5  H2  UNL     1       0.713   8.877  14.638  1.00  0.00     0.184 HD
HETATM    6  C10 UNL     1       2.734   9.189  14.344  1.00  0.00     0.677 A 
HETATM    7  N4  UNL     1       3.976   8.657  14.210  1.00  0.00    -0.177 N 
ATOM      8  H4  UNL     1       4.774   9.275  14.065  1.00  0.00     0.186 HD
HETATM    9  C11 UNL     1       4.171   7.328  14.266  1.00  0.00     0.124 A 
ENDROOT
BRANCH   3  10
HETATM   10  C4  UNL     1       0.653   6.215  14.814  1.00  0.00     0.040 C 
HETATM   11  C5  UNL     1      -0.415   6.508  13.732  1.00  0.00     0.041 C 
HETATM   12  C6  UNL     1      -1.641   5.661  14.010  1.00  0.00     0.272 C 
HETATM   13  N1  UNL     1      -1.444   4.724  15.072  1.00  0.00     0.084 N 
HETATM   14  C7  UNL     1      -2.752   4.091  15.317  1.00  0.00     0.309 C 
HETATM   15  C8  UNL     1      -0.998   5.237  16.315  1.00  0.00     0.272 C 
HETATM   16  C9  UNL     1      -0.125   6.449  16.092  1.00  0.00     0.041 C 
ENDBRANCH   3  10
BRANCH   9  17
HETATM   17  N5  UNL     1       5.315   6.792  14.146  1.00  0.00    -0.375 N 
ATOM     18  H5  UNL     1       5.501   6.011  14.775  1.00  0.00     0.161 HD
BRANCH  17  19
HETATM   19  C12 UNL     1       6.374   7.125  13.261  1.00  0.00     0.126 C 
BRANCH  19  20
HETATM   20  C13 UNL     1       6.313   6.417  11.936  1.00  0.00     0.003 A 
HETATM   21  C14 UNL     1       6.144   7.360  10.758  1.00  0.00     0.007 A 
HETATM   22  C15 UNL     1       5.108   6.344  11.112  1.00  0.00     0.007 A 
ENDBRANCH  19  20
ENDBRANCH  17  19
ENDBRANCH   9  17
BRANCH   6  23
HETATM   23  N3  UNL     1       2.653  10.466  14.275  1.00  0.00    -0.234 N 
ATOM     24  H32 UNL     1       1.763  10.847  13.956  1.00  0.00     0.174 HD
ATOM     25  H31 UNL     1       3.450  11.049  14.530  1.00  0.00     0.174 HD
ENDBRANCH   6  23
TORSDOF 5
ENDMDL
MODEL 3
REMARK VINA RESULT: -5.499364589      3.004      4.259
REMARK  5 active torsions:
REMARK  status: ('A' for Active; 'I' for Inactive)
REMARK    1  A    between atoms: C3_3  and  C4_4 
REMARK    2  A    between atoms: C10_13  and  N3_14 
REMARK    3  A    between atoms: C11_19  and  N5_20 
REMARK    4  A    between atoms: N5_20  and  C12_22 
REMARK    5  A    between atoms: C12_22  and  C13_23 
ROOT
HETATM    1  C1  UNL     1       3.314   4.830  14.274  1.00  0.00     0.054 C 
HETATM    2  C2  UNL     1       3.631   5.998  15.124  1.00  0.00     0.006 A 
HETATM    3  C3  UNL     1       2.662   6.597  15.943  1.00  0.00     0.040 A 
HETATM    4  N2  UNL     1       2.986   7.666  16.699  1.00  0.00    -0.195 N 
ATOM      5  H2  UNL     1       2.295   8.115  17.300  1.00  0.00     0.184 HD
HETATM    6  C10 UNL     1       4.250   8.117  16.631  1.00  0.00     0.677 A 
HETATM    7  N4  UNL     1       5.200   7.548  15.846  1.00  0.00    -0.177 N 
ATOM      8  H4  UNL     1       6.144   7.936  15.839  1.00  0.00     0.186 HD
HETATM    9  C11 UNL     1       4.919   6.483  15.077  1.00  0.00     0.124 A 
ENDROOT
BRANCH   3  10
HETATM   10  C4  UNL     1       1.320   6.032  15.947  1.00  0.00     0.040 C 
HETATM   11  C5  UNL     1       0.467   6.780  14.894  1.00  0.00     0.041 C 
HETATM   12  C6  UNL     1      -0.960   6.273  14.968  1.00  0.00     0.272 C 
HETATM   13  N1  UNL     1      -1.113   5.160  15.853  1.00  0.00     0.084 N 
HETATM   14  C7  UNL     1      -2.558   4.884  15.930  1.00  0.00     0.309 C 
HETATM   15  C8  UNL     1      -0.655   5.323  17.184  1.00  0.00     0.272 C 
HETATM   16  C9  UNL     1       0.525   6.264  17.215  1.00  0.00     0.041 C 
ENDBRANCH   3  10
BRANCH   9  17
HETATM   17  N5  UNL     1       5.780   5.924  14.330  1.00  0.00    -0.375 N 
ATOM     18  H5  UNL     1       5.971   4.944  14.540  1.00  0.00     0.161 HD
BRANCH  17  19
HETATM   19  C12 UNL     1       6.515   6.466  13.245  1.00  0.00     0.126 C 
BRANCH  19  20
HETATM   20  C13 UNL     1       5.670   7.174  12.223  1.00  0.00     0.003 A 
HETATM   21  C14 UNL     1       5.201   6.269  11.098  1.00  0.00     0.007 A 
HETATM   22  C15 UNL     1       6.103   7.433  10.852  1.00  0.00     0.007 A 
ENDBRANCH  19  20
ENDBRANCH  17  19
ENDBRANCH   9  17
BRANCH   6  23
HETATM   23  N3  UNL     1       4.618   9.129  17.326  1.00  0.00    -0.234 N 
ATOM     24  H32 UNL     1       3.873   9.725  17.686  1.00  0.00     0.174 HD
ATOM     25  H31 UNL     1       5.607   9.308  17.495  1.00  0.00     0.174 HD
ENDBRANCH   6  23
TORSDOF 5
ENDMDL
MODEL 4
REMARK VINA RESULT: -5.439993976      1.793      7.368
REMARK  5 active torsions:
REMARK  status: ('A' for Active; 'I' for Inactive)
REMARK    1  A    between atoms: C3_3  and  C4_4 
REMARK    2  A    between atoms: C10_13  and  N3_14 
REMARK    3  A    between atoms: C11_19  and  N5_20 
REMARK    4  A    between atoms: N5_20  and  C12_22 
REMARK    5  A    between atoms: C12_22  and  C13_23 
ROOT
HETATM    1  C1  UNL     1       6.468   8.128   9.955  1.00  0.00     0.054 C 
HETATM    2  C2  UNL     1       7.080   8.031  11.297  1.00  0.00     0.006 A 
HETATM    3  C3  UNL     1       8.424   8.367  11.519  1.00  0.00     0.040 A 
HETATM    4  N2  UNL     1       8.950   8.259  12.756  1.00  0.00    -0.195 N 
ATOM      5  H2  UNL     1       9.925   8.498  12.937  1.00  0.00     0.184 HD
HETATM    6  C10 UNL     1       8.145   7.824  13.741  1.00  0.00     0.677 A 
HETATM    7  N4  UNL     1       6.842   7.497  13.544  1.00  0.00    -0.177 N 
ATOM      8  H4  UNL     1       6.281   7.175  14.332  1.00  0.00     0.186 HD
HETATM    9  C11 UNL     1       6.279   7.590  12.327  1.00  0.00     0.124 A 
ENDROOT
BRANCH   3  10
HETATM   10  C4  UNL     1       9.214   8.829  10.387  1.00  0.00     0.040 C 
HETATM   11  C5  UNL     1      10.017   7.631   9.824  1.00  0.00     0.041 C 
HETATM   12  C6  UNL     1      10.925   8.126   8.715  1.00  0.00     0.272 C 
HETATM   13  N1  UNL     1      10.699   9.498   8.378  1.00  0.00     0.084 N 
HETATM   14  C7  UNL     1      11.743   9.865   7.405  1.00  0.00     0.309 C 
HETATM   15  C8  UNL     1      10.767  10.444   9.430  1.00  0.00     0.272 C 
HETATM   16  C9  UNL     1      10.315   9.813  10.725  1.00  0.00     0.041 C 
ENDBRANCH   3  10
BRANCH   9  17
HETATM   17  N5  UNL     1       5.065   7.294  12.103  1.00  0.00    -0.375 N 
ATOM     18  H5  UNL     1       4.816   7.184  11.120  1.00  0.00     0.161 HD
BRANCH  17  19
HETATM   19  C12 UNL     1       4.005   7.093  13.025  1.00  0.00     0.126 C 
BRANCH  19  20
HETATM   20  C13 UNL     1       3.530   5.669  13.113  1.00  0.00     0.003 A 
HETATM   21  C14 UNL     1       2.242   5.513  13.903  1.00  0.00     0.007 A 
HETATM   22  C15 UNL     1       3.524   4.893  14.351  1.00  0.00     0.007 A 
ENDBRANCH  19  20
ENDBRANCH  17  19
ENDBRANCH   9  17
BRANCH   6  23
HETATM   23  N3  UNL     1       8.587   7.701  14.937  1.00  0.00    -0.234 N 
ATOM     24  H32 UNL     1       9.478   8.154  15.138  1.00  0.00     0.174 HD
ATOM     25  H31 UNL     1       8.060   7.173  15.631  1.00  0.00     0.174 HD
ENDBRANCH   6  23
TORSDOF 5
ENDMDL
MODEL 5
REMARK VINA RESULT: -5.212006086      4.948      9.047
REMARK  5 active torsions:
REMARK  status: ('A' for Active; 'I' for Inactive)
REMARK    1  A    between atoms: C3_3  and  C4_4 
REMARK    2  A    between atoms: C10_13  and  N3_14 
REMARK    3  A    between atoms: C11_19  and  N5_20 
REMARK    4  A    between atoms: N5_20  and  C12_22 
REMARK    5  A    between atoms: C12_22  and  C13_23 
ROOT
HETATM    1  C1  UNL     1      -1.266   7.239  13.805  1.00  0.00     0.054 C 
HETATM    2  C2  UNL     1      -1.127   5.797  13.506  1.00  0.00     0.006 A 
HETATM    3  C3  UNL     1       0.061   5.101  13.774  1.00  0.00     0.040 A 
HETATM    4  N2  UNL     1       0.154   3.788  13.481  1.00  0.00    -0.195 N 
ATOM      5  H2  UNL     1       1.010   3.265  13.668  1.00  0.00     0.184 HD
HETATM    6  C10 UNL     1      -0.920   3.194  12.934  1.00  0.00     0.677 A 
HETATM    7  N4  UNL     1      -2.078   3.851  12.671  1.00  0.00    -0.177 N 
ATOM      8  H4  UNL     1      -2.860   3.344  12.257  1.00  0.00     0.186 HD
HETATM    9  C11 UNL     1      -2.212   5.160  12.947  1.00  0.00     0.124 A 
ENDROOT
BRANCH   3  10
HETATM   10  C4  UNL     1       1.169   5.835  14.369  1.00  0.00     0.040 C 
HETATM   11  C5  UNL     1       2.489   5.345  13.724  1.00  0.00     0.041 C 
HETATM   12  C6  UNL     1       3.655   6.024  14.415  1.00  0.00     0.272 C 
HETATM   13  N1  UNL     1       3.245   7.028  15.347  1.00  0.00     0.084 N 
HETATM   14  C7  UNL     1       4.467   7.483  16.034  1.00  0.00     0.309 C 
HETATM   15  C8  UNL     1       2.327   6.642  16.355  1.00  0.00     0.272 C 
HETATM   16  C9  UNL     1       1.416   5.555  15.837  1.00  0.00     0.041 C 
ENDBRANCH   3  10
BRANCH   9  17
HETATM   17  N5  UNL     1      -3.278   5.809  12.715  1.00  0.00    -0.375 N 
ATOM     18  H5  UNL     1      -3.680   6.291  13.519  1.00  0.00     0.161 HD
BRANCH  17  19
HETATM   19  C12 UNL     1      -3.991   5.961  11.498  1.00  0.00     0.126 C 
BRANCH  19  20
HETATM   20  C13 UNL     1      -3.113   6.132  10.289  1.00  0.00     0.003 A 
HETATM   21  C14 UNL     1      -3.893   6.268   8.993  1.00  0.00     0.007 A 
HETATM   22  C15 UNL     1      -2.970   5.121   9.243  1.00  0.00     0.007 A 
ENDBRANCH  19  20
ENDBRANCH  17  19
ENDBRANCH   9  17
BRANCH   6  23
HETATM   23  N3  UNL     1      -0.893   1.948  12.635  1.00  0.00    -0.234 N 
ATOM     24  H32 UNL     1      -1.440   1.328  13.231  1.00  0.00     0.174 HD
ATOM     25  H31 UNL     1      -0.346   1.620  11.840  1.00  0.00     0.174 HD
ENDBRANCH   6  23
TORSDOF 5
ENDMDL
