MODEL 1
REMARK VINA RESULT: -6.500959279      0.000      0.000
REMARK  3 active torsions:
REMARK  status: ('A' for Active; 'I' for Inactive)
REMARK    1  A    between atoms: C3_3  and  C4_4 
REMARK    2  A    between atoms: C4_4  and  C5_5 
REMARK    3  A    between atoms: C5_5  and  N1_6 
ROOT
HETATM    1  N1  UNL     1      -3.644  -5.243  17.284  1.00  0.00     0.013 N 
HETATM    2  C6  UNL     1      -4.234  -4.413  16.268  1.00  0.00     0.262 C 
HETATM    3  C7  UNL     1      -2.946  -4.115  15.468  1.00  0.00     0.054 C 
HETATM    4  C8  UNL     1      -1.992  -4.865  16.354  1.00  0.00     0.136 C 
HETATM    5  C9  UNL     1      -2.501  -4.507  17.734  1.00  0.00     0.283 C 
HETATM    6  N2  UNL     1      -2.720  -6.091  16.610  1.00  0.00    -0.040 NA
ENDROOT
BRANCH   1   7
HETATM    7  C5  UNL     1      -4.441  -5.937  18.180  1.00  0.00     0.261 C 
BRANCH   7   8
HETATM    8  C4  UNL     1      -4.899  -7.303  17.750  1.00  0.00     0.034 C 
BRANCH   8   9
HETATM    9  C3  UNL     1      -6.421  -7.301  17.788  1.00  0.00    -0.013 A 
HETATM   10  C1  UNL     1      -7.174  -6.754  16.635  1.00  0.00     0.005 A 
HETATM   11  C2  UNL     1      -7.165  -6.032  17.929  1.00  0.00     0.005 A 
ENDBRANCH   8   9
ENDBRANCH   7   8
ENDBRANCH   1   7
TORSDOF 3
ENDMDL
MODEL 2
REMARK VINA RESULT: -6.094514311      0.733      1.058
REMARK  3 active torsions:
REMARK  status: ('A' for Active; 'I' for Inactive)
REMARK    1  A    between atoms: C3_3  and  C4_4 
REMARK    2  A    between atoms: C4_4  and  C5_5 
REMARK    3  A    between atoms: C5_5  and  N1_6 
ROOT
HETATM    1  N1  UNL     1      -3.592  -5.129  17.030  1.00  0.00     0.013 N 
HETATM    2  C6  UNL     1      -3.813  -4.341  15.847  1.00  0.00     0.262 C 
HETATM    3  C7  UNL     1      -2.336  -4.187  15.420  1.00  0.00     0.054 C 
HETATM    4  C8  UNL     1      -1.724  -4.927  16.575  1.00  0.00     0.136 C 
HETATM    5  C9  UNL     1      -2.558  -4.436  17.738  1.00  0.00     0.283 C 
HETATM    6  N2  UNL     1      -2.592  -6.082  16.685  1.00  0.00    -0.040 NA
ENDROOT
BRANCH   1   7
HETATM    7  C5  UNL     1      -4.657  -5.701  17.707  1.00  0.00     0.261 C 
BRANCH   7   8
HETATM    8  C4  UNL     1      -6.019  -5.496  17.105  1.00  0.00     0.034 C 
BRANCH   8   9
HETATM    9  C3  UNL     1      -6.951  -6.522  17.735  1.00  0.00    -0.013 A 
HETATM   10  C1  UNL     1      -6.795  -7.953  17.386  1.00  0.00     0.005 A 
HETATM   11  C2  UNL     1      -7.981  -7.197  16.918  1.00  0.00     0.005 A 
ENDBRANCH   8   9
ENDBRANCH   7   8
ENDBRANCH   1   7
TORSDOF 3
ENDMDL
MODEL 3
REMARK VINA RESULT: -6.013643753      1.154      1.571
REMARK  3 active torsions:
REMARK  status: ('A' for Active; 'I' for Inactive)
REMARK    1  A    between atoms: C3_3  and  C4_4 
REMARK    2  A    between atoms: C4_4  and  C5_5 
REMARK    3  A    between atoms: C5_5  and  N1_6 
ROOT
HETATM    1  N1  UNL     1      -4.187  -6.113  17.537  1.00  0.00     0.013 N 
HETATM    2  C6  UNL     1      -4.720  -4.939  16.897  1.00  0.00     0.262 C 
HETATM    3  C7  UNL     1      -3.401  -4.139  16.801  1.00  0.00     0.054 C 
HETATM    4  C8  UNL     1      -2.518  -5.140  17.490  1.00  0.00     0.136 C 
HETATM    5  C9  UNL     1      -3.404  -5.608  18.624  1.00  0.00     0.283 C 
HETATM    6  N2  UNL     1      -2.949  -6.385  16.889  1.00  0.00    -0.040 NA
ENDROOT
BRANCH   1   7
HETATM    7  C5  UNL     1      -4.966  -7.249  17.688  1.00  0.00     0.261 C 
BRANCH   7   8
HETATM    8  C4  UNL     1      -6.451  -7.034  17.784  1.00  0.00     0.034 C 
BRANCH   8   9
HETATM    9  C3  UNL     1      -7.108  -7.955  16.765  1.00  0.00    -0.013 A 
HETATM   10  C1  UNL     1      -8.435  -7.597  16.214  1.00  0.00     0.005 A 
HETATM   11  C2  UNL     1      -8.297  -8.750  17.133  1.00  0.00     0.005 A 
ENDBRANCH   8   9
ENDBRANCH   7   8
ENDBRANCH   1   7
TORSDOF 3
ENDMDL
MODEL 4
REMARK VINA RESULT: -5.940552250      0.933      1.653
REMARK  3 active torsions:
REMARK  status: ('A' for Active; 'I' for Inactive)
REMARK    1  A    between atoms: C3_3  and  C4_4 
REMARK    2  A    between atoms: C4_4  and  C5_5 
REMARK    3  A    between atoms: C5_5  and  N1_6 
ROOT
HETATM    1  N1  UNL     1      -3.526  -4.819  16.771  1.00  0.00     0.013 N 
HETATM    2  C6  UNL     1      -2.281  -5.257  16.197  1.00  0.00     0.262 C 
HETATM    3  C7  UNL     1      -2.065  -4.066  15.236  1.00  0.00     0.054 C 
HETATM    4  C8  UNL     1      -3.335  -3.330  15.553  1.00  0.00     0.136 C 
HETATM    5  C9  UNL     1      -4.336  -4.461  15.646  1.00  0.00     0.283 C 
HETATM    6  N2  UNL     1      -3.382  -3.422  16.998  1.00  0.00    -0.040 NA
ENDROOT
BRANCH   1   7
HETATM    7  C5  UNL     1      -4.072  -5.479  17.860  1.00  0.00     0.261 C 
BRANCH   7   8
HETATM    8  C4  UNL     1      -4.487  -6.907  17.637  1.00  0.00     0.034 C 
BRANCH   8   9
HETATM    9  C3  UNL     1      -5.968  -7.006  17.976  1.00  0.00    -0.013 A 
HETATM   10  C1  UNL     1      -6.826  -7.939  17.210  1.00  0.00     0.005 A 
HETATM   11  C2  UNL     1      -6.986  -6.476  17.045  1.00  0.00     0.005 A 
ENDBRANCH   8   9
ENDBRANCH   7   8
ENDBRANCH   1   7
TORSDOF 3
ENDMDL
MODEL 5
REMARK VINA RESULT: -5.762844429      1.591      4.071
REMARK  3 active torsions:
REMARK  status: ('A' for Active; 'I' for Inactive)
REMARK    1  A    between atoms: C3_3  and  C4_4 
REMARK    2  A    between atoms: C4_4  and  C5_5 
REMARK    3  A    between atoms: C5_5  and  N1_6 
ROOT
HETATM    1  N1  UNL     1      -3.991  -5.329  17.333  1.00  0.00     0.013 N 
HETATM    2  C6  UNL     1      -5.392  -5.334  17.006  1.00  0.00     0.262 C 
HETATM    3  C7  UNL     1      -5.738  -6.721  17.595  1.00  0.00     0.054 C 
HETATM    4  C8  UNL     1      -4.352  -7.091  18.041  1.00  0.00     0.136 C 
HETATM    5  C9  UNL     1      -3.510  -6.601  16.883  1.00  0.00     0.283 C 
HETATM    6  N2  UNL     1      -3.894  -5.860  18.650  1.00  0.00    -0.040 NA
ENDROOT
BRANCH   1   7
HETATM    7  C5  UNL     1      -3.231  -4.183  17.167  1.00  0.00     0.261 C 
BRANCH   7   8
HETATM    8  C4  UNL     1      -2.826  -3.847  15.759  1.00  0.00     0.034 C 
BRANCH   8   9
HETATM    9  C3  UNL     1      -3.746  -2.735  15.276  1.00  0.00    -0.013 A 
HETATM   10  C1  UNL     1      -3.274  -1.331  15.323  1.00  0.00     0.005 A 
HETATM   11  C2  UNL     1      -4.344  -1.788  16.240  1.00  0.00     0.005 A 
ENDBRANCH   8   9
ENDBRANCH   7   8
ENDBRANCH   1   7
TORSDOF 3
ENDMDL
