MODEL 1
REMARK VINA RESULT: -5.722275509      0.000      0.000
REMARK  4 active torsions:
REMARK  status: ('A' for Active; 'I' for Inactive)
REMARK    1  A    between atoms: N1_2  and  C2_4 
REMARK    2  A    between atoms: C2_4  and  C3_5 
REMARK    3  A    between atoms: C3_5  and  C4_6 
REMARK    4  A    between atoms: C5_7  and  N2_8 
ROOT
HETATM    1  C4  UNL     1      -4.719  -6.606  18.059  1.00  0.00     0.064 C 
HETATM    2  C5  UNL     1      -3.570  -6.215  17.273  1.00  0.00     0.067 C 
ENDROOT
BRANCH   1   3
HETATM    3  C3  UNL     1      -5.822  -7.187  17.708  1.00  0.00    -0.135 C 
BRANCH   3   4
HETATM    4  C2  UNL     1      -6.978  -7.796  17.340  1.00  0.00     0.203 C 
BRANCH   4   5
HETATM    5  N1  UNL     1      -8.026  -6.827  16.964  1.00  0.00    -0.398 N 
HETATM    6  C1  UNL     1      -9.017  -6.675  17.714  1.00  0.00     0.112 C 
ATOM      7  H1  UNL     1      -7.943  -6.287  16.103  1.00  0.00     0.158 HD
ENDBRANCH   4   5
ENDBRANCH   3   4
ENDBRANCH   1   3
BRANCH   2   8
HETATM    8  N2  UNL     1      -3.227  -4.801  17.309  1.00  0.00    -0.292 NA
HETATM    9  C6  UNL     1      -1.935  -4.606  16.680  1.00  0.00     0.095 C 
HETATM   10  C7  UNL     1      -2.305  -4.505  15.181  1.00  0.00     0.016 C 
HETATM   11  C8  UNL     1      -3.417  -3.480  15.319  1.00  0.00     0.016 C 
HETATM   12  C9  UNL     1      -4.174  -4.035  16.501  1.00  0.00     0.095 C 
ENDBRANCH   2   8
TORSDOF 4
ENDMDL
MODEL 2
REMARK VINA RESULT: -5.550981747      1.470      1.584
REMARK  4 active torsions:
REMARK  status: ('A' for Active; 'I' for Inactive)
REMARK    1  A    between atoms: N1_2  and  C2_4 
REMARK    2  A    between atoms: C2_4  and  C3_5 
REMARK    3  A    between atoms: C3_5  and  C4_6 
REMARK    4  A    between atoms: C5_7  and  N2_8 
ROOT
HETATM    1  C4  UNL     1      -5.796  -7.202  17.889  1.00  0.00     0.064 C 
HETATM    2  C5  UNL     1      -4.502  -6.745  17.431  1.00  0.00     0.067 C 
ENDROOT
BRANCH   1   3
HETATM    3  C3  UNL     1      -6.757  -7.787  17.249  1.00  0.00    -0.135 C 
BRANCH   3   4
HETATM    4  C2  UNL     1      -7.766  -8.400  16.577  1.00  0.00     0.203 C 
BRANCH   4   5
HETATM    5  N1  UNL     1      -8.550  -9.300  17.446  1.00  0.00    -0.398 N 
HETATM    6  C1  UNL     1      -9.681  -9.683  17.068  1.00  0.00     0.112 C 
ATOM      7  H1  UNL     1      -8.174  -9.607  18.343  1.00  0.00     0.158 HD
ENDBRANCH   4   5
ENDBRANCH   3   4
ENDBRANCH   1   3
BRANCH   2   8
HETATM    8  N2  UNL     1      -4.228  -5.327  17.617  1.00  0.00    -0.292 NA
HETATM    9  C6  UNL     1      -2.794  -5.110  17.590  1.00  0.00     0.095 C 
HETATM   10  C7  UNL     1      -2.504  -4.994  16.074  1.00  0.00     0.016 C 
HETATM   11  C8  UNL     1      -3.588  -3.984  15.740  1.00  0.00     0.016 C 
HETATM   12  C9  UNL     1      -4.762  -4.561  16.493  1.00  0.00     0.095 C 
ENDBRANCH   2   8
TORSDOF 4
ENDMDL
MODEL 3
REMARK VINA RESULT: -5.542827375      1.583      5.549
REMARK  4 active torsions:
REMARK  status: ('A' for Active; 'I' for Inactive)
REMARK    1  A    between atoms: N1_2  and  C2_4 
REMARK    2  A    between atoms: C2_4  and  C3_5 
REMARK    3  A    between atoms: C3_5  and  C4_6 
REMARK    4  A    between atoms: C5_7  and  N2_8 
ROOT
HETATM    1  C4  UNL     1      -4.153  -4.301  16.696  1.00  0.00     0.064 C 
HETATM    2  C5  UNL     1      -5.401  -5.027  16.611  1.00  0.00     0.067 C 
ENDROOT
BRANCH   1   3
HETATM    3  C3  UNL     1      -3.097  -4.350  15.948  1.00  0.00    -0.135 C 
BRANCH   3   4
HETATM    4  C2  UNL     1      -1.990  -4.403  15.165  1.00  0.00     0.203 C 
BRANCH   4   5
HETATM    5  N1  UNL     1      -0.773  -3.986  15.889  1.00  0.00    -0.398 N 
HETATM    6  C1  UNL     1      -0.399  -4.644  16.886  1.00  0.00     0.112 C 
ATOM      7  H1  UNL     1      -0.243  -3.171  15.580  1.00  0.00     0.158 HD
ENDBRANCH   4   5
ENDBRANCH   3   4
ENDBRANCH   1   3
BRANCH   2   8
HETATM    8  N2  UNL     1      -5.758  -5.816  17.781  1.00  0.00    -0.292 NA
HETATM    9  C6  UNL     1      -7.196  -5.774  17.966  1.00  0.00     0.095 C 
HETATM   10  C7  UNL     1      -7.686  -6.900  17.025  1.00  0.00     0.016 C 
HETATM   11  C8  UNL     1      -6.736  -7.985  17.500  1.00  0.00     0.016 C 
HETATM   12  C9  UNL     1      -5.434  -7.223  17.555  1.00  0.00     0.095 C 
ENDBRANCH   2   8
TORSDOF 4
ENDMDL
MODEL 4
REMARK VINA RESULT: -5.398840899      1.819      5.548
REMARK  4 active torsions:
REMARK  status: ('A' for Active; 'I' for Inactive)
REMARK    1  A    between atoms: N1_2  and  C2_4 
REMARK    2  A    between atoms: C2_4  and  C3_5 
REMARK    3  A    between atoms: C3_5  and  C4_6 
REMARK    4  A    between atoms: C5_7  and  N2_8 
ROOT
HETATM    1  C4  UNL     1      -3.492  -4.624  17.433  1.00  0.00     0.064 C 
HETATM    2  C5  UNL     1      -4.593  -5.433  16.957  1.00  0.00     0.067 C 
ENDROOT
BRANCH   1   3
HETATM    3  C3  UNL     1      -2.223  -4.700  17.187  1.00  0.00    -0.135 C 
BRANCH   3   4
HETATM    4  C2  UNL     1      -0.892  -4.779  16.930  1.00  0.00     0.203 C 
BRANCH   4   5
HETATM    5  N1  UNL     1      -0.074  -4.381  18.092  1.00  0.00    -0.398 N 
HETATM    6  C1  UNL     1      -0.533  -4.539  19.246  1.00  0.00     0.112 C 
ATOM      7  H1  UNL     1       0.854  -3.982  17.956  1.00  0.00     0.158 HD
ENDBRANCH   4   5
ENDBRANCH   3   4
ENDBRANCH   1   3
BRANCH   2   8
HETATM    8  N2  UNL     1      -5.389  -6.089  17.985  1.00  0.00    -0.292 NA
HETATM    9  C6  UNL     1      -6.772  -5.672  17.857  1.00  0.00     0.095 C 
HETATM   10  C7  UNL     1      -7.314  -6.642  16.781  1.00  0.00     0.016 C 
HETATM   11  C8  UNL     1      -6.803  -7.932  17.399  1.00  0.00     0.016 C 
HETATM   12  C9  UNL     1      -5.394  -7.534  17.769  1.00  0.00     0.095 C 
ENDBRANCH   2   8
TORSDOF 4
ENDMDL
MODEL 5
REMARK VINA RESULT: -5.207624651      1.366      5.757
REMARK  4 active torsions:
REMARK  status: ('A' for Active; 'I' for Inactive)
REMARK    1  A    between atoms: N1_2  and  C2_4 
REMARK    2  A    between atoms: C2_4  and  C3_5 
REMARK    3  A    between atoms: C3_5  and  C4_6 
REMARK    4  A    between atoms: C5_7  and  N2_8 
ROOT
HETATM    1  C4  UNL     1      -6.075  -5.996  17.783  1.00  0.00     0.064 C 
HETATM    2  C5  UNL     1      -6.881  -6.863  16.952  1.00  0.00     0.067 C 
ENDROOT
BRANCH   1   3
HETATM    3  C3  UNL     1      -4.811  -6.035  18.064  1.00  0.00    -0.135 C 
BRANCH   3   4
HETATM    4  C2  UNL     1      -3.486  -6.074  18.358  1.00  0.00     0.203 C 
BRANCH   4   5
HETATM    5  N1  UNL     1      -2.647  -6.163  17.147  1.00  0.00    -0.398 N 
HETATM    6  C1  UNL     1      -2.541  -5.163  16.402  1.00  0.00     0.112 C 
ATOM      7  H1  UNL     1      -2.159  -7.029  16.921  1.00  0.00     0.158 HD
ENDBRANCH   4   5
ENDBRANCH   3   4
ENDBRANCH   1   3
BRANCH   2   8
HETATM    8  N2  UNL     1      -8.006  -7.509  17.611  1.00  0.00    -0.292 NA
HETATM    9  C6  UNL     1      -9.189  -6.684  17.457  1.00  0.00     0.095 C 
HETATM   10  C7  UNL     1      -9.719  -7.118  16.069  1.00  0.00     0.016 C 
HETATM   11  C8  UNL     1      -9.676  -8.618  16.300  1.00  0.00     0.016 C 
HETATM   12  C9  UNL     1      -8.320  -8.772  16.945  1.00  0.00     0.095 C 
ENDBRANCH   2   8
TORSDOF 4
ENDMDL
