MODEL 1
REMARK VINA RESULT: -7.219848816      0.000      0.000
REMARK  3 active torsions:
REMARK  status: ('A' for Active; 'I' for Inactive)
REMARK    1  A    between atoms: C3_3  and  N1_4 
REMARK       I    between atoms: N1_4  and  C4_6 
REMARK    2  A    between atoms: C4_6  and  C5_8 
REMARK    3  A    between atoms: C6_9  and  C7_10 
ROOT
HETATM    1  C1  UNL     1      -4.038  -1.245  16.055  1.00  0.00     0.098 C 
HETATM    2  C2  UNL     1      -3.682  -2.409  16.185  1.00  0.00    -0.168 C 
HETATM    3  C3  UNL     1      -3.241  -3.793  16.354  1.00  0.00     0.202 C 
ENDROOT
BRANCH   3   4
HETATM    4  N1  UNL     1      -4.337  -4.643  16.727  1.00  0.00    -0.348 N 
HETATM    5  C4  UNL     1      -4.187  -5.914  17.326  1.00  0.00     0.241 C 
HETATM    6  O1  UNL     1      -3.038  -6.345  17.554  1.00  0.00    -0.269 OA
ATOM      7  H1  UNL     1      -5.284  -4.308  16.548  1.00  0.00     0.163 HD
BRANCH   5   8
HETATM    8  C5  UNL     1      -5.333  -6.714  17.675  1.00  0.00     0.070 C 
HETATM    9  C6  UNL     1      -6.535  -6.536  17.159  1.00  0.00    -0.017 C 
BRANCH   9  10
HETATM   10  C7  UNL     1      -7.680  -7.364  17.533  1.00  0.00     0.008 A 
HETATM   11  C8  UNL     1      -7.811  -8.671  16.765  1.00  0.00     0.009 A 
HETATM   12  C9  UNL     1      -8.858  -7.548  16.673  1.00  0.00     0.009 A 
ENDBRANCH   9  10
ENDBRANCH   5   8
ENDBRANCH   3   4
TORSDOF 3
ENDMDL
MODEL 2
REMARK VINA RESULT: -7.056122922      1.133      5.614
REMARK  3 active torsions:
REMARK  status: ('A' for Active; 'I' for Inactive)
REMARK    1  A    between atoms: C3_3  and  N1_4 
REMARK       I    between atoms: N1_4  and  C4_6 
REMARK    2  A    between atoms: C4_6  and  C5_8 
REMARK    3  A    between atoms: C6_9  and  C7_10 
ROOT
HETATM    1  C1  UNL     1      -7.106  -8.107  17.374  1.00  0.00     0.098 C 
HETATM    2  C2  UNL     1      -5.984  -7.652  17.556  1.00  0.00    -0.168 C 
HETATM    3  C3  UNL     1      -4.635  -7.127  17.761  1.00  0.00     0.202 C 
ENDROOT
BRANCH   3   4
HETATM    4  N1  UNL     1      -4.554  -5.745  17.378  1.00  0.00    -0.348 N 
HETATM    5  C4  UNL     1      -3.368  -5.108  16.947  1.00  0.00     0.241 C 
HETATM    6  O1  UNL     1      -2.312  -5.770  16.889  1.00  0.00    -0.269 OA
ATOM      7  H1  UNL     1      -5.407  -5.187  17.419  1.00  0.00     0.163 HD
BRANCH   5   8
HETATM    8  C5  UNL     1      -3.361  -3.717  16.576  1.00  0.00     0.070 C 
HETATM    9  C6  UNL     1      -4.455  -3.007  16.373  1.00  0.00    -0.017 C 
BRANCH   9  10
HETATM   10  C7  UNL     1      -4.418  -1.595  15.998  1.00  0.00     0.008 A 
HETATM   11  C8  UNL     1      -3.261  -1.198  15.094  1.00  0.00     0.009 A 
HETATM   12  C9  UNL     1      -3.424  -0.647  16.520  1.00  0.00     0.009 A 
ENDBRANCH   9  10
ENDBRANCH   5   8
ENDBRANCH   3   4
TORSDOF 3
ENDMDL
MODEL 3
REMARK VINA RESULT: -7.037262549      1.579      1.649
REMARK  3 active torsions:
REMARK  status: ('A' for Active; 'I' for Inactive)
REMARK    1  A    between atoms: C3_3  and  N1_4 
REMARK       I    between atoms: N1_4  and  C4_6 
REMARK    2  A    between atoms: C4_6  and  C5_8 
REMARK    3  A    between atoms: C6_9  and  C7_10 
ROOT
HETATM    1  C1  UNL     1      -1.702  -4.346  14.980  1.00  0.00     0.098 C 
HETATM    2  C2  UNL     1      -2.139  -4.524  16.110  1.00  0.00    -0.168 C 
HETATM    3  C3  UNL     1      -2.657  -4.713  17.464  1.00  0.00     0.202 C 
ENDROOT
BRANCH   3   4
HETATM    4  N1  UNL     1      -3.947  -5.344  17.440  1.00  0.00    -0.348 N 
HETATM    5  C4  UNL     1      -4.174  -6.699  17.770  1.00  0.00     0.241 C 
HETATM    6  O1  UNL     1      -3.207  -7.411  18.107  1.00  0.00    -0.269 OA
ATOM      7  H1  UNL     1      -4.751  -4.777  17.168  1.00  0.00     0.163 HD
BRANCH   5   8
HETATM    8  C5  UNL     1      -5.498  -7.265  17.725  1.00  0.00     0.070 C 
HETATM    9  C6  UNL     1      -6.576  -6.583  17.386  1.00  0.00    -0.017 C 
BRANCH   9  10
HETATM   10  C7  UNL     1      -7.907  -7.185  17.349  1.00  0.00     0.008 A 
HETATM   11  C8  UNL     1      -7.941  -8.655  16.959  1.00  0.00     0.009 A 
HETATM   12  C9  UNL     1      -8.592  -7.555  16.103  1.00  0.00     0.009 A 
ENDBRANCH   9  10
ENDBRANCH   5   8
ENDBRANCH   3   4
TORSDOF 3
ENDMDL
MODEL 4
REMARK VINA RESULT: -6.942579912      0.832      1.004
REMARK  3 active torsions:
REMARK  status: ('A' for Active; 'I' for Inactive)
REMARK    1  A    between atoms: C3_3  and  N1_4 
REMARK       I    between atoms: N1_4  and  C4_6 
REMARK    2  A    between atoms: C4_6  and  C5_8 
REMARK    3  A    between atoms: C6_9  and  C7_10 
ROOT
HETATM    1  C1  UNL     1      -3.977  -1.086  15.946  1.00  0.00     0.098 C 
HETATM    2  C2  UNL     1      -3.824  -2.266  16.234  1.00  0.00    -0.168 C 
HETATM    3  C3  UNL     1      -3.632  -3.669  16.600  1.00  0.00     0.202 C 
ENDROOT
BRANCH   3   4
HETATM    4  N1  UNL     1      -4.851  -4.414  16.446  1.00  0.00    -0.348 N 
HETATM    5  C4  UNL     1      -5.188  -5.551  17.215  1.00  0.00     0.241 C 
HETATM    6  O1  UNL     1      -4.390  -5.952  18.087  1.00  0.00    -0.269 OA
ATOM      7  H1  UNL     1      -5.515  -4.102  15.738  1.00  0.00     0.163 HD
BRANCH   5   8
HETATM    8  C5  UNL     1      -6.430  -6.251  17.007  1.00  0.00     0.070 C 
HETATM    9  C6  UNL     1      -6.628  -7.510  17.349  1.00  0.00    -0.017 C 
BRANCH   9  10
HETATM   10  C7  UNL     1      -7.900  -8.194  17.125  1.00  0.00     0.008 A 
HETATM   11  C8  UNL     1      -8.731  -7.652  15.973  1.00  0.00     0.009 A 
HETATM   12  C9  UNL     1      -9.205  -7.594  17.435  1.00  0.00     0.009 A 
ENDBRANCH   9  10
ENDBRANCH   5   8
ENDBRANCH   3   4
TORSDOF 3
ENDMDL
MODEL 5
REMARK VINA RESULT: -6.797727364      1.102      5.428
REMARK  3 active torsions:
REMARK  status: ('A' for Active; 'I' for Inactive)
REMARK    1  A    between atoms: C3_3  and  N1_4 
REMARK       I    between atoms: N1_4  and  C4_6 
REMARK    2  A    between atoms: C4_6  and  C5_8 
REMARK    3  A    between atoms: C6_9  and  C7_10 
ROOT
HETATM    1  C1  UNL     1      -8.516  -7.806  16.293  1.00  0.00     0.098 C 
HETATM    2  C2  UNL     1      -7.470  -7.761  16.927  1.00  0.00    -0.168 C 
HETATM    3  C3  UNL     1      -6.214  -7.727  17.674  1.00  0.00     0.202 C 
ENDROOT
BRANCH   3   4
HETATM    4  N1  UNL     1      -5.536  -6.474  17.490  1.00  0.00    -0.348 N 
HETATM    5  C4  UNL     1      -4.139  -6.302  17.611  1.00  0.00     0.241 C 
HETATM    6  O1  UNL     1      -3.429  -7.289  17.896  1.00  0.00    -0.269 OA
ATOM      7  H1  UNL     1      -6.099  -5.656  17.257  1.00  0.00     0.163 HD
BRANCH   5   8
HETATM    8  C5  UNL     1      -3.526  -5.014  17.412  1.00  0.00     0.070 C 
HETATM    9  C6  UNL     1      -4.037  -4.071  16.643  1.00  0.00    -0.017 C 
BRANCH   9  10
HETATM   10  C7  UNL     1      -3.392  -2.772  16.460  1.00  0.00     0.008 A 
HETATM   11  C8  UNL     1      -4.339  -1.614  16.186  1.00  0.00     0.009 A 
HETATM   12  C9  UNL     1      -3.299  -2.093  15.160  1.00  0.00     0.009 A 
ENDBRANCH   9  10
ENDBRANCH   5   8
ENDBRANCH   3   4
TORSDOF 3
ENDMDL
