MODEL 1
REMARK VINA RESULT: -5.819488000      0.000      0.000
REMARK  2 active torsions:
REMARK  status: ('A' for Active; 'I' for Inactive)
REMARK    1  A    between atoms: C2_2  and  C3_3 
REMARK    2  A    between atoms: C3_3  and  C4_4 
ROOT
HETATM    1  C4  UNL     1      -4.066  -5.418  17.090  1.00  0.00     0.041 C 
HETATM    2  C5  UNL     1      -4.967  -5.529  18.300  1.00  0.00     0.244 C 
HETATM    3  N1  UNL     1      -5.983  -6.094  17.436  1.00  0.00    -0.066 N 
HETATM    4  C6  UNL     1      -5.911  -7.523  17.412  1.00  0.00     0.237 C 
HETATM    5  C7  UNL     1      -7.320  -7.924  17.028  1.00  0.00     0.029 C 
HETATM    6  C8  UNL     1      -8.118  -6.998  17.954  1.00  0.00     0.029 C 
HETATM    7  C9  UNL     1      -7.314  -5.702  17.778  1.00  0.00     0.237 C 
HETATM    8  C10 UNL     1      -5.375  -5.404  16.331  1.00  0.00     0.244 C 
ENDROOT
BRANCH   1   9
HETATM    9  C3  UNL     1      -3.335  -4.093  17.089  1.00  0.00     0.034 C 
BRANCH   9  10
HETATM   10  C2  UNL     1      -3.788  -3.209  15.992  1.00  0.00    -0.036 C 
HETATM   11  C1  UNL     1      -4.068  -1.945  16.251  1.00  0.00     0.007 C 
ENDBRANCH   9  10
ENDBRANCH   1   9
TORSDOF 2
ENDMDL
MODEL 2
REMARK VINA RESULT: -5.813280786      1.298      4.805
REMARK  2 active torsions:
REMARK  status: ('A' for Active; 'I' for Inactive)
REMARK    1  A    between atoms: C2_2  and  C3_3 
REMARK    2  A    between atoms: C3_3  and  C4_4 
ROOT
HETATM    1  C4  UNL     1      -4.715  -5.740  17.692  1.00  0.00     0.041 C 
HETATM    2  C5  UNL     1      -3.407  -5.527  16.962  1.00  0.00     0.244 C 
HETATM    3  N1  UNL     1      -3.996  -4.358  16.342  1.00  0.00    -0.066 N 
HETATM    4  C6  UNL     1      -3.721  -3.173  17.095  1.00  0.00     0.237 C 
HETATM    5  C7  UNL     1      -3.831  -2.080  16.053  1.00  0.00     0.029 C 
HETATM    6  C8  UNL     1      -3.033  -2.724  14.911  1.00  0.00     0.029 C 
HETATM    7  C9  UNL     1      -3.583  -4.154  14.989  1.00  0.00     0.237 C 
HETATM    8  C10 UNL     1      -5.290  -4.952  16.535  1.00  0.00     0.244 C 
ENDROOT
BRANCH   1   9
HETATM    9  C3  UNL     1      -5.093  -7.205  17.692  1.00  0.00     0.034 C 
BRANCH   9  10
HETATM   10  C2  UNL     1      -6.558  -7.402  17.754  1.00  0.00    -0.036 C 
HETATM   11  C1  UNL     1      -7.124  -8.308  16.977  1.00  0.00     0.007 C 
ENDBRANCH   9  10
ENDBRANCH   1   9
TORSDOF 2
ENDMDL
MODEL 3
REMARK VINA RESULT: -5.758267753      1.407      4.814
REMARK  2 active torsions:
REMARK  status: ('A' for Active; 'I' for Inactive)
REMARK    1  A    between atoms: C2_2  and  C3_3 
REMARK    2  A    between atoms: C3_3  and  C4_4 
ROOT
HETATM    1  C4  UNL     1      -4.006  -5.825  17.005  1.00  0.00     0.041 C 
HETATM    2  C5  UNL     1      -4.880  -4.812  16.297  1.00  0.00     0.244 C 
HETATM    3  N1  UNL     1      -3.762  -3.892  16.330  1.00  0.00    -0.066 N 
HETATM    4  C6  UNL     1      -2.976  -3.983  15.138  1.00  0.00     0.237 C 
HETATM    5  C7  UNL     1      -2.315  -2.622  15.067  1.00  0.00     0.029 C 
HETATM    6  C8  UNL     1      -3.521  -1.727  15.381  1.00  0.00     0.029 C 
HETATM    7  C9  UNL     1      -4.144  -2.529  16.531  1.00  0.00     0.237 C 
HETATM    8  C10 UNL     1      -3.264  -4.595  17.480  1.00  0.00     0.244 C 
ENDROOT
BRANCH   1   9
HETATM    9  C3  UNL     1      -4.785  -6.536  18.089  1.00  0.00     0.034 C 
BRANCH   9  10
HETATM   10  C2  UNL     1      -6.232  -6.598  17.785  1.00  0.00    -0.036 C 
HETATM   11  C1  UNL     1      -6.777  -7.754  17.452  1.00  0.00     0.007 C 
ENDBRANCH   9  10
ENDBRANCH   1   9
TORSDOF 2
ENDMDL
MODEL 4
REMARK VINA RESULT: -5.683395930      1.714      2.643
REMARK  2 active torsions:
REMARK  status: ('A' for Active; 'I' for Inactive)
REMARK    1  A    between atoms: C2_2  and  C3_3 
REMARK    2  A    between atoms: C3_3  and  C4_4 
ROOT
HETATM    1  C4  UNL     1      -5.597  -6.578  18.006  1.00  0.00     0.041 C 
HETATM    2  C5  UNL     1      -6.321  -5.904  16.860  1.00  0.00     0.244 C 
HETATM    3  N1  UNL     1      -7.429  -6.808  17.088  1.00  0.00    -0.066 N 
HETATM    4  C6  UNL     1      -8.393  -6.237  17.978  1.00  0.00     0.237 C 
HETATM    5  C7  UNL     1      -9.666  -6.970  17.608  1.00  0.00     0.029 C 
HETATM    6  C8  UNL     1      -9.578  -6.896  16.078  1.00  0.00     0.029 C 
HETATM    7  C9  UNL     1      -8.090  -7.222  15.891  1.00  0.00     0.237 C 
HETATM    8  C10 UNL     1      -6.501  -7.742  17.665  1.00  0.00     0.244 C 
ENDROOT
BRANCH   1   9
HETATM    9  C3  UNL     1      -4.142  -6.801  17.659  1.00  0.00     0.034 C 
BRANCH   9  10
HETATM   10  C2  UNL     1      -3.391  -5.530  17.562  1.00  0.00    -0.036 C 
HETATM   11  C1  UNL     1      -2.590  -5.325  16.533  1.00  0.00     0.007 C 
ENDBRANCH   9  10
ENDBRANCH   1   9
TORSDOF 2
ENDMDL
MODEL 5
REMARK VINA RESULT: -5.589735444      1.257      1.343
REMARK  2 active torsions:
REMARK  status: ('A' for Active; 'I' for Inactive)
REMARK    1  A    between atoms: C2_2  and  C3_3 
REMARK    2  A    between atoms: C3_3  and  C4_4 
ROOT
HETATM    1  C4  UNL     1      -3.976  -5.843  17.276  1.00  0.00     0.041 C 
HETATM    2  C5  UNL     1      -4.894  -5.971  18.473  1.00  0.00     0.244 C 
HETATM    3  N1  UNL     1      -5.996  -6.153  17.551  1.00  0.00    -0.066 N 
HETATM    4  C6  UNL     1      -6.226  -7.539  17.281  1.00  0.00     0.237 C 
HETATM    5  C7  UNL     1      -7.684  -7.565  16.871  1.00  0.00     0.029 C 
HETATM    6  C8  UNL     1      -8.279  -6.666  17.963  1.00  0.00     0.029 C 
HETATM    7  C9  UNL     1      -7.218  -5.557  17.990  1.00  0.00     0.237 C 
HETATM    8  C10 UNL     1      -5.245  -5.425  16.566  1.00  0.00     0.244 C 
ENDROOT
BRANCH   1   9
HETATM    9  C3  UNL     1      -2.984  -4.721  17.483  1.00  0.00     0.034 C 
BRANCH   9  10
HETATM   10  C2  UNL     1      -1.830  -4.822  16.562  1.00  0.00    -0.036 C 
HETATM   11  C1  UNL     1      -1.945  -4.371  15.326  1.00  0.00     0.007 C 
ENDBRANCH   9  10
ENDBRANCH   1   9
TORSDOF 2
ENDMDL
