MODEL 1
REMARK VINA RESULT: -7.263910191      0.000      0.000
REMARK  3 active torsions:
REMARK  status: ('A' for Active; 'I' for Inactive)
REMARK    1  A    between atoms: S1_2  and  N1_4 
REMARK    2  A    between atoms: S1_2  and  C6_11 
REMARK    3  A    between atoms: N1_4  and  C1_6 
ROOT
HETATM    1  N1  UNL     1      -5.563  -5.360  16.735  1.00  0.00    -0.314 N 
ATOM      2  H1  UNL     1      -5.917  -5.024  15.840  1.00  0.00     0.172 HD
ENDROOT
BRANCH   1   3
HETATM    3  S1  UNL     1      -4.001  -5.066  17.367  1.00  0.00     0.231 S 
HETATM    4  O1  UNL     1      -3.071  -6.114  16.816  1.00  0.00    -0.206 OA
HETATM    5  O2  UNL     1      -4.069  -5.228  18.860  1.00  0.00    -0.206 OA
BRANCH   3   6
HETATM    6  C6  UNL     1      -3.390  -3.459  16.935  1.00  0.00     0.129 A 
HETATM    7  C7  UNL     1      -3.306  -3.016  15.543  1.00  0.00     0.023 A 
HETATM    8  C8  UNL     1      -4.482  -2.528  16.378  1.00  0.00     0.023 A 
ENDBRANCH   3   6
ENDBRANCH   1   3
BRANCH   1   9
HETATM    9  C1  UNL     1      -6.295  -6.166  17.686  1.00  0.00     0.092 C 
HETATM   10  C2  UNL     1      -7.760  -5.792  17.704  1.00  0.00     0.026 C 
HETATM   11  C3  UNL     1      -8.351  -6.730  16.662  1.00  0.00     0.002 C 
HETATM   12  C4  UNL     1      -7.677  -8.036  17.024  1.00  0.00     0.002 C 
HETATM   13  C5  UNL     1      -6.242  -7.632  17.372  1.00  0.00     0.026 C 
ENDBRANCH   1   9
TORSDOF 3
ENDMDL
MODEL 2
REMARK VINA RESULT: -7.135046473      1.635      4.756
REMARK  3 active torsions:
REMARK  status: ('A' for Active; 'I' for Inactive)
REMARK    1  A    between atoms: S1_2  and  N1_4 
REMARK    2  A    between atoms: S1_2  and  C6_11 
REMARK    3  A    between atoms: N1_4  and  C1_6 
ROOT
HETATM    1  N1  UNL     1      -3.108  -3.598  17.554  1.00  0.00    -0.314 N 
ATOM      2  H1  UNL     1      -2.630  -2.933  18.162  1.00  0.00     0.172 HD
ENDROOT
BRANCH   1   3
HETATM    3  S1  UNL     1      -3.364  -5.255  17.889  1.00  0.00     0.231 S 
HETATM    4  O1  UNL     1      -2.535  -5.620  19.092  1.00  0.00    -0.206 OA
HETATM    5  O2  UNL     1      -2.867  -6.047  16.712  1.00  0.00    -0.206 OA
BRANCH   3   6
HETATM    6  C6  UNL     1      -5.066  -5.622  18.221  1.00  0.00     0.129 A 
HETATM    7  C7  UNL     1      -6.057  -5.716  17.149  1.00  0.00     0.023 A 
HETATM    8  C8  UNL     1      -5.493  -7.012  17.717  1.00  0.00     0.023 A 
ENDBRANCH   3   6
ENDBRANCH   1   3
BRANCH   1   9
HETATM    9  C1  UNL     1      -3.685  -3.300  16.262  1.00  0.00     0.092 C 
HETATM   10  C2  UNL     1      -4.894  -2.402  16.399  1.00  0.00     0.026 C 
HETATM   11  C3  UNL     1      -4.285  -1.012  16.294  1.00  0.00     0.002 C 
HETATM   12  C4  UNL     1      -3.336  -1.193  15.129  1.00  0.00     0.002 C 
HETATM   13  C5  UNL     1      -2.734  -2.584  15.349  1.00  0.00     0.026 C 
ENDBRANCH   1   9
TORSDOF 3
ENDMDL
MODEL 3
REMARK VINA RESULT: -6.466969354      1.224      1.845
REMARK  3 active torsions:
REMARK  status: ('A' for Active; 'I' for Inactive)
REMARK    1  A    between atoms: S1_2  and  N1_4 
REMARK    2  A    between atoms: S1_2  and  C6_11 
REMARK    3  A    between atoms: N1_4  and  C1_6 
ROOT
HETATM    1  N1  UNL     1      -6.151  -6.765  17.694  1.00  0.00    -0.314 N 
ATOM      2  H1  UNL     1      -6.316  -7.703  18.061  1.00  0.00     0.172 HD
ENDROOT
BRANCH   1   3
HETATM    3  S1  UNL     1      -4.644  -5.957  17.655  1.00  0.00     0.231 S 
HETATM    4  O1  UNL     1      -3.567  -6.991  17.462  1.00  0.00    -0.206 OA
HETATM    5  O2  UNL     1      -4.437  -5.299  18.991  1.00  0.00    -0.206 OA
BRANCH   3   6
HETATM    6  C6  UNL     1      -4.551  -4.766  16.345  1.00  0.00     0.129 A 
HETATM    7  C7  UNL     1      -4.400  -3.336  16.614  1.00  0.00     0.023 A 
HETATM    8  C8  UNL     1      -3.159  -4.122  16.214  1.00  0.00     0.023 A 
ENDBRANCH   3   6
ENDBRANCH   1   3
BRANCH   1   9
HETATM    9  C1  UNL     1      -7.151  -5.892  17.121  1.00  0.00     0.092 C 
HETATM   10  C2  UNL     1      -8.160  -6.678  16.313  1.00  0.00     0.026 C 
HETATM   11  C3  UNL     1      -9.230  -6.998  17.346  1.00  0.00     0.002 C 
HETATM   12  C4  UNL     1      -9.373  -5.664  18.047  1.00  0.00     0.002 C 
HETATM   13  C5  UNL     1      -7.937  -5.144  18.157  1.00  0.00     0.026 C 
ENDBRANCH   1   9
TORSDOF 3
ENDMDL
MODEL 4
REMARK VINA RESULT: -6.425210007      1.531      1.853
REMARK  3 active torsions:
REMARK  status: ('A' for Active; 'I' for Inactive)
REMARK    1  A    between atoms: S1_2  and  N1_4 
REMARK    2  A    between atoms: S1_2  and  C6_11 
REMARK    3  A    between atoms: N1_4  and  C1_6 
ROOT
HETATM    1  N1  UNL     1      -5.204  -4.950  16.587  1.00  0.00    -0.314 N 
ATOM      2  H1  UNL     1      -5.646  -4.778  15.683  1.00  0.00     0.172 HD
ENDROOT
BRANCH   1   3
HETATM    3  S1  UNL     1      -3.676  -4.364  17.082  1.00  0.00     0.231 S 
HETATM    4  O1  UNL     1      -3.434  -4.830  18.493  1.00  0.00    -0.206 OA
HETATM    5  O2  UNL     1      -3.735  -2.862  17.081  1.00  0.00    -0.206 OA
BRANCH   3   6
HETATM    6  C6  UNL     1      -2.362  -4.944  16.043  1.00  0.00     0.129 A 
HETATM    7  C7  UNL     1      -1.575  -4.029  15.214  1.00  0.00     0.023 A 
HETATM    8  C8  UNL     1      -0.970  -4.503  16.529  1.00  0.00     0.023 A 
ENDBRANCH   3   6
ENDBRANCH   1   3
BRANCH   1   9
HETATM    9  C1  UNL     1      -5.764  -5.733  17.666  1.00  0.00     0.092 C 
HETATM   10  C2  UNL     1      -7.237  -5.440  17.844  1.00  0.00     0.026 C 
HETATM   11  C3  UNL     1      -7.889  -6.475  16.940  1.00  0.00     0.002 C 
HETATM   12  C4  UNL     1      -7.096  -7.715  17.290  1.00  0.00     0.002 C 
HETATM   13  C5  UNL     1      -5.658  -7.211  17.432  1.00  0.00     0.026 C 
ENDBRANCH   1   9
TORSDOF 3
ENDMDL
MODEL 5
REMARK VINA RESULT: -6.416467369      2.271      2.738
REMARK  3 active torsions:
REMARK  status: ('A' for Active; 'I' for Inactive)
REMARK    1  A    between atoms: S1_2  and  N1_4 
REMARK    2  A    between atoms: S1_2  and  C6_11 
REMARK    3  A    between atoms: N1_4  and  C1_6 
ROOT
HETATM    1  N1  UNL     1      -4.889  -4.405  15.900  1.00  0.00    -0.314 N 
ATOM      2  H1  UNL     1      -5.512  -4.579  15.111  1.00  0.00     0.172 HD
ENDROOT
BRANCH   1   3
HETATM    3  S1  UNL     1      -3.469  -3.455  15.863  1.00  0.00     0.231 S 
HETATM    4  O1  UNL     1      -3.250  -2.890  17.242  1.00  0.00    -0.206 OA
HETATM    5  O2  UNL     1      -3.701  -2.312  14.914  1.00  0.00    -0.206 OA
BRANCH   3   6
HETATM    6  C6  UNL     1      -2.042  -4.391  15.384  1.00  0.00     0.129 A 
HETATM    7  C7  UNL     1      -0.727  -3.768  15.234  1.00  0.00     0.023 A 
HETATM    8  C8  UNL     1      -1.009  -4.539  16.516  1.00  0.00     0.023 A 
ENDBRANCH   3   6
ENDBRANCH   1   3
BRANCH   1   9
HETATM    9  C1  UNL     1      -5.058  -4.921  17.240  1.00  0.00     0.092 C 
HETATM   10  C2  UNL     1      -6.519  -5.151  17.556  1.00  0.00     0.026 C 
HETATM   11  C3  UNL     1      -6.726  -6.594  17.122  1.00  0.00     0.002 C 
HETATM   12  C4  UNL     1      -5.492  -7.256  17.697  1.00  0.00     0.002 C 
HETATM   13  C5  UNL     1      -4.374  -6.240  17.449  1.00  0.00     0.026 C 
ENDBRANCH   1   9
TORSDOF 3
ENDMDL
