MODEL 1
REMARK VINA RESULT: -6.914967820      0.000      0.000
REMARK  3 active torsions:
REMARK  status: ('A' for Active; 'I' for Inactive)
REMARK    1  A    between atoms: C1_2  and  N1_3 
REMARK    2  A    between atoms: C4_6  and  N2_7 
REMARK       I    between atoms: N2_7  and  C5_9 
REMARK    3  A    between atoms: C5_9  and  C6_11 
ROOT
HETATM    1  N1  UNL     1      -2.792  -4.482  16.672  1.00  0.00    -0.359 N 
HETATM    2  C2  UNL     1      -3.102  -5.718  17.348  1.00  0.00     0.127 C 
HETATM    3  C3  UNL     1      -4.403  -5.764  18.025  1.00  0.00     0.045 C 
HETATM    4  C4  UNL     1      -5.516  -4.980  17.416  1.00  0.00     0.087 C 
HETATM    5  C9  UNL     1      -5.086  -4.150  16.225  1.00  0.00     0.045 C 
HETATM    6  C10 UNL     1      -3.794  -3.462  16.618  1.00  0.00     0.127 C 
ENDROOT
BRANCH   4   7
HETATM    7  N2  UNL     1      -6.607  -5.801  16.970  1.00  0.00    -0.356 N 
HETATM    8  C5  UNL     1      -7.861  -5.734  17.603  1.00  0.00     0.222 C 
HETATM    9  O2  UNL     1      -8.076  -4.946  18.587  1.00  0.00    -0.273 OA
ATOM     10  H2  UNL     1      -6.471  -6.440  16.186  1.00  0.00     0.162 HD
BRANCH   8  11
HETATM   11  C6  UNL     1      -9.035  -6.559  17.190  1.00  0.00     0.078 A 
HETATM   12  C7  UNL     1      -9.072  -7.029  15.783  1.00  0.00     0.015 A 
HETATM   13  C8  UNL     1      -8.728  -8.007  16.909  1.00  0.00     0.015 A 
ENDBRANCH   8  11
ENDBRANCH   4   7
BRANCH   1  14
HETATM   14  C1  UNL     1      -1.534  -4.254  16.066  1.00  0.00     0.350 C 
HETATM   15  O1  UNL     1      -1.486  -3.939  14.860  1.00  0.00    -0.284 OA
ENDBRANCH   1  14
TORSDOF 3
ENDMDL
MODEL 2
REMARK VINA RESULT: -6.516005191      2.212      6.167
REMARK  3 active torsions:
REMARK  status: ('A' for Active; 'I' for Inactive)
REMARK    1  A    between atoms: C1_2  and  N1_3 
REMARK    2  A    between atoms: C4_6  and  N2_7 
REMARK       I    between atoms: N2_7  and  C5_9 
REMARK    3  A    between atoms: C5_9  and  C6_11 
ROOT
HETATM    1  N1  UNL     1      -9.531  -6.805  17.437  1.00  0.00    -0.359 N 
HETATM    2  C2  UNL     1      -9.365  -5.482  17.986  1.00  0.00     0.127 C 
HETATM    3  C3  UNL     1      -8.011  -5.147  18.441  1.00  0.00     0.045 C 
HETATM    4  C4  UNL     1      -6.872  -5.768  17.706  1.00  0.00     0.087 C 
HETATM    5  C9  UNL     1      -7.307  -6.759  16.647  1.00  0.00     0.045 C 
HETATM    6  C10 UNL     1      -8.372  -7.631  17.280  1.00  0.00     0.127 C 
ENDROOT
BRANCH   4   7
HETATM    7  N2  UNL     1      -6.034  -4.805  17.046  1.00  0.00    -0.356 N 
HETATM    8  C5  UNL     1      -4.676  -4.681  17.389  1.00  0.00     0.222 C 
HETATM    9  O2  UNL     1      -4.140  -5.414  18.290  1.00  0.00    -0.273 OA
ATOM     10  H2  UNL     1      -6.429  -4.205  16.321  1.00  0.00     0.162 HD
BRANCH   8  11
HETATM   11  C6  UNL     1      -3.752  -3.702  16.744  1.00  0.00     0.078 A 
HETATM   12  C7  UNL     1      -3.875  -3.520  15.276  1.00  0.00     0.015 A 
HETATM   13  C8  UNL     1      -4.410  -2.449  16.228  1.00  0.00     0.015 A 
ENDBRANCH   8  11
ENDBRANCH   4   7
BRANCH   1  14
HETATM   14  C1  UNL     1     -10.798  -7.305  17.054  1.00  0.00     0.350 C 
HETATM   15  O1  UNL     1     -11.390  -8.106  17.806  1.00  0.00    -0.284 OA
ENDBRANCH   1  14
TORSDOF 3
ENDMDL
MODEL 3
REMARK VINA RESULT: -6.212717332      1.704      2.265
REMARK  3 active torsions:
REMARK  status: ('A' for Active; 'I' for Inactive)
REMARK    1  A    between atoms: C1_2  and  N1_3 
REMARK    2  A    between atoms: C4_6  and  N2_7 
REMARK       I    between atoms: N2_7  and  C5_9 
REMARK    3  A    between atoms: C5_9  and  C6_11 
ROOT
HETATM    1  N1  UNL     1      -3.181  -4.688  17.327  1.00  0.00    -0.359 N 
HETATM    2  C2  UNL     1      -4.137  -3.717  16.855  1.00  0.00     0.127 C 
HETATM    3  C3  UNL     1      -5.431  -4.257  16.421  1.00  0.00     0.045 C 
HETATM    4  C4  UNL     1      -5.930  -5.474  17.123  1.00  0.00     0.087 C 
HETATM    5  C9  UNL     1      -4.944  -6.040  18.122  1.00  0.00     0.045 C 
HETATM    6  C10 UNL     1      -3.592  -6.054  17.440  1.00  0.00     0.127 C 
ENDROOT
BRANCH   4   7
HETATM    7  N2  UNL     1      -7.156  -5.251  17.838  1.00  0.00    -0.356 N 
HETATM    8  C5  UNL     1      -8.348  -5.874  17.429  1.00  0.00     0.222 C 
HETATM    9  O2  UNL     1      -8.386  -6.656  16.417  1.00  0.00    -0.273 OA
ATOM     10  H2  UNL     1      -7.162  -4.634  18.650  1.00  0.00     0.162 HD
BRANCH   8  11
HETATM   11  C6  UNL     1      -9.655  -5.685  18.126  1.00  0.00     0.078 A 
HETATM   12  C7  UNL     1     -10.804  -5.236  17.300  1.00  0.00     0.015 A 
HETATM   13  C8  UNL     1     -10.719  -6.691  17.767  1.00  0.00     0.015 A 
ENDBRANCH   8  11
ENDBRANCH   4   7
BRANCH   1  14
HETATM   14  C1  UNL     1      -1.858  -4.328  17.679  1.00  0.00     0.350 C 
HETATM   15  O1  UNL     1      -1.375  -4.753  18.747  1.00  0.00    -0.284 OA
ENDBRANCH   1  14
TORSDOF 3
ENDMDL
MODEL 4
REMARK VINA RESULT: -6.139934322      1.381      1.647
REMARK  3 active torsions:
REMARK  status: ('A' for Active; 'I' for Inactive)
REMARK    1  A    between atoms: C1_2  and  N1_3 
REMARK    2  A    between atoms: C4_6  and  N2_7 
REMARK       I    between atoms: N2_7  and  C5_9 
REMARK    3  A    between atoms: C5_9  and  C6_11 
ROOT
HETATM    1  N1  UNL     1      -1.718  -3.836  15.791  1.00  0.00    -0.359 N 
HETATM    2  C2  UNL     1      -1.592  -4.689  16.947  1.00  0.00     0.127 C 
HETATM    3  C3  UNL     1      -2.780  -4.780  17.804  1.00  0.00     0.045 C 
HETATM    4  C4  UNL     1      -4.109  -4.664  17.139  1.00  0.00     0.087 C 
HETATM    5  C9  UNL     1      -4.018  -4.351  15.661  1.00  0.00     0.045 C 
HETATM    6  C10 UNL     1      -2.992  -3.246  15.512  1.00  0.00     0.127 C 
ENDROOT
BRANCH   4   7
HETATM    7  N2  UNL     1      -4.906  -5.854  17.258  1.00  0.00    -0.356 N 
HETATM    8  C5  UNL     1      -6.298  -5.770  17.436  1.00  0.00     0.222 C 
HETATM    9  O2  UNL     1      -6.902  -4.644  17.498  1.00  0.00    -0.273 OA
ATOM     10  H2  UNL     1      -4.456  -6.768  17.212  1.00  0.00     0.162 HD
BRANCH   8  11
HETATM   11  C6  UNL     1      -7.183  -6.965  17.567  1.00  0.00     0.078 A 
HETATM   12  C7  UNL     1      -8.648  -6.732  17.509  1.00  0.00     0.015 A 
HETATM   13  C8  UNL     1      -7.923  -7.350  16.311  1.00  0.00     0.015 A 
ENDBRANCH   8  11
ENDBRANCH   4   7
BRANCH   1  14
HETATM   14  C1  UNL     1      -0.625  -3.569  14.933  1.00  0.00     0.350 C 
HETATM   15  O1  UNL     1      -0.325  -2.385  14.678  1.00  0.00    -0.284 OA
ENDBRANCH   1  14
TORSDOF 3
ENDMDL
MODEL 5
REMARK VINA RESULT: -6.095539819      2.035      2.686
REMARK  3 active torsions:
REMARK  status: ('A' for Active; 'I' for Inactive)
REMARK    1  A    between atoms: C1_2  and  N1_3 
REMARK    2  A    between atoms: C4_6  and  N2_7 
REMARK       I    between atoms: N2_7  and  C5_9 
REMARK    3  A    between atoms: C5_9  and  C6_11 
ROOT
HETATM    1  N1  UNL     1      -4.510  -5.984  18.008  1.00  0.00    -0.359 N 
HETATM    2  C2  UNL     1      -4.855  -7.225  17.360  1.00  0.00     0.127 C 
HETATM    3  C3  UNL     1      -6.267  -7.616  17.444  1.00  0.00     0.045 C 
HETATM    4  C4  UNL     1      -7.277  -6.519  17.479  1.00  0.00     0.087 C 
HETATM    5  C9  UNL     1      -6.662  -5.137  17.535  1.00  0.00     0.045 C 
HETATM    6  C10 UNL     1      -5.560  -5.192  18.574  1.00  0.00     0.127 C 
ENDROOT
BRANCH   4   7
HETATM    7  N2  UNL     1      -8.161  -6.528  16.347  1.00  0.00    -0.356 N 
HETATM    8  C5  UNL     1      -9.478  -7.005  16.469  1.00  0.00     0.222 C 
HETATM    9  O2  UNL     1      -9.935  -7.442  17.581  1.00  0.00    -0.273 OA
ATOM     10  H2  UNL     1      -7.829  -6.186  15.445  1.00  0.00     0.162 HD
BRANCH   8  11
HETATM   11  C6  UNL     1     -10.447  -7.043  15.334  1.00  0.00     0.078 A 
HETATM   12  C7  UNL     1     -11.047  -5.753  14.912  1.00  0.00     0.015 A 
HETATM   13  C8  UNL     1      -9.958  -6.407  14.058  1.00  0.00     0.015 A 
ENDBRANCH   8  11
ENDBRANCH   4   7
BRANCH   1  14
HETATM   14  C1  UNL     1      -3.172  -5.532  18.099  1.00  0.00     0.350 C 
HETATM   15  O1  UNL     1      -2.435  -5.604  17.096  1.00  0.00    -0.284 OA
ENDBRANCH   1  14
TORSDOF 3
ENDMDL
