MODEL 1
REMARK VINA RESULT: -9.632450013      0.000      0.000
REMARK  12 active torsions:
REMARK  status: ('A' for Active; 'I' for Inactive)
REMARK    1  A    between atoms: C3_5  and  N2_6 
REMARK    2  A    between atoms: C4_11  and  N4_12 
REMARK    3  A    between atoms: C5_15  and  N5_16 
REMARK    4  A    between atoms: C7_18  and  C8_19 
REMARK    5  A    between atoms: C9_22  and  C10_23 
REMARK    6  A    between atoms: N8_27  and  C12_28 
REMARK    7  A    between atoms: C12_28  and  C13_29 
REMARK    8  A    between atoms: C13_29  and  O2_30 
REMARK    9  A    between atoms: C13_29  and  N9_32 
REMARK   10  A    between atoms: N9_32  and  C14_34 
REMARK   11  A    between atoms: C15_37  and  N11_38 
REMARK   12  A    between atoms: C18_43  and  N13_44 
ROOT
HETATM    1  C8  UNL     1       4.248 -22.725 -28.098  1.00  0.00     0.138 A 
HETATM    2  N6  UNL     1       4.125 -21.729 -27.173  1.00  0.00    -0.335 N 
ATOM      3  H6  UNL     1       3.261 -21.220 -26.986  1.00  0.00     0.168 HD
HETATM    4  C9  UNL     1       5.290 -21.506 -26.543  1.00  0.00     0.115 A 
HETATM    5  C11 UNL     1       6.161 -22.409 -27.112  1.00  0.00     0.128 A 
HETATM    6  N8  UNL     1       5.520 -23.144 -28.056  1.00  0.00    -0.331 N 
ENDROOT
BRANCH   1   7
HETATM    7  C7  UNL     1       3.123 -23.212 -28.918  1.00  0.00     0.107 A 
HETATM    8  C6  UNL     1       2.382 -22.394 -29.775  1.00  0.00     0.149 A 
HETATM    9  N5  UNL     1       1.425 -23.123 -30.368  1.00  0.00    -0.243 N 
HETATM   10  N15 UNL     1       1.556 -24.353 -29.904  1.00  0.00    -0.015 NA
HETATM   11  N14 UNL     1       2.561 -24.397 -29.048  1.00  0.00    -0.279 N 
ATOM     12  H14 UNL     1       2.862 -25.237 -28.554  1.00  0.00     0.184 HD
BRANCH   9  13
HETATM   13  C5  UNL     1       0.503 -22.587 -31.285  1.00  0.00     0.120 A 
HETATM   14  C2  UNL     1      -0.377 -21.591 -30.940  1.00  0.00     0.054 A 
HETATM   15  C1  UNL     1      -0.393 -21.045 -29.571  1.00  0.00     0.071 C 
HETATM   16  N1  UNL     1      -1.262 -21.084 -31.850  1.00  0.00    -0.194 N 
HETATM   17  C3  UNL     1      -1.261 -21.573 -33.096  1.00  0.00     0.677 A 
ATOM     18  H1  UNL     1      -1.912 -20.344 -31.584  1.00  0.00     0.184 HD
HETATM   19  N3  UNL     1      -0.420 -22.546 -33.480  1.00  0.00    -0.175 N 
HETATM   20  C4  UNL     1       0.471 -23.060 -32.572  1.00  0.00     0.145 A 
ATOM     21  H3  UNL     1      -0.444 -22.899 -34.437  1.00  0.00     0.186 HD
BRANCH  17  22
HETATM   22  N2  UNL     1      -2.098 -21.088 -33.960  1.00  0.00    -0.234 N 
ATOM     23  H22 UNL     1      -1.809 -20.297 -34.537  1.00  0.00     0.174 HD
ATOM     24  H21 UNL     1      -3.025 -21.507 -34.038  1.00  0.00     0.174 HD
ENDBRANCH  17  22
BRANCH  20  25
HETATM   25  N4  UNL     1       1.252 -23.994 -32.998  1.00  0.00    -0.383 N 
ATOM     26  H42 UNL     1       1.602 -24.032 -33.955  1.00  0.00     0.157 HD
ATOM     27  H41 UNL     1       1.515 -24.710 -32.322  1.00  0.00     0.157 HD
ENDBRANCH  20  25
ENDBRANCH   9  13
ENDBRANCH   1   7
BRANCH   6  28
HETATM   28  C12 UNL     1       6.179 -24.153 -28.874  1.00  0.00     0.214 C 
BRANCH  28  29
HETATM   29  C13 UNL     1       7.576 -23.797 -29.172  1.00  0.00     0.135 C 
BRANCH  29  30
HETATM   30  O2  UNL     1       7.691 -22.882 -30.103  1.00  0.00    -0.348 OA
ATOM     31  H2  UNL     1       8.352 -22.228 -29.907  1.00  0.00     0.219 HD
ENDBRANCH  29  30
BRANCH  29  32
HETATM   32  N9  UNL     1       8.776 -24.242 -28.665  1.00  0.00    -0.322 N 
ATOM     33  H9  UNL     1       9.308 -24.803 -29.329  1.00  0.00     0.169 HD
BRANCH  32  34
HETATM   34  C14 UNL     1       9.425 -24.088 -27.425  1.00  0.00     0.174 A 
HETATM   35  N10 UNL     1       9.962 -23.006 -26.882  1.00  0.00    -0.172 N 
HETATM   36  C15 UNL     1      10.509 -23.258 -25.665  1.00  0.00     0.683 A 
ATOM     37  H10 UNL     1       9.965 -22.089 -27.328  1.00  0.00     0.186 HD
HETATM   38  N12 UNL     1      10.310 -24.537 -25.439  1.00  0.00    -0.167 N 
HETATM   39  C18 UNL     1       9.654 -25.095 -26.475  1.00  0.00     0.233 A 
ATOM     40  H12 UNL     1      10.609 -25.035 -24.600  1.00  0.00     0.186 HD
BRANCH  36  41
HETATM   41  N11 UNL     1      11.150 -22.301 -24.824  1.00  0.00    -0.226 N 
HETATM   42  C16 UNL     1      10.798 -22.199 -23.419  1.00  0.00     0.168 C 
HETATM   43  C17 UNL     1      12.163 -21.403 -25.331  1.00  0.00     0.168 C 
ENDBRANCH  36  41
BRANCH  39  44
HETATM   44  N13 UNL     1       9.282 -26.453 -26.562  1.00  0.00    -0.093 N 
HETATM   45  O3  UNL     1       9.974 -27.377 -26.156  1.00  0.00    -0.530 OA
HETATM   46  O4  UNL     1       8.079 -26.766 -27.153  1.00  0.00    -0.530 OA
ENDBRANCH  39  44
ENDBRANCH  32  34
ENDBRANCH  29  32
ENDBRANCH  28  29
ENDBRANCH   6  28
BRANCH   4  47
HETATM   47  C10 UNL     1       5.597 -20.537 -25.508  1.00  0.00     0.282 C 
HETATM   48  N7  UNL     1       6.925 -20.410 -25.057  1.00  0.00    -0.056 NA
HETATM   49  O1  UNL     1       4.700 -19.831 -25.026  1.00  0.00    -0.269 OA
ENDBRANCH   4  47
TORSDOF 12
ENDMDL
MODEL 2
REMARK VINA RESULT: -9.542908029      3.310     10.619
REMARK  12 active torsions:
REMARK  status: ('A' for Active; 'I' for Inactive)
REMARK    1  A    between atoms: C3_5  and  N2_6 
REMARK    2  A    between atoms: C4_11  and  N4_12 
REMARK    3  A    between atoms: C5_15  and  N5_16 
REMARK    4  A    between atoms: C7_18  and  C8_19 
REMARK    5  A    between atoms: C9_22  and  C10_23 
REMARK    6  A    between atoms: N8_27  and  C12_28 
REMARK    7  A    between atoms: C12_28  and  C13_29 
REMARK    8  A    between atoms: C13_29  and  O2_30 
REMARK    9  A    between atoms: C13_29  and  N9_32 
REMARK   10  A    between atoms: N9_32  and  C14_34 
REMARK   11  A    between atoms: C15_37  and  N11_38 
REMARK   12  A    between atoms: C18_43  and  N13_44 
ROOT
HETATM    1  C8  UNL     1       4.910 -23.432 -29.884  1.00  0.00     0.138 A 
HETATM    2  N6  UNL     1       4.852 -24.155 -31.040  1.00  0.00    -0.335 N 
ATOM      3  H6  UNL     1       5.354 -25.028 -31.199  1.00  0.00     0.168 HD
HETATM    4  C9  UNL     1       4.048 -23.567 -31.940  1.00  0.00     0.115 A 
HETATM    5  C11 UNL     1       3.597 -22.432 -31.301  1.00  0.00     0.128 A 
HETATM    6  N8  UNL     1       4.126 -22.358 -30.053  1.00  0.00    -0.331 N 
ENDROOT
BRANCH   1   7
HETATM    7  C7  UNL     1       5.687 -23.853 -28.703  1.00  0.00     0.107 A 
HETATM    8  C6  UNL     1       6.962 -24.418 -28.780  1.00  0.00     0.149 A 
HETATM    9  N5  UNL     1       7.398 -24.704 -27.545  1.00  0.00    -0.243 N 
HETATM   10  N15 UNL     1       6.435 -24.333 -26.719  1.00  0.00    -0.015 NA
HETATM   11  N14 UNL     1       5.429 -23.832 -27.411  1.00  0.00    -0.279 N 
ATOM     12  H14 UNL     1       4.566 -23.476 -27.000  1.00  0.00     0.184 HD
BRANCH   9  13
HETATM   13  C5  UNL     1       8.648 -25.293 -27.283  1.00  0.00     0.120 A 
HETATM   14  C2  UNL     1       8.903 -26.616 -27.544  1.00  0.00     0.054 A 
HETATM   15  C1  UNL     1       7.855 -27.484 -28.111  1.00  0.00     0.071 C 
HETATM   16  N1  UNL     1      10.128 -27.164 -27.285  1.00  0.00    -0.194 N 
HETATM   17  C3  UNL     1      11.088 -26.389 -26.767  1.00  0.00     0.677 A 
ATOM     18  H1  UNL     1      10.307 -28.149 -27.483  1.00  0.00     0.184 HD
HETATM   19  N3  UNL     1      10.887 -25.091 -26.494  1.00  0.00    -0.175 N 
HETATM   20  C4  UNL     1       9.659 -24.532 -26.752  1.00  0.00     0.145 A 
ATOM     21  H3  UNL     1      11.638 -24.525 -26.099  1.00  0.00     0.186 HD
BRANCH  17  22
HETATM   22  N2  UNL     1      12.251 -26.909 -26.525  1.00  0.00    -0.234 N 
ATOM     23  H22 UNL     1      12.943 -26.358 -26.017  1.00  0.00     0.174 HD
ATOM     24  H21 UNL     1      12.445 -27.855 -26.853  1.00  0.00     0.174 HD
ENDBRANCH  17  22
BRANCH  20  25
HETATM   25  N4  UNL     1       9.525 -23.282 -26.468  1.00  0.00    -0.383 N 
ATOM     26  H42 UNL     1       9.001 -22.949 -25.659  1.00  0.00     0.157 HD
ATOM     27  H41 UNL     1       9.977 -22.621 -27.099  1.00  0.00     0.157 HD
ENDBRANCH  20  25
ENDBRANCH   9  13
ENDBRANCH   1   7
BRANCH   6  28
HETATM   28  C12 UNL     1       3.882 -21.250 -29.141  1.00  0.00     0.214 C 
BRANCH  28  29
HETATM   29  C13 UNL     1       2.618 -20.556 -29.438  1.00  0.00     0.135 C 
BRANCH  29  30
HETATM   30  O2  UNL     1       2.788 -19.327 -29.859  1.00  0.00    -0.348 OA
ATOM     31  H2  UNL     1       2.710 -19.239 -30.801  1.00  0.00     0.219 HD
ENDBRANCH  29  30
BRANCH  29  32
HETATM   32  N9  UNL     1       1.302 -20.950 -29.355  1.00  0.00    -0.322 N 
ATOM     33  H9  UNL     1       1.165 -21.766 -28.759  1.00  0.00     0.169 HD
BRANCH  32  34
HETATM   34  C14 UNL     1       0.104 -20.468 -29.917  1.00  0.00     0.174 A 
HETATM   35  N10 UNL     1      -0.452 -20.748 -31.087  1.00  0.00    -0.172 N 
HETATM   36  C15 UNL     1      -1.614 -20.073 -31.279  1.00  0.00     0.683 A 
ATOM     37  H10 UNL     1      -0.052 -21.397 -31.765  1.00  0.00     0.186 HD
HETATM   38  N12 UNL     1      -1.791 -19.346 -30.199  1.00  0.00    -0.167 N 
HETATM   39  C18 UNL     1      -0.777 -19.546 -29.334  1.00  0.00     0.233 A 
ATOM     40  H12 UNL     1      -2.581 -18.721 -30.039  1.00  0.00     0.186 HD
BRANCH  36  41
HETATM   41  N11 UNL     1      -2.453 -20.168 -32.427  1.00  0.00    -0.226 N 
HETATM   42  C16 UNL     1      -3.553 -19.240 -32.617  1.00  0.00     0.168 C 
HETATM   43  C17 UNL     1      -2.246 -21.181 -33.438  1.00  0.00     0.168 C 
ENDBRANCH  36  41
BRANCH  39  44
HETATM   44  N13 UNL     1      -0.649 -18.920 -28.076  1.00  0.00    -0.093 N 
HETATM   45  O3  UNL     1      -1.565 -18.813 -27.272  1.00  0.00    -0.530 OA
HETATM   46  O4  UNL     1       0.570 -18.382 -27.733  1.00  0.00    -0.530 OA
ENDBRANCH  39  44
ENDBRANCH  32  34
ENDBRANCH  29  32
ENDBRANCH  28  29
ENDBRANCH   6  28
BRANCH   4  47
HETATM   47  C10 UNL     1       3.720 -23.993 -33.287  1.00  0.00     0.282 C 
HETATM   48  N7  UNL     1       3.186 -23.057 -34.194  1.00  0.00    -0.056 NA
HETATM   49  O1  UNL     1       3.905 -25.168 -33.634  1.00  0.00    -0.269 OA
ENDBRANCH   4  47
TORSDOF 12
ENDMDL
MODEL 3
REMARK VINA RESULT: -9.533136767      3.292     10.574
REMARK  12 active torsions:
REMARK  status: ('A' for Active; 'I' for Inactive)
REMARK    1  A    between atoms: C3_5  and  N2_6 
REMARK    2  A    between atoms: C4_11  and  N4_12 
REMARK    3  A    between atoms: C5_15  and  N5_16 
REMARK    4  A    between atoms: C7_18  and  C8_19 
REMARK    5  A    between atoms: C9_22  and  C10_23 
REMARK    6  A    between atoms: N8_27  and  C12_28 
REMARK    7  A    between atoms: C12_28  and  C13_29 
REMARK    8  A    between atoms: C13_29  and  O2_30 
REMARK    9  A    between atoms: C13_29  and  N9_32 
REMARK   10  A    between atoms: N9_32  and  C14_34 
REMARK   11  A    between atoms: C15_37  and  N11_38 
REMARK   12  A    between atoms: C18_43  and  N13_44 
ROOT
HETATM    1  C8  UNL     1       4.900 -23.407 -29.870  1.00  0.00     0.138 A 
HETATM    2  N6  UNL     1       4.870 -24.118 -31.033  1.00  0.00    -0.335 N 
ATOM      3  H6  UNL     1       5.391 -24.980 -31.196  1.00  0.00     0.168 HD
HETATM    4  C9  UNL     1       4.064 -23.537 -31.936  1.00  0.00     0.115 A 
HETATM    5  C11 UNL     1       3.582 -22.419 -31.291  1.00  0.00     0.128 A 
HETATM    6  N8  UNL     1       4.097 -22.348 -30.037  1.00  0.00    -0.331 N 
ENDROOT
BRANCH   1   7
HETATM    7  C7  UNL     1       5.673 -23.824 -28.685  1.00  0.00     0.107 A 
HETATM    8  C6  UNL     1       6.957 -24.370 -28.754  1.00  0.00     0.149 A 
HETATM    9  N5  UNL     1       7.386 -24.658 -27.517  1.00  0.00    -0.243 N 
HETATM   10  N15 UNL     1       6.410 -24.308 -26.697  1.00  0.00    -0.015 NA
HETATM   11  N14 UNL     1       5.402 -23.817 -27.395  1.00  0.00    -0.279 N 
ATOM     12  H14 UNL     1       4.531 -23.477 -26.990  1.00  0.00     0.184 HD
BRANCH   9  13
HETATM   13  C5  UNL     1       8.643 -25.229 -27.248  1.00  0.00     0.120 A 
HETATM   14  C2  UNL     1       9.711 -24.480 -26.820  1.00  0.00     0.054 A 
HETATM   15  C1  UNL     1       9.579 -23.023 -26.634  1.00  0.00     0.071 C 
HETATM   16  N1  UNL     1      10.921 -25.059 -26.561  1.00  0.00    -0.194 N 
HETATM   17  C3  UNL     1      11.057 -26.380 -26.730  1.00  0.00     0.677 A 
ATOM     18  H1  UNL     1      11.709 -24.494 -26.244  1.00  0.00     0.184 HD
HETATM   19  N3  UNL     1      10.042 -27.154 -27.145  1.00  0.00    -0.175 N 
HETATM   20  C4  UNL     1       8.823 -26.580 -27.407  1.00  0.00     0.145 A 
ATOM     21  H3  UNL     1      10.176 -28.158 -27.265  1.00  0.00     0.186 HD
BRANCH  17  22
HETATM   22  N2  UNL     1      12.204 -26.930 -26.479  1.00  0.00    -0.234 N 
ATOM     23  H22 UNL     1      12.611 -27.561 -27.168  1.00  0.00     0.174 HD
ATOM     24  H21 UNL     1      12.669 -26.718 -25.595  1.00  0.00     0.174 HD
ENDBRANCH  17  22
BRANCH  20  25
HETATM   25  N4  UNL     1       7.888 -27.372 -27.805  1.00  0.00    -0.383 N 
ATOM     26  H42 UNL     1       7.816 -28.344 -27.504  1.00  0.00     0.157 HD
ATOM     27  H41 UNL     1       7.201 -26.979 -28.448  1.00  0.00     0.157 HD
ENDBRANCH  20  25
ENDBRANCH   9  13
ENDBRANCH   1   7
BRANCH   6  28
HETATM   28  C12 UNL     1       3.820 -21.254 -29.115  1.00  0.00     0.214 C 
BRANCH  28  29
HETATM   29  C13 UNL     1       2.565 -20.558 -29.444  1.00  0.00     0.135 C 
BRANCH  29  30
HETATM   30  O2  UNL     1       2.749 -19.338 -29.885  1.00  0.00    -0.348 OA
ATOM     31  H2  UNL     1       2.152 -18.706 -29.503  1.00  0.00     0.219 HD
ENDBRANCH  29  30
BRANCH  29  32
HETATM   32  N9  UNL     1       1.245 -20.941 -29.372  1.00  0.00    -0.322 N 
ATOM     33  H9  UNL     1       1.106 -21.800 -28.841  1.00  0.00     0.169 HD
BRANCH  32  34
HETATM   34  C14 UNL     1       0.046 -20.401 -29.875  1.00  0.00     0.174 A 
HETATM   35  N10 UNL     1      -0.568 -20.635 -31.025  1.00  0.00    -0.172 N 
HETATM   36  C15 UNL     1      -1.709 -19.911 -31.156  1.00  0.00     0.683 A 
ATOM     37  H10 UNL     1      -0.223 -21.285 -31.731  1.00  0.00     0.186 HD
HETATM   38  N12 UNL     1      -1.812 -19.200 -30.056  1.00  0.00    -0.167 N 
HETATM   39  C18 UNL     1      -0.773 -19.457 -29.238  1.00  0.00     0.233 A 
ATOM     40  H12 UNL     1      -2.569 -18.547 -29.852  1.00  0.00     0.186 HD
BRANCH  36  41
HETATM   41  N11 UNL     1      -2.598 -19.949 -32.270  1.00  0.00    -0.226 N 
HETATM   42  C16 UNL     1      -3.785 -19.114 -32.297  1.00  0.00     0.168 C 
HETATM   43  C17 UNL     1      -2.356 -20.813 -33.404  1.00  0.00     0.168 C 
ENDBRANCH  36  41
BRANCH  39  44
HETATM   44  N13 UNL     1      -0.569 -18.862 -27.974  1.00  0.00    -0.093 N 
HETATM   45  O3  UNL     1      -1.445 -18.741 -27.129  1.00  0.00    -0.530 OA
HETATM   46  O4  UNL     1       0.682 -18.373 -27.675  1.00  0.00    -0.530 OA
ENDBRANCH  39  44
ENDBRANCH  32  34
ENDBRANCH  29  32
ENDBRANCH  28  29
ENDBRANCH   6  28
BRANCH   4  47
HETATM   47  C10 UNL     1       3.758 -23.955 -33.292  1.00  0.00     0.282 C 
HETATM   48  N7  UNL     1       3.158 -23.038 -34.176  1.00  0.00    -0.056 NA
HETATM   49  O1  UNL     1       4.021 -25.108 -33.665  1.00  0.00    -0.269 OA
ENDBRANCH   4  47
TORSDOF 12
ENDMDL
MODEL 4
REMARK VINA RESULT: -9.350160452      2.964      6.117
REMARK  12 active torsions:
REMARK  status: ('A' for Active; 'I' for Inactive)
REMARK    1  A    between atoms: C3_5  and  N2_6 
REMARK    2  A    between atoms: C4_11  and  N4_12 
REMARK    3  A    between atoms: C5_15  and  N5_16 
REMARK    4  A    between atoms: C7_18  and  C8_19 
REMARK    5  A    between atoms: C9_22  and  C10_23 
REMARK    6  A    between atoms: N8_27  and  C12_28 
REMARK    7  A    between atoms: C12_28  and  C13_29 
REMARK    8  A    between atoms: C13_29  and  O2_30 
REMARK    9  A    between atoms: C13_29  and  N9_32 
REMARK   10  A    between atoms: N9_32  and  C14_34 
REMARK   11  A    between atoms: C15_37  and  N11_38 
REMARK   12  A    between atoms: C18_43  and  N13_44 
ROOT
HETATM    1  C8  UNL     1       1.860 -22.754 -33.235  1.00  0.00     0.138 A 
HETATM    2  N6  UNL     1       2.266 -23.221 -34.451  1.00  0.00    -0.335 N 
ATOM      3  H6  UNL     1       1.664 -23.289 -35.272  1.00  0.00     0.168 HD
HETATM    4  C9  UNL     1       3.559 -23.581 -34.425  1.00  0.00     0.115 A 
HETATM    5  C11 UNL     1       3.958 -23.320 -33.133  1.00  0.00     0.128 A 
HETATM    6  N8  UNL     1       2.919 -22.819 -32.417  1.00  0.00    -0.331 N 
ENDROOT
BRANCH   1   7
HETATM    7  C7  UNL     1       0.498 -22.253 -32.973  1.00  0.00     0.107 A 
HETATM    8  C6  UNL     1       0.208 -21.264 -32.030  1.00  0.00     0.149 A 
HETATM    9  N5  UNL     1      -1.114 -21.035 -32.017  1.00  0.00    -0.243 N 
HETATM   10  N15 UNL     1      -1.638 -21.848 -32.918  1.00  0.00    -0.015 NA
HETATM   11  N14 UNL     1      -0.680 -22.563 -33.477  1.00  0.00    -0.279 N 
ATOM     12  H14 UNL     1      -0.831 -23.263 -34.203  1.00  0.00     0.184 HD
BRANCH   9  13
HETATM   13  C5  UNL     1      -1.728 -20.098 -31.167  1.00  0.00     0.120 A 
HETATM   14  C2  UNL     1      -1.378 -19.970 -29.845  1.00  0.00     0.054 A 
HETATM   15  C1  UNL     1      -0.335 -20.830 -29.258  1.00  0.00     0.071 C 
HETATM   16  N1  UNL     1      -1.987 -19.048 -29.040  1.00  0.00    -0.194 N 
HETATM   17  C3  UNL     1      -2.938 -18.263 -29.559  1.00  0.00     0.677 A 
ATOM     18  H1  UNL     1      -1.720 -18.961 -28.059  1.00  0.00     0.184 HD
HETATM   19  N3  UNL     1      -3.314 -18.350 -30.844  1.00  0.00    -0.175 N 
HETATM   20  C4  UNL     1      -2.707 -19.273 -31.659  1.00  0.00     0.145 A 
ATOM     21  H3  UNL     1      -4.042 -17.738 -31.210  1.00  0.00     0.186 HD
BRANCH  17  22
HETATM   22  N2  UNL     1      -3.512 -17.385 -28.794  1.00  0.00    -0.234 N 
ATOM     23  H22 UNL     1      -2.932 -16.716 -28.289  1.00  0.00     0.174 HD
ATOM     24  H21 UNL     1      -4.529 -17.391 -28.716  1.00  0.00     0.174 HD
ENDBRANCH  17  22
BRANCH  20  25
HETATM   25  N4  UNL     1      -3.111 -19.312 -32.883  1.00  0.00    -0.383 N 
ATOM     26  H42 UNL     1      -2.915 -18.573 -33.557  1.00  0.00     0.157 HD
ATOM     27  H41 UNL     1      -3.646 -20.135 -33.159  1.00  0.00     0.157 HD
ENDBRANCH  20  25
ENDBRANCH   9  13
ENDBRANCH   1   7
BRANCH   6  28
HETATM   28  C12 UNL     1       3.004 -22.488 -31.001  1.00  0.00     0.214 C 
BRANCH  28  29
HETATM   29  C13 UNL     1       2.878 -23.679 -30.145  1.00  0.00     0.135 C 
BRANCH  29  30
HETATM   30  O2  UNL     1       1.965 -24.522 -30.562  1.00  0.00    -0.348 OA
ATOM     31  H2  UNL     1       2.061 -25.392 -30.193  1.00  0.00     0.219 HD
ENDBRANCH  29  30
BRANCH  29  32
HETATM   32  N9  UNL     1       3.529 -24.071 -28.998  1.00  0.00    -0.322 N 
ATOM     33  H9  UNL     1       2.932 -24.594 -28.358  1.00  0.00     0.169 HD
BRANCH  32  34
HETATM   34  C14 UNL     1       4.843 -23.905 -28.519  1.00  0.00     0.174 A 
HETATM   35  N10 UNL     1       5.943 -24.577 -28.823  1.00  0.00    -0.172 N 
HETATM   36  C15 UNL     1       7.027 -24.125 -28.143  1.00  0.00     0.683 A 
ATOM     37  H10 UNL     1       5.972 -25.347 -29.492  1.00  0.00     0.186 HD
HETATM   38  N12 UNL     1       6.593 -23.141 -27.388  1.00  0.00    -0.167 N 
HETATM   39  C18 UNL     1       5.271 -22.960 -27.575  1.00  0.00     0.233 A 
ATOM     40  H12 UNL     1       7.173 -22.593 -26.752  1.00  0.00     0.186 HD
BRANCH  36  41
HETATM   41  N11 UNL     1       8.355 -24.630 -28.258  1.00  0.00    -0.226 N 
HETATM   42  C16 UNL     1       8.696 -25.939 -27.730  1.00  0.00     0.168 C 
HETATM   43  C17 UNL     1       9.405 -23.868 -28.898  1.00  0.00     0.168 C 
ENDBRANCH  36  41
BRANCH  39  44
HETATM   44  N13 UNL     1       4.484 -21.989 -26.920  1.00  0.00    -0.093 N 
HETATM   45  O3  UNL     1       3.380 -21.632 -27.308  1.00  0.00    -0.530 OA
HETATM   46  O4  UNL     1       4.989 -21.393 -25.787  1.00  0.00    -0.530 OA
ENDBRANCH  39  44
ENDBRANCH  32  34
ENDBRANCH  29  32
ENDBRANCH  28  29
ENDBRANCH   6  28
BRANCH   4  47
HETATM   47  C10 UNL     1       4.375 -24.132 -35.491  1.00  0.00     0.282 C 
HETATM   48  N7  UNL     1       5.675 -24.587 -35.196  1.00  0.00    -0.056 NA
HETATM   49  O1  UNL     1       3.933 -24.200 -36.646  1.00  0.00    -0.269 OA
ENDBRANCH   4  47
TORSDOF 12
ENDMDL
MODEL 5
REMARK VINA RESULT: -9.275213263      3.244     10.340
REMARK  12 active torsions:
REMARK  status: ('A' for Active; 'I' for Inactive)
REMARK    1  A    between atoms: C3_5  and  N2_6 
REMARK    2  A    between atoms: C4_11  and  N4_12 
REMARK    3  A    between atoms: C5_15  and  N5_16 
REMARK    4  A    between atoms: C7_18  and  C8_19 
REMARK    5  A    between atoms: C9_22  and  C10_23 
REMARK    6  A    between atoms: N8_27  and  C12_28 
REMARK    7  A    between atoms: C12_28  and  C13_29 
REMARK    8  A    between atoms: C13_29  and  O2_30 
REMARK    9  A    between atoms: C13_29  and  N9_32 
REMARK   10  A    between atoms: N9_32  and  C14_34 
REMARK   11  A    between atoms: C15_37  and  N11_38 
REMARK   12  A    between atoms: C18_43  and  N13_44 
ROOT
HETATM    1  C8  UNL     1       4.906 -23.418 -29.892  1.00  0.00     0.138 A 
HETATM    2  N6  UNL     1       4.830 -24.161 -31.034  1.00  0.00    -0.335 N 
ATOM      3  H6  UNL     1       5.314 -25.047 -31.178  1.00  0.00     0.168 HD
HETATM    4  C9  UNL     1       4.035 -23.574 -31.942  1.00  0.00     0.115 A 
HETATM    5  C11 UNL     1       3.608 -22.419 -31.324  1.00  0.00     0.128 A 
HETATM    6  N8  UNL     1       4.143 -22.332 -30.079  1.00  0.00    -0.331 N 
ENDROOT
BRANCH   1   7
HETATM    7  C7  UNL     1       5.678 -23.832 -28.706  1.00  0.00     0.107 A 
HETATM    8  C6  UNL     1       6.966 -24.369 -28.773  1.00  0.00     0.149 A 
HETATM    9  N5  UNL     1       7.394 -24.656 -27.534  1.00  0.00    -0.243 N 
HETATM   10  N15 UNL     1       6.414 -24.313 -26.717  1.00  0.00    -0.015 NA
HETATM   11  N14 UNL     1       5.405 -23.828 -27.417  1.00  0.00    -0.279 N 
ATOM     12  H14 UNL     1       4.530 -23.493 -27.013  1.00  0.00     0.184 HD
BRANCH   9  13
HETATM   13  C5  UNL     1       8.653 -25.220 -27.263  1.00  0.00     0.120 A 
HETATM   14  C2  UNL     1       9.719 -24.462 -26.844  1.00  0.00     0.054 A 
HETATM   15  C1  UNL     1       9.581 -23.005 -26.669  1.00  0.00     0.071 C 
HETATM   16  N1  UNL     1      10.933 -25.035 -26.582  1.00  0.00    -0.194 N 
HETATM   17  C3  UNL     1      11.073 -26.357 -26.740  1.00  0.00     0.677 A 
ATOM     18  H1  UNL     1      11.718 -24.463 -26.271  1.00  0.00     0.184 HD
HETATM   19  N3  UNL     1      10.061 -27.138 -27.146  1.00  0.00    -0.175 N 
HETATM   20  C4  UNL     1       8.839 -26.571 -27.411  1.00  0.00     0.145 A 
ATOM     21  H3  UNL     1      10.198 -28.142 -27.258  1.00  0.00     0.186 HD
BRANCH  17  22
HETATM   22  N2  UNL     1      12.223 -26.899 -26.486  1.00  0.00    -0.234 N 
ATOM     23  H22 UNL     1      12.384 -27.868 -26.761  1.00  0.00     0.174 HD
ATOM     24  H21 UNL     1      12.937 -26.343 -26.015  1.00  0.00     0.174 HD
ENDBRANCH  17  22
BRANCH  20  25
HETATM   25  N4  UNL     1       7.906 -27.371 -27.800  1.00  0.00    -0.383 N 
ATOM     26  H42 UNL     1       7.023 -27.481 -27.302  1.00  0.00     0.157 HD
ATOM     27  H41 UNL     1       8.088 -27.902 -28.651  1.00  0.00     0.157 HD
ENDBRANCH  20  25
ENDBRANCH   9  13
ENDBRANCH   1   7
BRANCH   6  28
HETATM   28  C12 UNL     1       3.925 -21.202 -29.187  1.00  0.00     0.214 C 
BRANCH  28  29
HETATM   29  C13 UNL     1       2.655 -20.512 -29.469  1.00  0.00     0.135 C 
BRANCH  29  30
HETATM   30  O2  UNL     1       2.815 -19.353 -30.059  1.00  0.00    -0.348 OA
ATOM     31  H2  UNL     1       2.560 -19.359 -30.974  1.00  0.00     0.219 HD
ENDBRANCH  29  30
BRANCH  29  32
HETATM   32  N9  UNL     1       1.342 -20.849 -29.230  1.00  0.00    -0.322 N 
ATOM     33  H9  UNL     1       1.213 -21.362 -28.359  1.00  0.00     0.169 HD
BRANCH  32  34
HETATM   34  C14 UNL     1       0.139 -20.638 -29.931  1.00  0.00     0.174 A 
HETATM   35  N10 UNL     1      -0.715 -19.628 -29.856  1.00  0.00    -0.172 N 
HETATM   36  C15 UNL     1      -1.774 -19.786 -30.691  1.00  0.00     0.683 A 
ATOM     37  H10 UNL     1      -0.591 -18.824 -29.240  1.00  0.00     0.186 HD
HETATM   38  N12 UNL     1      -1.578 -20.930 -31.307  1.00  0.00    -0.167 N 
HETATM   39  C18 UNL     1      -0.429 -21.493 -30.886  1.00  0.00     0.233 A 
ATOM     40  H12 UNL     1      -2.206 -21.333 -32.003  1.00  0.00     0.186 HD
BRANCH  36  41
HETATM   41  N11 UNL     1      -2.854 -18.870 -30.851  1.00  0.00    -0.226 N 
HETATM   42  C16 UNL     1      -3.697 -18.920 -32.031  1.00  0.00     0.168 C 
HETATM   43  C17 UNL     1      -3.149 -17.863 -29.855  1.00  0.00     0.168 C 
ENDBRANCH  36  41
BRANCH  39  44
HETATM   44  N13 UNL     1       0.083 -22.728 -31.340  1.00  0.00    -0.093 N 
HETATM   45  O3  UNL     1       0.071 -23.082 -32.511  1.00  0.00    -0.530 OA
HETATM   46  O4  UNL     1       0.613 -23.597 -30.413  1.00  0.00    -0.530 OA
ENDBRANCH  39  44
ENDBRANCH  32  34
ENDBRANCH  29  32
ENDBRANCH  28  29
ENDBRANCH   6  28
BRANCH   4  47
HETATM   47  C10 UNL     1       3.693 -24.019 -33.280  1.00  0.00     0.282 C 
HETATM   48  N7  UNL     1       3.173 -23.090 -34.202  1.00  0.00    -0.056 NA
HETATM   49  O1  UNL     1       3.856 -25.203 -33.607  1.00  0.00    -0.269 OA
ENDBRANCH   4  47
TORSDOF 12
ENDMDL
