MODEL 1
REMARK VINA RESULT: -9.225957800      0.000      0.000
REMARK  11 active torsions:
REMARK  status: ('A' for Active; 'I' for Inactive)
REMARK    1  A    between atoms: N1_1  and  C1_4 
REMARK    2  A    between atoms: C2_7  and  C3_8 
REMARK    3  A    between atoms: C3_8  and  C4_9 
REMARK    4  A    between atoms: C5_14  and  S1_15 
REMARK    5  A    between atoms: S1_15  and  C6_16 
REMARK    6  A    between atoms: C6_16  and  C7_17 
REMARK    7  A    between atoms: C7_17  and  S2_18 
REMARK    8  A    between atoms: S2_18  and  C8_19 
REMARK    9  A    between atoms: C10_25  and  N7_26 
REMARK   10  A    between atoms: N8_34  and  N9_35 
REMARK       I    between atoms: N9_35  and  C13_37 
REMARK   11  A    between atoms: C13_37  and  C14_39 
ROOT
HETATM    1  C4  UNL     1      -0.418 -21.481 -32.870  1.00  0.00     0.127 A 
HETATM    2  N3  UNL     1      -0.627 -22.621 -33.515  1.00  0.00    -0.285 N 
ATOM      3  H3  UNL     1      -1.333 -22.752 -34.239  1.00  0.00     0.188 HD
HETATM    4  N4  UNL     1       0.186 -23.551 -33.105  1.00  0.00    -0.277 N 
ATOM      5  H4  UNL     1       0.225 -24.513 -33.442  1.00  0.00     0.189 HD
HETATM    6  C5  UNL     1       0.985 -22.990 -32.128  1.00  0.00     0.182 A 
HETATM    7  N8  UNL     1       0.607 -21.716 -31.982  1.00  0.00    -0.215 N 
ENDROOT
BRANCH   6   8
HETATM    8  S1  UNL     1       2.269 -23.954 -31.327  1.00  0.00    -0.090 SA
BRANCH   8   9
HETATM    9  C6  UNL     1       3.864 -23.105 -31.521  1.00  0.00     0.093 C 
BRANCH   9  10
HETATM   10  C7  UNL     1       4.762 -23.405 -30.376  1.00  0.00     0.091 C 
BRANCH  10  11
HETATM   11  S2  UNL     1       6.141 -24.447 -30.863  1.00  0.00    -0.105 SA
BRANCH  11  12
HETATM   12  C8  UNL     1       7.412 -24.340 -29.608  1.00  0.00     0.148 A 
HETATM   13  N5  UNL     1       7.494 -25.295 -28.687  1.00  0.00    -0.329 N 
HETATM   14  C9  UNL     1       8.458 -25.217 -27.703  1.00  0.00     0.150 A 
ATOM     15  H5  UNL     1       6.845 -26.082 -28.708  1.00  0.00     0.168 HD
HETATM   16  N6  UNL     1       8.667 -26.069 -26.733  1.00  0.00    -0.320 N 
HETATM   17  C11 UNL     1       9.267 -24.119 -27.778  1.00  0.00     0.168 A 
HETATM   18  C10 UNL     1       9.651 -25.824 -25.874  1.00  0.00     0.146 A 
ATOM     19  H6  UNL     1       8.087 -26.903 -26.637  1.00  0.00     0.169 HD
HETATM   20  S3  UNL     1      10.305 -24.355 -26.439  1.00  0.00    -0.025 SA
HETATM   21  O1  UNL     1       9.156 -23.176 -28.720  1.00  0.00    -0.262 OA
HETATM   22  C12 UNL     1       8.239 -23.238 -29.666  1.00  0.00     0.323 A 
HETATM   23  O2  UNL     1       8.135 -22.352 -30.548  1.00  0.00    -0.257 OA
BRANCH  18  24
HETATM   24  N7  UNL     1      10.043 -26.528 -24.836  1.00  0.00    -0.380 N 
ATOM     25  H72 UNL     1       9.949 -26.287 -23.850  1.00  0.00     0.158 HD
ATOM     26  H71 UNL     1      10.509 -27.436 -24.811  1.00  0.00     0.158 HD
ENDBRANCH  18  24
ENDBRANCH  11  12
ENDBRANCH  10  11
ENDBRANCH   9  10
ENDBRANCH   8   9
ENDBRANCH   6   8
BRANCH   7  27
HETATM   27  N9  UNL     1       1.092 -20.750 -31.144  1.00  0.00    -0.250 N 
HETATM   28  C13 UNL     1       0.882 -20.463 -29.800  1.00  0.00     0.337 C 
HETATM   29  O3  UNL     1       0.145 -21.057 -29.031  1.00  0.00    -0.259 OA
ATOM     30  H9  UNL     1       1.740 -20.108 -31.599  1.00  0.00     0.191 HD
BRANCH  28  31
HETATM   31  C14 UNL     1       1.614 -19.314 -29.199  1.00  0.00     0.271 C 
HETATM   32  O4  UNL     1       2.695 -18.976 -29.704  1.00  0.00    -0.640 OA
HETATM   33  O5  UNL     1       1.118 -18.632 -28.107  1.00  0.00    -0.640 OA
ENDBRANCH  28  31
ENDBRANCH   7  27
BRANCH   1  34
HETATM   34  C3  UNL     1      -1.148 -20.234 -33.081  1.00  0.00     0.158 C 
BRANCH  34  35
HETATM   35  C2  UNL     1      -1.909 -19.871 -31.833  1.00  0.00     0.119 A 
HETATM   36  N2  UNL     1      -2.392 -18.668 -31.470  1.00  0.00    -0.178 N 
HETATM   37  C1  UNL     1      -3.010 -18.767 -30.274  1.00  0.00     0.691 A 
ATOM     38  H2  UNL     1      -2.303 -17.811 -32.016  1.00  0.00     0.185 HD
HETATM   39  N11 UNL     1      -2.906 -20.061 -29.890  1.00  0.00    -0.131 N 
HETATM   40  N10 UNL     1      -2.240 -20.714 -30.843  1.00  0.00    -0.274 N 
ATOM     41  H11 UNL     1      -3.272 -20.464 -29.028  1.00  0.00     0.205 HD
ATOM     42  H10 UNL     1      -2.015 -21.708 -30.822  1.00  0.00     0.189 HD
BRANCH  37  43
HETATM   43  N1  UNL     1      -3.577 -17.791 -29.649  1.00  0.00    -0.233 N 
ATOM     44  H12 UNL     1      -3.953 -16.926 -30.037  1.00  0.00     0.174 HD
ATOM     45  H11 UNL     1      -3.734 -17.751 -28.642  1.00  0.00     0.174 HD
ENDBRANCH  37  43
ENDBRANCH  34  35
ENDBRANCH   1  34
TORSDOF 11
ENDMDL
MODEL 2
REMARK VINA RESULT: -9.180492178      1.653      1.900
REMARK  11 active torsions:
REMARK  status: ('A' for Active; 'I' for Inactive)
REMARK    1  A    between atoms: N1_1  and  C1_4 
REMARK    2  A    between atoms: C2_7  and  C3_8 
REMARK    3  A    between atoms: C3_8  and  C4_9 
REMARK    4  A    between atoms: C5_14  and  S1_15 
REMARK    5  A    between atoms: S1_15  and  C6_16 
REMARK    6  A    between atoms: C6_16  and  C7_17 
REMARK    7  A    between atoms: C7_17  and  S2_18 
REMARK    8  A    between atoms: S2_18  and  C8_19 
REMARK    9  A    between atoms: C10_25  and  N7_26 
REMARK   10  A    between atoms: N8_34  and  N9_35 
REMARK       I    between atoms: N9_35  and  C13_37 
REMARK   11  A    between atoms: C13_37  and  C14_39 
ROOT
HETATM    1  C4  UNL     1      -0.643 -21.370 -32.904  1.00  0.00     0.127 A 
HETATM    2  N3  UNL     1      -0.900 -22.496 -33.558  1.00  0.00    -0.285 N 
ATOM      3  H3  UNL     1      -1.625 -22.596 -34.268  1.00  0.00     0.188 HD
HETATM    4  N4  UNL     1      -0.108 -23.455 -33.176  1.00  0.00    -0.277 N 
ATOM      5  H4  UNL     1      -0.105 -24.413 -33.524  1.00  0.00     0.189 HD
HETATM    6  C5  UNL     1       0.729 -22.931 -32.209  1.00  0.00     0.182 A 
HETATM    7  N8  UNL     1       0.394 -21.648 -32.041  1.00  0.00    -0.215 N 
ENDROOT
BRANCH   6   8
HETATM    8  S1  UNL     1       1.999 -23.943 -31.448  1.00  0.00    -0.090 SA
BRANCH   8   9
HETATM    9  C6  UNL     1       3.627 -23.205 -31.773  1.00  0.00     0.093 C 
BRANCH   9  10
HETATM   10  C7  UNL     1       3.971 -22.209 -30.725  1.00  0.00     0.091 C 
BRANCH  10  11
HETATM   11  S2  UNL     1       3.582 -22.811 -29.079  1.00  0.00    -0.105 SA
BRANCH  11  12
HETATM   12  C8  UNL     1       5.079 -23.447 -28.332  1.00  0.00     0.148 A 
HETATM   13  N5  UNL     1       5.791 -24.359 -28.986  1.00  0.00    -0.329 N 
HETATM   14  C9  UNL     1       6.939 -24.871 -28.415  1.00  0.00     0.150 A 
ATOM     15  H5  UNL     1       5.490 -24.679 -29.906  1.00  0.00     0.168 HD
HETATM   16  N6  UNL     1       7.742 -25.767 -28.926  1.00  0.00    -0.320 N 
HETATM   17  C11 UNL     1       7.240 -24.367 -27.181  1.00  0.00     0.168 A 
HETATM   18  C10 UNL     1       8.807 -26.139 -28.223  1.00  0.00     0.146 A 
ATOM     19  H6  UNL     1       7.557 -26.172 -29.843  1.00  0.00     0.169 HD
HETATM   20  S3  UNL     1       8.679 -25.208 -26.801  1.00  0.00    -0.025 SA
HETATM   21  O1  UNL     1       6.499 -23.448 -26.552  1.00  0.00    -0.262 OA
HETATM   22  C12 UNL     1       5.401 -22.951 -27.086  1.00  0.00     0.323 A 
HETATM   23  O2  UNL     1       4.706 -22.091 -26.494  1.00  0.00    -0.257 OA
BRANCH  18  24
HETATM   24  N7  UNL     1       9.743 -27.009 -28.528  1.00  0.00    -0.380 N 
ATOM     25  H72 UNL     1       9.820 -27.566 -29.379  1.00  0.00     0.158 HD
ATOM     26  H71 UNL     1      10.560 -27.293 -27.988  1.00  0.00     0.158 HD
ENDBRANCH  18  24
ENDBRANCH  11  12
ENDBRANCH  10  11
ENDBRANCH   9  10
ENDBRANCH   8   9
ENDBRANCH   6   8
BRANCH   7  27
HETATM   27  N9  UNL     1       0.925 -20.708 -31.203  1.00  0.00    -0.250 N 
HETATM   28  C13 UNL     1       0.770 -20.445 -29.846  1.00  0.00     0.337 C 
HETATM   29  O3  UNL     1       0.052 -21.043 -29.062  1.00  0.00    -0.259 OA
ATOM     30  H9  UNL     1       1.567 -20.067 -31.668  1.00  0.00     0.191 HD
BRANCH  28  31
HETATM   31  C14 UNL     1       1.543 -19.321 -29.249  1.00  0.00     0.271 C 
HETATM   32  O4  UNL     1       2.617 -18.999 -29.780  1.00  0.00    -0.640 OA
HETATM   33  O5  UNL     1       1.093 -18.645 -28.134  1.00  0.00    -0.640 OA
ENDBRANCH  28  31
ENDBRANCH   7  27
BRANCH   1  34
HETATM   34  C3  UNL     1      -1.338 -20.100 -33.085  1.00  0.00     0.158 C 
BRANCH  34  35
HETATM   35  C2  UNL     1      -2.050 -19.722 -31.812  1.00  0.00     0.119 A 
HETATM   36  N2  UNL     1      -2.476 -18.506 -31.423  1.00  0.00    -0.178 N 
HETATM   37  C1  UNL     1      -3.065 -18.595 -30.211  1.00  0.00     0.691 A 
ATOM     38  H2  UNL     1      -2.369 -17.646 -31.961  1.00  0.00     0.185 HD
HETATM   39  N11 UNL     1      -3.001 -19.896 -29.845  1.00  0.00    -0.131 N 
HETATM   40  N10 UNL     1      -2.387 -20.563 -30.823  1.00  0.00    -0.274 N 
ATOM     41  H11 UNL     1      -3.359 -20.296 -28.978  1.00  0.00     0.205 HD
ATOM     42  H10 UNL     1      -2.201 -21.566 -30.819  1.00  0.00     0.189 HD
BRANCH  37  43
HETATM   43  N1  UNL     1      -3.577 -17.606 -29.561  1.00  0.00    -0.233 N 
ATOM     44  H12 UNL     1      -3.876 -16.700 -29.921  1.00  0.00     0.174 HD
ATOM     45  H11 UNL     1      -3.759 -17.595 -28.557  1.00  0.00     0.174 HD
ENDBRANCH  37  43
ENDBRANCH  34  35
ENDBRANCH   1  34
TORSDOF 11
ENDMDL
MODEL 3
REMARK VINA RESULT: -9.145839409      2.385      3.003
REMARK  11 active torsions:
REMARK  status: ('A' for Active; 'I' for Inactive)
REMARK    1  A    between atoms: N1_1  and  C1_4 
REMARK    2  A    between atoms: C2_7  and  C3_8 
REMARK    3  A    between atoms: C3_8  and  C4_9 
REMARK    4  A    between atoms: C5_14  and  S1_15 
REMARK    5  A    between atoms: S1_15  and  C6_16 
REMARK    6  A    between atoms: C6_16  and  C7_17 
REMARK    7  A    between atoms: C7_17  and  S2_18 
REMARK    8  A    between atoms: S2_18  and  C8_19 
REMARK    9  A    between atoms: C10_25  and  N7_26 
REMARK   10  A    between atoms: N8_34  and  N9_35 
REMARK       I    between atoms: N9_35  and  C13_37 
REMARK   11  A    between atoms: C13_37  and  C14_39 
ROOT
HETATM    1  C4  UNL     1       2.463 -22.175 -33.371  1.00  0.00     0.127 A 
HETATM    2  N3  UNL     1       2.614 -22.493 -34.650  1.00  0.00    -0.285 N 
ATOM      3  H3  UNL     1       2.195 -21.979 -35.424  1.00  0.00     0.188 HD
HETATM    4  N4  UNL     1       3.368 -23.545 -34.789  1.00  0.00    -0.277 N 
ATOM      5  H4  UNL     1       3.633 -23.989 -35.667  1.00  0.00     0.189 HD
HETATM    6  C5  UNL     1       3.741 -23.948 -33.521  1.00  0.00     0.182 A 
HETATM    7  N8  UNL     1       3.179 -23.105 -32.650  1.00  0.00    -0.215 N 
ENDROOT
BRANCH   6   8
HETATM    8  S1  UNL     1       4.819 -25.362 -33.287  1.00  0.00    -0.090 SA
BRANCH   8   9
HETATM    9  C6  UNL     1       6.521 -24.896 -33.719  1.00  0.00     0.093 C 
BRANCH   9  10
HETATM   10  C7  UNL     1       7.393 -24.919 -32.515  1.00  0.00     0.091 C 
BRANCH  10  11
HETATM   11  S2  UNL     1       6.457 -24.651 -31.007  1.00  0.00    -0.105 SA
BRANCH  11  12
HETATM   12  C8  UNL     1       7.603 -24.458 -29.646  1.00  0.00     0.148 A 
HETATM   13  N5  UNL     1       7.698 -25.424 -28.738  1.00  0.00    -0.329 N 
HETATM   14  C9  UNL     1       8.565 -25.282 -27.674  1.00  0.00     0.150 A 
ATOM     15  H5  UNL     1       7.131 -26.267 -28.827  1.00  0.00     0.168 HD
HETATM   16  N6  UNL     1       8.771 -26.134 -26.704  1.00  0.00    -0.320 N 
HETATM   17  C11 UNL     1       9.270 -24.111 -27.661  1.00  0.00     0.168 A 
HETATM   18  C10 UNL     1       9.653 -25.820 -25.760  1.00  0.00     0.146 A 
ATOM     19  H6  UNL     1       8.267 -27.020 -26.672  1.00  0.00     0.169 HD
HETATM   20  S3  UNL     1      10.210 -24.284 -26.243  1.00  0.00    -0.025 SA
HETATM   21  O1  UNL     1       9.149 -23.160 -28.593  1.00  0.00    -0.262 OA
HETATM   22  C12 UNL     1       8.324 -23.283 -29.615  1.00  0.00     0.323 A 
HETATM   23  O2  UNL     1       8.210 -22.389 -30.488  1.00  0.00    -0.257 OA
BRANCH  18  24
HETATM   24  N7  UNL     1      10.022 -26.510 -24.705  1.00  0.00    -0.380 N 
ATOM     25  H72 UNL     1       9.434 -27.084 -24.101  1.00  0.00     0.158 HD
ATOM     26  H71 UNL     1      10.949 -26.607 -24.289  1.00  0.00     0.158 HD
ENDBRANCH  18  24
ENDBRANCH  11  12
ENDBRANCH  10  11
ENDBRANCH   9  10
ENDBRANCH   8   9
ENDBRANCH   6   8
BRANCH   7  27
HETATM   27  N9  UNL     1       3.248 -23.082 -31.284  1.00  0.00    -0.250 N 
HETATM   28  C13 UNL     1       2.449 -23.619 -30.281  1.00  0.00     0.337 C 
HETATM   29  O3  UNL     1       1.423 -24.262 -30.428  1.00  0.00    -0.259 OA
ATOM     30  H9  UNL     1       4.052 -22.565 -30.928  1.00  0.00     0.191 HD
BRANCH  28  31
HETATM   31  C14 UNL     1       2.852 -23.406 -28.864  1.00  0.00     0.271 C 
HETATM   32  O4  UNL     1       2.101 -22.745 -28.131  1.00  0.00    -0.640 OA
HETATM   33  O5  UNL     1       4.029 -23.922 -28.362  1.00  0.00    -0.640 OA
ENDBRANCH  28  31
ENDBRANCH   7  27
BRANCH   1  34
HETATM   34  C3  UNL     1       1.686 -21.052 -32.856  1.00  0.00     0.158 C 
BRANCH  34  35
HETATM   35  C2  UNL     1       0.217 -21.385 -32.900  1.00  0.00     0.119 A 
HETATM   36  N2  UNL     1      -0.780 -20.692 -33.479  1.00  0.00    -0.178 N 
HETATM   37  C1  UNL     1      -1.953 -21.331 -33.286  1.00  0.00     0.691 A 
ATOM     38  H2  UNL     1      -0.667 -19.814 -33.986  1.00  0.00     0.185 HD
HETATM   39  N11 UNL     1      -1.673 -22.446 -32.572  1.00  0.00    -0.131 N 
HETATM   40  N10 UNL     1      -0.359 -22.464 -32.347  1.00  0.00    -0.274 N 
ATOM     41  H11 UNL     1      -2.346 -23.146 -32.261  1.00  0.00     0.205 HD
ATOM     42  H10 UNL     1       0.137 -23.192 -31.832  1.00  0.00     0.189 HD
BRANCH  37  43
HETATM   43  N1  UNL     1      -3.099 -20.924 -33.716  1.00  0.00    -0.233 N 
ATOM     44  H12 UNL     1      -3.403 -19.968 -33.897  1.00  0.00     0.174 HD
ATOM     45  H11 UNL     1      -3.889 -21.529 -33.943  1.00  0.00     0.174 HD
ENDBRANCH  37  43
ENDBRANCH  34  35
ENDBRANCH   1  34
TORSDOF 11
ENDMDL
MODEL 4
REMARK VINA RESULT: -9.116724271      1.384      1.890
REMARK  11 active torsions:
REMARK  status: ('A' for Active; 'I' for Inactive)
REMARK    1  A    between atoms: N1_1  and  C1_4 
REMARK    2  A    between atoms: C2_7  and  C3_8 
REMARK    3  A    between atoms: C3_8  and  C4_9 
REMARK    4  A    between atoms: C5_14  and  S1_15 
REMARK    5  A    between atoms: S1_15  and  C6_16 
REMARK    6  A    between atoms: C6_16  and  C7_17 
REMARK    7  A    between atoms: C7_17  and  S2_18 
REMARK    8  A    between atoms: S2_18  and  C8_19 
REMARK    9  A    between atoms: C10_25  and  N7_26 
REMARK   10  A    between atoms: N8_34  and  N9_35 
REMARK       I    between atoms: N9_35  and  C13_37 
REMARK   11  A    between atoms: C13_37  and  C14_39 
ROOT
HETATM    1  C4  UNL     1      -0.275 -21.262 -29.912  1.00  0.00     0.127 A 
HETATM    2  N3  UNL     1      -0.887 -21.909 -30.895  1.00  0.00    -0.285 N 
ATOM      3  H3  UNL     1      -1.845 -21.728 -31.194  1.00  0.00     0.188 HD
HETATM    4  N4  UNL     1      -0.107 -22.805 -31.428  1.00  0.00    -0.277 N 
ATOM      5  H4  UNL     1      -0.342 -23.432 -32.197  1.00  0.00     0.189 HD
HETATM    6  C5  UNL     1       1.098 -22.745 -30.757  1.00  0.00     0.182 A 
HETATM    7  N8  UNL     1       0.991 -21.798 -29.821  1.00  0.00    -0.215 N 
ENDROOT
BRANCH   6   8
HETATM    8  S1  UNL     1       2.461 -23.814 -31.222  1.00  0.00    -0.090 SA
BRANCH   8   9
HETATM    9  C6  UNL     1       3.949 -22.806 -31.490  1.00  0.00     0.093 C 
BRANCH   9  10
HETATM   10  C7  UNL     1       4.926 -23.008 -30.388  1.00  0.00     0.091 C 
BRANCH  10  11
HETATM   11  S2  UNL     1       6.127 -24.282 -30.785  1.00  0.00    -0.105 SA
BRANCH  11  12
HETATM   12  C8  UNL     1       7.435 -24.238 -29.565  1.00  0.00     0.148 A 
HETATM   13  N5  UNL     1       7.488 -25.189 -28.637  1.00  0.00    -0.329 N 
HETATM   14  C9  UNL     1       8.481 -25.159 -27.679  1.00  0.00     0.150 A 
ATOM     15  H5  UNL     1       6.795 -25.938 -28.634  1.00  0.00     0.168 HD
HETATM   16  N6  UNL     1       8.666 -26.013 -26.707  1.00  0.00    -0.320 N 
HETATM   17  C11 UNL     1       9.348 -24.108 -27.786  1.00  0.00     0.168 A 
HETATM   18  C10 UNL     1       9.686 -25.818 -25.877  1.00  0.00     0.146 A 
ATOM     19  H6  UNL     1       8.043 -26.812 -26.588  1.00  0.00     0.169 HD
HETATM   20  S3  UNL     1      10.406 -24.393 -26.472  1.00  0.00    -0.025 SA
HETATM   21  O1  UNL     1       9.265 -23.168 -28.733  1.00  0.00    -0.262 OA
HETATM   22  C12 UNL     1       8.321 -23.185 -29.654  1.00  0.00     0.323 A 
HETATM   23  O2  UNL     1       8.243 -22.302 -30.541  1.00  0.00    -0.257 OA
BRANCH  18  24
HETATM   24  N7  UNL     1      10.065 -26.535 -24.844  1.00  0.00    -0.380 N 
ATOM     25  H72 UNL     1       9.804 -27.496 -24.624  1.00  0.00     0.158 HD
ATOM     26  H71 UNL     1      10.682 -26.279 -24.072  1.00  0.00     0.158 HD
ENDBRANCH  18  24
ENDBRANCH  11  12
ENDBRANCH  10  11
ENDBRANCH   9  10
ENDBRANCH   8   9
ENDBRANCH   6   8
BRANCH   7  27
HETATM   27  N9  UNL     1       1.909 -21.364 -28.905  1.00  0.00    -0.250 N 
HETATM   28  C13 UNL     1       2.717 -20.235 -28.827  1.00  0.00     0.337 C 
HETATM   29  O3  UNL     1       2.789 -19.329 -29.641  1.00  0.00    -0.259 OA
ATOM     30  H9  UNL     1       2.025 -22.000 -28.116  1.00  0.00     0.191 HD
BRANCH  28  31
HETATM   31  C14 UNL     1       3.604 -20.079 -27.641  1.00  0.00     0.271 C 
HETATM   32  O4  UNL     1       4.479 -20.935 -27.445  1.00  0.00    -0.640 OA
HETATM   33  O5  UNL     1       3.469 -19.016 -26.772  1.00  0.00    -0.640 OA
ENDBRANCH  28  31
ENDBRANCH   7  27
BRANCH   1  34
HETATM   34  C3  UNL     1      -0.853 -20.195 -29.102  1.00  0.00     0.158 C 
BRANCH  34  35
HETATM   35  C2  UNL     1      -1.956 -19.513 -29.868  1.00  0.00     0.119 A 
HETATM   36  N2  UNL     1      -2.293 -19.666 -31.162  1.00  0.00    -0.178 N 
HETATM   37  C1  UNL     1      -3.339 -18.867 -31.459  1.00  0.00     0.691 A 
ATOM     38  H2  UNL     1      -1.827 -20.292 -31.819  1.00  0.00     0.185 HD
HETATM   39  N11 UNL     1      -3.656 -18.205 -30.322  1.00  0.00    -0.131 N 
HETATM   40  N10 UNL     1      -2.812 -18.607 -29.371  1.00  0.00    -0.274 N 
ATOM     41  H11 UNL     1      -4.405 -17.522 -30.212  1.00  0.00     0.205 HD
ATOM     42  H10 UNL     1      -2.817 -18.275 -28.406  1.00  0.00     0.189 HD
BRANCH  37  43
HETATM   43  N1  UNL     1      -3.900 -18.780 -32.618  1.00  0.00    -0.233 N 
ATOM     44  H12 UNL     1      -4.111 -19.530 -33.276  1.00  0.00     0.174 HD
ATOM     45  H11 UNL     1      -4.223 -17.914 -33.050  1.00  0.00     0.174 HD
ENDBRANCH  37  43
ENDBRANCH  34  35
ENDBRANCH   1  34
TORSDOF 11
ENDMDL
MODEL 5
REMARK VINA RESULT: -9.035043315      2.727     10.399
REMARK  11 active torsions:
REMARK  status: ('A' for Active; 'I' for Inactive)
REMARK    1  A    between atoms: N1_1  and  C1_4 
REMARK    2  A    between atoms: C2_7  and  C3_8 
REMARK    3  A    between atoms: C3_8  and  C4_9 
REMARK    4  A    between atoms: C5_14  and  S1_15 
REMARK    5  A    between atoms: S1_15  and  C6_16 
REMARK    6  A    between atoms: C6_16  and  C7_17 
REMARK    7  A    between atoms: C7_17  and  S2_18 
REMARK    8  A    between atoms: S2_18  and  C8_19 
REMARK    9  A    between atoms: C10_25  and  N7_26 
REMARK   10  A    between atoms: N8_34  and  N9_35 
REMARK       I    between atoms: N9_35  and  C13_37 
REMARK   11  A    between atoms: C13_37  and  C14_39 
ROOT
HETATM    1  C4  UNL     1       8.120 -23.927 -29.495  1.00  0.00     0.127 A 
HETATM    2  N3  UNL     1       8.408 -24.700 -30.534  1.00  0.00    -0.285 N 
ATOM      3  H3  UNL     1       9.338 -25.064 -30.740  1.00  0.00     0.188 HD
HETATM    4  N4  UNL     1       7.351 -24.934 -31.256  1.00  0.00    -0.277 N 
ATOM      5  H4  UNL     1       7.310 -25.497 -32.105  1.00  0.00     0.189 HD
HETATM    6  C5  UNL     1       6.295 -24.275 -30.656  1.00  0.00     0.182 A 
HETATM    7  N8  UNL     1       6.773 -23.653 -29.574  1.00  0.00    -0.215 N 
ENDROOT
BRANCH   6   8
HETATM    8  S1  UNL     1       4.641 -24.378 -31.340  1.00  0.00    -0.090 SA
BRANCH   8   9
HETATM    9  C6  UNL     1       3.969 -22.701 -31.539  1.00  0.00     0.093 C 
BRANCH   9  10
HETATM   10  C7  UNL     1       3.210 -22.293 -30.328  1.00  0.00     0.091 C 
BRANCH  10  11
HETATM   11  S2  UNL     1       1.639 -23.154 -30.203  1.00  0.00    -0.105 SA
BRANCH  11  12
HETATM   12  C8  UNL     1       0.319 -21.988 -30.521  1.00  0.00     0.148 A 
HETATM   13  N5  UNL     1      -0.058 -21.158 -29.553  1.00  0.00    -0.329 N 
HETATM   14  C9  UNL     1      -1.085 -20.265 -29.778  1.00  0.00     0.150 A 
ATOM     15  H5  UNL     1       0.412 -21.181 -28.648  1.00  0.00     0.168 HD
HETATM   16  N6  UNL     1      -1.570 -19.390 -28.935  1.00  0.00    -0.320 N 
HETATM   17  C11 UNL     1      -1.636 -20.327 -31.027  1.00  0.00     0.168 A 
HETATM   18  C10 UNL     1      -2.568 -18.608 -29.335  1.00  0.00     0.146 A 
ATOM     19  H6  UNL     1      -1.190 -19.309 -27.992  1.00  0.00     0.169 HD
HETATM   20  S3  UNL     1      -2.839 -19.114 -30.939  1.00  0.00    -0.025 SA
HETATM   21  O1  UNL     1      -1.232 -21.176 -31.977  1.00  0.00    -0.262 OA
HETATM   22  C12 UNL     1      -0.251 -22.035 -31.775  1.00  0.00     0.323 A 
HETATM   23  O2  UNL     1       0.126 -22.833 -32.667  1.00  0.00    -0.257 OA
BRANCH  18  24
HETATM   24  N7  UNL     1      -3.204 -17.669 -28.673  1.00  0.00    -0.380 N 
ATOM     25  H72 UNL     1      -3.006 -17.328 -27.733  1.00  0.00     0.158 HD
ATOM     26  H71 UNL     1      -4.005 -17.107 -28.961  1.00  0.00     0.158 HD
ENDBRANCH  18  24
ENDBRANCH  11  12
ENDBRANCH  10  11
ENDBRANCH   9  10
ENDBRANCH   8   9
ENDBRANCH   6   8
BRANCH   7  27
HETATM   27  N9  UNL     1       6.126 -22.875 -28.655  1.00  0.00    -0.250 N 
HETATM   28  C13 UNL     1       5.807 -23.051 -27.313  1.00  0.00     0.337 C 
HETATM   29  O3  UNL     1       6.048 -24.030 -26.626  1.00  0.00    -0.259 OA
ATOM     30  H9  UNL     1       5.811 -21.980 -29.031  1.00  0.00     0.191 HD
BRANCH  28  31
HETATM   31  C14 UNL     1       5.095 -21.953 -26.603  1.00  0.00     0.271 C 
HETATM   32  O4  UNL     1       5.723 -21.291 -25.763  1.00  0.00    -0.640 OA
HETATM   33  O5  UNL     1       3.770 -21.666 -26.860  1.00  0.00    -0.640 OA
ENDBRANCH  28  31
ENDBRANCH   7  27
BRANCH   1  34
HETATM   34  C3  UNL     1       9.066 -23.472 -28.481  1.00  0.00     0.158 C 
BRANCH  34  35
HETATM   35  C2  UNL     1       9.560 -24.648 -27.679  1.00  0.00     0.119 A 
HETATM   36  N2  UNL     1      10.808 -25.147 -27.609  1.00  0.00    -0.178 N 
HETATM   37  C1  UNL     1      10.828 -26.211 -26.778  1.00  0.00     0.691 A 
ATOM     38  H2  UNL     1      11.616 -24.777 -28.110  1.00  0.00     0.185 HD
HETATM   39  N11 UNL     1       9.564 -26.372 -26.325  1.00  0.00    -0.131 N 
HETATM   40  N10 UNL     1       8.810 -25.420 -26.877  1.00  0.00    -0.274 N 
ATOM     41  H11 UNL     1       9.244 -27.091 -25.677  1.00  0.00     0.205 HD
ATOM     42  H10 UNL     1       7.811 -25.297 -26.713  1.00  0.00     0.189 HD
BRANCH  37  43
HETATM   43  N1  UNL     1      11.874 -26.913 -26.498  1.00  0.00    -0.233 N 
ATOM     44  H12 UNL     1      12.854 -26.672 -26.644  1.00  0.00     0.174 HD
ATOM     45  H11 UNL     1      11.861 -27.841 -26.075  1.00  0.00     0.174 HD
ENDBRANCH  37  43
ENDBRANCH  34  35
ENDBRANCH   1  34
TORSDOF 11
ENDMDL
