MODEL 1
REMARK VINA RESULT: -9.429265534      0.000      0.000
REMARK  10 active torsions:
REMARK  status: ('A' for Active; 'I' for Inactive)
REMARK       I    between atoms: C2_2  and  N1_4 
REMARK    1  A    between atoms: N1_4  and  C3_6 
REMARK    2  A    between atoms: C4_7  and  N2_8 
REMARK    3  A    between atoms: N2_8  and  C5_9 
REMARK    4  A    between atoms: C9_22  and  C10_23 
REMARK    5  A    between atoms: C10_23  and  O5_25 
REMARK    6  A    between atoms: C12_27  and  N6_28 
REMARK       I    between atoms: N6_28  and  C13_30 
REMARK    7  A    between atoms: C13_30  and  C14_32 
REMARK    8  A    between atoms: C15_35  and  N8_36 
REMARK    9  A    between atoms: N8_36  and  C16_38 
REMARK   10  A    between atoms: C18_43  and  N10_44 
ROOT
HETATM    1  C3  UNL     1       1.365 -21.858 -30.329  1.00  0.00     0.132 A 
HETATM    2  C4  UNL     1       0.716 -21.586 -31.481  1.00  0.00     0.271 A 
HETATM    3  O4  UNL     1       1.375 -21.964 -32.590  1.00  0.00    -0.202 OA
HETATM    4  N5  UNL     1       2.477 -22.508 -32.575  1.00  0.00    -0.257 N 
ATOM      5  H5  UNL     1       2.927 -22.758 -33.455  1.00  0.00     0.195 HD
HETATM    6  C9  UNL     1       3.139 -22.795 -31.335  1.00  0.00     0.090 A 
HETATM    7  C12 UNL     1       2.622 -22.502 -30.126  1.00  0.00     0.095 A 
ENDROOT
BRANCH   7   8
HETATM    8  N6  UNL     1       2.888 -22.854 -28.986  1.00  0.00    -0.316 N 
HETATM    9  C13 UNL     1       3.892 -22.720 -28.038  1.00  0.00     0.297 C 
HETATM   10  O6  UNL     1       3.627 -22.141 -26.936  1.00  0.00    -0.263 OA
ATOM     11  H6  UNL     1       2.132 -23.428 -28.614  1.00  0.00     0.169 HD
BRANCH   9  12
HETATM   12  C14 UNL     1       5.306 -23.156 -28.115  1.00  0.00     0.221 A 
HETATM   13  N7  UNL     1       5.901 -23.991 -27.291  1.00  0.00    -0.315 N 
HETATM   14  C15 UNL     1       7.188 -24.141 -27.615  1.00  0.00     0.163 A 
ATOM     15  H7  UNL     1       5.441 -24.460 -26.510  1.00  0.00     0.169 HD
HETATM   16  C18 UNL     1       7.394 -23.361 -28.744  1.00  0.00     0.261 A 
HETATM   17  O9  UNL     1       6.201 -22.802 -28.978  1.00  0.00    -0.263 OA
BRANCH  14  18
HETATM   18  N8  UNL     1       8.171 -24.933 -26.938  1.00  0.00    -0.344 N 
ATOM     19  H8  UNL     1       8.748 -24.517 -26.206  1.00  0.00     0.163 HD
BRANCH  18  20
HETATM   20  C16 UNL     1       8.344 -26.324 -27.295  1.00  0.00     0.311 A 
HETATM   21  C17 UNL     1       8.314 -26.844 -28.676  1.00  0.00     0.289 A 
HETATM   22  N9  UNL     1       9.623 -26.470 -28.109  1.00  0.00    -0.049 N 
ATOM     23  H92 UNL     1      10.387 -25.853 -28.384  1.00  0.00     0.279 HD
ATOM     24  H91 UNL     1      10.521 -26.938 -27.979  1.00  0.00     0.279 HD
ENDBRANCH  18  20
ENDBRANCH  14  18
BRANCH  16  25
HETATM   25  N10 UNL     1       8.528 -23.112 -29.501  1.00  0.00    -0.086 N 
HETATM   26  O7  UNL     1       8.366 -22.350 -30.512  1.00  0.00    -0.530 OA
HETATM   27  O8  UNL     1       9.751 -23.644 -29.268  1.00  0.00    -0.530 OA
ENDBRANCH  16  25
ENDBRANCH   9  12
ENDBRANCH   7   8
BRANCH   1  28
HETATM   28  N1  UNL     1       1.028 -20.891 -29.287  1.00  0.00    -0.321 N 
HETATM   29  C2  UNL     1       1.526 -19.625 -29.310  1.00  0.00     0.218 C 
HETATM   30  C1  UNL     1       1.144 -18.448 -28.395  1.00  0.00     0.117 C 
HETATM   31  O1  UNL     1       2.413 -19.296 -30.174  1.00  0.00    -0.274 OA
ATOM     32  H1  UNL     1       0.407 -21.171 -28.527  1.00  0.00     0.169 HD
ENDBRANCH   1  28
BRANCH   6  33
HETATM   33  C10 UNL     1       4.516 -23.340 -31.539  1.00  0.00     0.168 C 
HETATM   34  C11 UNL     1       4.545 -23.928 -33.047  1.00  0.00     0.046 C 
BRANCH  33  35
HETATM   35  O5  UNL     1       4.618 -24.575 -30.869  1.00  0.00    -0.390 OA
ATOM     36  H5  UNL     1       5.078 -24.441 -30.049  1.00  0.00     0.210 HD
ENDBRANCH  33  35
ENDBRANCH   6  33
BRANCH   2  37
HETATM   37  N2  UNL     1      -0.533 -21.020 -31.725  1.00  0.00    -0.358 NA
BRANCH  37  38
HETATM   38  C5  UNL     1      -1.699 -20.489 -31.977  1.00  0.00     0.191 A 
HETATM   39  C6  UNL     1      -2.239 -19.454 -31.121  1.00  0.00     0.138 A 
HETATM   40  C7  UNL     1      -3.330 -18.775 -31.316  1.00  0.00     0.253 A 
HETATM   41  O2  UNL     1      -3.776 -17.857 -30.536  1.00  0.00    -0.268 OA
HETATM   42  N3  UNL     1      -4.094 -19.042 -32.427  1.00  0.00    -0.275 N 
HETATM   43  C8  UNL     1      -3.654 -19.994 -33.246  1.00  0.00     0.329 A 
ATOM     44  H3  UNL     1      -4.958 -18.534 -32.614  1.00  0.00     0.173 HD
HETATM   45  O3  UNL     1      -4.313 -20.294 -34.291  1.00  0.00    -0.247 OA
HETATM   46  N4  UNL     1      -2.506 -20.721 -33.070  1.00  0.00    -0.283 N 
ATOM     47  H4  UNL     1      -2.247 -21.436 -33.750  1.00  0.00     0.173 HD
ENDBRANCH  37  38
ENDBRANCH   2  37
TORSDOF 10
ENDMDL
MODEL 2
REMARK VINA RESULT: -9.185750826      2.969      3.582
REMARK  10 active torsions:
REMARK  status: ('A' for Active; 'I' for Inactive)
REMARK       I    between atoms: C2_2  and  N1_4 
REMARK    1  A    between atoms: N1_4  and  C3_6 
REMARK    2  A    between atoms: C4_7  and  N2_8 
REMARK    3  A    between atoms: N2_8  and  C5_9 
REMARK    4  A    between atoms: C9_22  and  C10_23 
REMARK    5  A    between atoms: C10_23  and  O5_25 
REMARK    6  A    between atoms: C12_27  and  N6_28 
REMARK       I    between atoms: N6_28  and  C13_30 
REMARK    7  A    between atoms: C13_30  and  C14_32 
REMARK    8  A    between atoms: C15_35  and  N8_36 
REMARK    9  A    between atoms: N8_36  and  C16_38 
REMARK   10  A    between atoms: C18_43  and  N10_44 
ROOT
HETATM    1  C3  UNL     1       1.546 -22.510 -30.933  1.00  0.00     0.132 A 
HETATM    2  C4  UNL     1       0.340 -22.130 -31.403  1.00  0.00     0.271 A 
HETATM    3  O4  UNL     1      -0.077 -22.820 -32.480  1.00  0.00    -0.202 OA
HETATM    4  N5  UNL     1       0.576 -23.718 -33.007  1.00  0.00    -0.257 N 
ATOM      5  H5  UNL     1       0.205 -24.192 -33.831  1.00  0.00     0.195 HD
HETATM    6  C9  UNL     1       1.851 -24.108 -32.480  1.00  0.00     0.090 A 
HETATM    7  C12 UNL     1       2.418 -23.540 -31.398  1.00  0.00     0.095 A 
ENDROOT
BRANCH   7   8
HETATM    8  N6  UNL     1       3.343 -23.858 -30.664  1.00  0.00    -0.316 N 
HETATM    9  C13 UNL     1       4.730 -23.869 -30.644  1.00  0.00     0.297 C 
HETATM   10  O6  UNL     1       5.340 -23.171 -29.771  1.00  0.00    -0.263 OA
ATOM     11  H6  UNL     1       2.979 -24.234 -29.789  1.00  0.00     0.169 HD
BRANCH   9  12
HETATM   12  C14 UNL     1       5.666 -24.593 -31.535  1.00  0.00     0.221 A 
HETATM   13  N7  UNL     1       5.623 -25.877 -31.817  1.00  0.00    -0.315 N 
HETATM   14  C15 UNL     1       6.633 -26.221 -32.619  1.00  0.00     0.163 A 
ATOM     15  H7  UNL     1       4.914 -26.524 -31.468  1.00  0.00     0.169 HD
HETATM   16  C18 UNL     1       7.335 -25.052 -32.877  1.00  0.00     0.261 A 
HETATM   17  O9  UNL     1       6.679 -24.116 -32.182  1.00  0.00    -0.263 OA
BRANCH  14  18
HETATM   18  N8  UNL     1       6.949 -27.528 -33.115  1.00  0.00    -0.344 N 
ATOM     19  H8  UNL     1       6.899 -27.721 -34.115  1.00  0.00     0.163 HD
BRANCH  18  20
HETATM   20  C16 UNL     1       7.338 -28.571 -32.192  1.00  0.00     0.311 A 
HETATM   21  C17 UNL     1       6.395 -29.383 -31.399  1.00  0.00     0.289 A 
HETATM   22  N9  UNL     1       6.821 -29.908 -32.710  1.00  0.00    -0.049 N 
ATOM     23  H92 UNL     1       6.349 -30.229 -33.555  1.00  0.00     0.279 HD
ATOM     24  H91 UNL     1       7.245 -30.773 -33.046  1.00  0.00     0.279 HD
ENDBRANCH  18  20
ENDBRANCH  14  18
BRANCH  16  25
HETATM   25  N10 UNL     1       8.478 -24.805 -33.621  1.00  0.00    -0.086 N 
HETATM   26  O7  UNL     1       9.445 -25.620 -33.442  1.00  0.00    -0.530 OA
HETATM   27  O8  UNL     1       8.645 -23.762 -34.467  1.00  0.00    -0.530 OA
ENDBRANCH  16  25
ENDBRANCH   9  12
ENDBRANCH   7   8
BRANCH   1  28
HETATM   28  N1  UNL     1       2.245 -21.396 -30.297  1.00  0.00    -0.321 N 
HETATM   29  C2  UNL     1       2.477 -21.381 -28.955  1.00  0.00     0.218 C 
HETATM   30  C1  UNL     1       3.334 -20.379 -28.161  1.00  0.00     0.117 C 
HETATM   31  O1  UNL     1       1.964 -22.281 -28.201  1.00  0.00    -0.274 OA
ATOM     32  H1  UNL     1       2.565 -20.614 -30.868  1.00  0.00     0.169 HD
ENDBRANCH   1  28
BRANCH   6  33
HETATM   33  C10 UNL     1       2.533 -25.126 -33.336  1.00  0.00     0.168 C 
HETATM   34  C11 UNL     1       1.413 -25.654 -34.380  1.00  0.00     0.046 C 
BRANCH  33  35
HETATM   35  O5  UNL     1       2.663 -26.322 -32.603  1.00  0.00    -0.390 OA
ATOM     36  H5  UNL     1       3.279 -26.889 -33.050  1.00  0.00     0.210 HD
ENDBRANCH  33  35
ENDBRANCH   6  33
BRANCH   2  37
HETATM   37  N2  UNL     1      -0.571 -21.180 -30.948  1.00  0.00    -0.358 NA
BRANCH  37  38
HETATM   38  C5  UNL     1      -1.426 -20.300 -30.501  1.00  0.00     0.191 A 
HETATM   39  C6  UNL     1      -1.254 -19.701 -29.194  1.00  0.00     0.138 A 
HETATM   40  C7  UNL     1      -1.968 -18.747 -28.677  1.00  0.00     0.253 A 
HETATM   41  O2  UNL     1      -1.782 -18.234 -27.514  1.00  0.00    -0.268 OA
HETATM   42  N3  UNL     1      -3.017 -18.230 -29.399  1.00  0.00    -0.275 N 
HETATM   43  C8  UNL     1      -3.233 -18.750 -30.604  1.00  0.00     0.329 A 
ATOM     44  H3  UNL     1      -3.603 -17.483 -29.027  1.00  0.00     0.173 HD
HETATM   45  O3  UNL     1      -4.188 -18.321 -31.325  1.00  0.00    -0.247 OA
HETATM   46  N4  UNL     1      -2.494 -19.752 -31.178  1.00  0.00    -0.283 N 
ATOM     47  H4  UNL     1      -2.734 -20.092 -32.108  1.00  0.00     0.173 HD
ENDBRANCH  37  38
ENDBRANCH   2  37
TORSDOF 10
ENDMDL
MODEL 3
REMARK VINA RESULT: -9.124070213      3.202      3.979
REMARK  10 active torsions:
REMARK  status: ('A' for Active; 'I' for Inactive)
REMARK       I    between atoms: C2_2  and  N1_4 
REMARK    1  A    between atoms: N1_4  and  C3_6 
REMARK    2  A    between atoms: C4_7  and  N2_8 
REMARK    3  A    between atoms: N2_8  and  C5_9 
REMARK    4  A    between atoms: C9_22  and  C10_23 
REMARK    5  A    between atoms: C10_23  and  O5_25 
REMARK    6  A    between atoms: C12_27  and  N6_28 
REMARK       I    between atoms: N6_28  and  C13_30 
REMARK    7  A    between atoms: C13_30  and  C14_32 
REMARK    8  A    between atoms: C15_35  and  N8_36 
REMARK    9  A    between atoms: N8_36  and  C16_38 
REMARK   10  A    between atoms: C18_43  and  N10_44 
ROOT
HETATM    1  C3  UNL     1       1.532 -22.520 -30.996  1.00  0.00     0.132 A 
HETATM    2  C4  UNL     1       0.313 -22.143 -31.434  1.00  0.00     0.271 A 
HETATM    3  O4  UNL     1      -0.130 -22.835 -32.500  1.00  0.00    -0.202 OA
HETATM    4  N5  UNL     1       0.510 -23.732 -33.043  1.00  0.00    -0.257 N 
ATOM      5  H5  UNL     1       0.119 -24.208 -33.856  1.00  0.00     0.195 HD
HETATM    6  C9  UNL     1       1.799 -24.120 -32.548  1.00  0.00     0.090 A 
HETATM    7  C12 UNL     1       2.393 -23.549 -31.481  1.00  0.00     0.095 A 
ENDROOT
BRANCH   7   8
HETATM    8  N6  UNL     1       3.338 -23.864 -30.772  1.00  0.00    -0.316 N 
HETATM    9  C13 UNL     1       4.723 -23.920 -30.806  1.00  0.00     0.297 C 
HETATM   10  O6  UNL     1       5.390 -23.204 -29.991  1.00  0.00    -0.263 OA
ATOM     11  H6  UNL     1       2.998 -24.190 -29.867  1.00  0.00     0.169 HD
BRANCH   9  12
HETATM   12  C14 UNL     1       5.599 -24.712 -31.701  1.00  0.00     0.221 A 
HETATM   13  N7  UNL     1       5.588 -26.021 -31.827  1.00  0.00    -0.315 N 
HETATM   14  C15 UNL     1       6.528 -26.423 -32.686  1.00  0.00     0.163 A 
ATOM     15  H7  UNL     1       4.947 -26.646 -31.335  1.00  0.00     0.169 HD
HETATM   16  C18 UNL     1       7.146 -25.270 -33.147  1.00  0.00     0.261 A 
HETATM   17  O9  UNL     1       6.519 -24.281 -32.500  1.00  0.00    -0.263 OA
BRANCH  14  18
HETATM   18  N8  UNL     1       6.853 -27.768 -33.057  1.00  0.00    -0.344 N 
ATOM     19  H8  UNL     1       7.627 -28.252 -32.601  1.00  0.00     0.163 HD
BRANCH  18  20
HETATM   20  C16 UNL     1       6.081 -28.438 -34.081  1.00  0.00     0.311 A 
HETATM   21  C17 UNL     1       5.572 -27.789 -35.305  1.00  0.00     0.289 A 
HETATM   22  N9  UNL     1       6.885 -28.456 -35.375  1.00  0.00    -0.049 N 
ATOM     23  H92 UNL     1       7.828 -28.182 -35.651  1.00  0.00     0.279 HD
ATOM     24  H91 UNL     1       7.306 -29.176 -35.962  1.00  0.00     0.279 HD
ENDBRANCH  18  20
ENDBRANCH  14  18
BRANCH  16  25
HETATM   25  N10 UNL     1       8.198 -25.074 -34.029  1.00  0.00    -0.086 N 
HETATM   26  O7  UNL     1       8.654 -23.883 -34.095  1.00  0.00    -0.530 OA
HETATM   27  O8  UNL     1       8.727 -26.027 -34.832  1.00  0.00    -0.530 OA
ENDBRANCH  16  25
ENDBRANCH   9  12
ENDBRANCH   7   8
BRANCH   1  28
HETATM   28  N1  UNL     1       2.244 -21.404 -30.378  1.00  0.00    -0.321 N 
HETATM   29  C2  UNL     1       2.484 -21.373 -29.039  1.00  0.00     0.218 C 
HETATM   30  C1  UNL     1       3.355 -20.368 -28.264  1.00  0.00     0.117 C 
HETATM   31  O1  UNL     1       1.968 -22.258 -28.270  1.00  0.00    -0.274 OA
ATOM     32  H1  UNL     1       2.568 -20.633 -30.963  1.00  0.00     0.169 HD
ENDBRANCH   1  28
BRANCH   6  33
HETATM   33  C10 UNL     1       2.461 -25.137 -33.421  1.00  0.00     0.168 C 
HETATM   34  C11 UNL     1       1.314 -25.672 -34.431  1.00  0.00     0.046 C 
BRANCH  33  35
HETATM   35  O5  UNL     1       2.617 -26.330 -32.688  1.00  0.00    -0.390 OA
ATOM     36  H5  UNL     1       2.008 -26.976 -33.024  1.00  0.00     0.210 HD
ENDBRANCH  33  35
ENDBRANCH   6  33
BRANCH   2  37
HETATM   37  N2  UNL     1      -0.588 -21.194 -30.956  1.00  0.00    -0.358 NA
BRANCH  37  38
HETATM   38  C5  UNL     1      -1.432 -20.315 -30.488  1.00  0.00     0.191 A 
HETATM   39  C6  UNL     1      -1.241 -19.736 -29.175  1.00  0.00     0.138 A 
HETATM   40  C7  UNL     1      -1.942 -18.783 -28.637  1.00  0.00     0.253 A 
HETATM   41  O2  UNL     1      -1.739 -18.288 -27.469  1.00  0.00    -0.268 OA
HETATM   42  N3  UNL     1      -2.996 -18.250 -29.339  1.00  0.00    -0.275 N 
HETATM   43  C8  UNL     1      -3.229 -18.752 -30.549  1.00  0.00     0.329 A 
ATOM     44  H3  UNL     1      -3.572 -17.503 -28.951  1.00  0.00     0.173 HD
HETATM   45  O3  UNL     1      -4.189 -18.306 -31.253  1.00  0.00    -0.247 OA
HETATM   46  N4  UNL     1      -2.503 -19.750 -31.145  1.00  0.00    -0.283 N 
ATOM     47  H4  UNL     1      -2.757 -20.076 -32.077  1.00  0.00     0.173 HD
ENDBRANCH  37  38
ENDBRANCH   2  37
TORSDOF 10
ENDMDL
MODEL 4
REMARK VINA RESULT: -9.080569323      0.807      1.473
REMARK  10 active torsions:
REMARK  status: ('A' for Active; 'I' for Inactive)
REMARK       I    between atoms: C2_2  and  N1_4 
REMARK    1  A    between atoms: N1_4  and  C3_6 
REMARK    2  A    between atoms: C4_7  and  N2_8 
REMARK    3  A    between atoms: N2_8  and  C5_9 
REMARK    4  A    between atoms: C9_22  and  C10_23 
REMARK    5  A    between atoms: C10_23  and  O5_25 
REMARK    6  A    between atoms: C12_27  and  N6_28 
REMARK       I    between atoms: N6_28  and  C13_30 
REMARK    7  A    between atoms: C13_30  and  C14_32 
REMARK    8  A    between atoms: C15_35  and  N8_36 
REMARK    9  A    between atoms: N8_36  and  C16_38 
REMARK   10  A    between atoms: C18_43  and  N10_44 
ROOT
HETATM    1  C3  UNL     1       1.354 -21.789 -30.523  1.00  0.00     0.132 A 
HETATM    2  C4  UNL     1       0.729 -21.416 -31.659  1.00  0.00     0.271 A 
HETATM    3  O4  UNL     1       1.376 -21.763 -32.786  1.00  0.00    -0.202 OA
HETATM    4  N5  UNL     1       2.448 -22.363 -32.798  1.00  0.00    -0.257 N 
ATOM      5  H5  UNL     1       2.891 -22.584 -33.690  1.00  0.00     0.195 HD
HETATM    6  C9  UNL     1       3.085 -22.757 -31.575  1.00  0.00     0.090 A 
HETATM    7  C12 UNL     1       2.574 -22.508 -30.352  1.00  0.00     0.095 A 
ENDROOT
BRANCH   7   8
HETATM    8  N6  UNL     1       2.813 -22.941 -29.234  1.00  0.00    -0.316 N 
HETATM    9  C13 UNL     1       3.749 -22.807 -28.219  1.00  0.00     0.297 C 
HETATM   10  O6  UNL     1       3.374 -22.360 -27.088  1.00  0.00    -0.263 OA
ATOM     11  H6  UNL     1       2.096 -23.612 -28.960  1.00  0.00     0.169 HD
BRANCH   9  12
HETATM   12  C14 UNL     1       5.200 -23.105 -28.249  1.00  0.00     0.221 A 
HETATM   13  N7  UNL     1       5.910 -23.577 -27.247  1.00  0.00    -0.315 N 
HETATM   14  C15 UNL     1       7.195 -23.696 -27.591  1.00  0.00     0.163 A 
ATOM     15  H7  UNL     1       5.531 -23.819 -26.331  1.00  0.00     0.169 HD
HETATM   16  C18 UNL     1       7.277 -23.295 -28.917  1.00  0.00     0.261 A 
HETATM   17  O9  UNL     1       6.022 -22.956 -29.235  1.00  0.00    -0.263 OA
BRANCH  14  18
HETATM   18  N8  UNL     1       8.282 -24.135 -26.767  1.00  0.00    -0.344 N 
ATOM     19  H8  UNL     1       8.701 -23.497 -26.091  1.00  0.00     0.163 HD
BRANCH  18  20
HETATM   20  C16 UNL     1       8.782 -25.486 -26.898  1.00  0.00     0.311 A 
HETATM   21  C17 UNL     1      10.169 -25.834 -27.264  1.00  0.00     0.289 A 
HETATM   22  N9  UNL     1       9.841 -25.727 -25.830  1.00  0.00    -0.049 N 
ATOM     23  H92 UNL     1      10.208 -25.203 -25.036  1.00  0.00     0.279 HD
ATOM     24  H91 UNL     1       9.930 -26.334 -25.015  1.00  0.00     0.279 HD
ENDBRANCH  18  20
ENDBRANCH  14  18
BRANCH  16  25
HETATM   25  N10 UNL     1       8.352 -23.188 -29.786  1.00  0.00    -0.086 N 
HETATM   26  O7  UNL     1       8.089 -23.370 -31.022  1.00  0.00    -0.530 OA
HETATM   27  O8  UNL     1       9.632 -22.953 -29.413  1.00  0.00    -0.530 OA
ENDBRANCH  16  25
ENDBRANCH   9  12
ENDBRANCH   7   8
BRANCH   1  28
HETATM   28  N1  UNL     1       1.059 -20.869 -29.427  1.00  0.00    -0.321 N 
HETATM   29  C2  UNL     1       1.626 -19.632 -29.371  1.00  0.00     0.218 C 
HETATM   30  C1  UNL     1       1.298 -18.492 -28.390  1.00  0.00     0.117 C 
HETATM   31  O1  UNL     1       2.537 -19.301 -30.208  1.00  0.00    -0.274 OA
ATOM     32  H1  UNL     1       0.418 -21.159 -28.689  1.00  0.00     0.169 HD
ENDBRANCH   1  28
BRANCH   6  33
HETATM   33  C10 UNL     1       4.433 -23.360 -31.804  1.00  0.00     0.168 C 
HETATM   34  C11 UNL     1       4.400 -23.972 -33.303  1.00  0.00     0.046 C 
BRANCH  33  35
HETATM   35  O5  UNL     1       4.503 -24.588 -31.117  1.00  0.00    -0.390 OA
ATOM     36  H5  UNL     1       4.989 -25.208 -31.648  1.00  0.00     0.210 HD
ENDBRANCH  33  35
ENDBRANCH   6  33
BRANCH   2  37
HETATM   37  N2  UNL     1      -0.487 -20.772 -31.876  1.00  0.00    -0.358 NA
BRANCH  37  38
HETATM   38  C5  UNL     1      -1.637 -20.183 -32.063  1.00  0.00     0.191 A 
HETATM   39  C6  UNL     1      -2.471 -20.531 -33.194  1.00  0.00     0.138 A 
HETATM   40  C7  UNL     1      -3.672 -20.099 -33.437  1.00  0.00     0.253 A 
HETATM   41  O2  UNL     1      -4.386 -20.437 -34.450  1.00  0.00    -0.268 OA
HETATM   42  N3  UNL     1      -4.248 -19.204 -32.568  1.00  0.00    -0.275 N 
HETATM   43  C8  UNL     1      -3.524 -18.835 -31.514  1.00  0.00     0.329 A 
ATOM     44  H3  UNL     1      -5.188 -18.838 -32.724  1.00  0.00     0.173 HD
HETATM   45  O3  UNL     1      -3.995 -18.008 -30.672  1.00  0.00    -0.247 OA
HETATM   46  N4  UNL     1      -2.259 -19.279 -31.229  1.00  0.00    -0.283 N 
ATOM     47  H4  UNL     1      -1.776 -18.939 -30.398  1.00  0.00     0.173 HD
ENDBRANCH  37  38
ENDBRANCH   2  37
TORSDOF 10
ENDMDL
MODEL 5
REMARK VINA RESULT: -9.056486540      3.121      4.111
REMARK  10 active torsions:
REMARK  status: ('A' for Active; 'I' for Inactive)
REMARK       I    between atoms: C2_2  and  N1_4 
REMARK    1  A    between atoms: N1_4  and  C3_6 
REMARK    2  A    between atoms: C4_7  and  N2_8 
REMARK    3  A    between atoms: N2_8  and  C5_9 
REMARK    4  A    between atoms: C9_22  and  C10_23 
REMARK    5  A    between atoms: C10_23  and  O5_25 
REMARK    6  A    between atoms: C12_27  and  N6_28 
REMARK       I    between atoms: N6_28  and  C13_30 
REMARK    7  A    between atoms: C13_30  and  C14_32 
REMARK    8  A    between atoms: C15_35  and  N8_36 
REMARK    9  A    between atoms: N8_36  and  C16_38 
REMARK   10  A    between atoms: C18_43  and  N10_44 
ROOT
HETATM    1  C3  UNL     1       1.747 -22.444 -30.823  1.00  0.00     0.132 A 
HETATM    2  C4  UNL     1       0.565 -21.967 -31.265  1.00  0.00     0.271 A 
HETATM    3  O4  UNL     1       0.096 -22.583 -32.366  1.00  0.00    -0.202 OA
HETATM    4  N5  UNL     1       0.685 -23.499 -32.935  1.00  0.00    -0.257 N 
ATOM      5  H5  UNL     1       0.278 -23.914 -33.774  1.00  0.00     0.195 HD
HETATM    6  C9  UNL     1       1.935 -23.994 -32.436  1.00  0.00     0.090 A 
HETATM    7  C12 UNL     1       2.546 -23.509 -31.337  1.00  0.00     0.095 A 
ENDROOT
BRANCH   7   8
HETATM    8  N6  UNL     1       3.452 -23.917 -30.626  1.00  0.00    -0.316 N 
HETATM    9  C13 UNL     1       4.837 -24.006 -30.612  1.00  0.00     0.297 C 
HETATM   10  O6  UNL     1       5.485 -23.392 -29.706  1.00  0.00    -0.263 OA
ATOM     11  H6  UNL     1       3.069 -24.320 -29.771  1.00  0.00     0.169 HD
BRANCH   9  12
HETATM   12  C14 UNL     1       5.730 -24.731 -31.546  1.00  0.00     0.221 A 
HETATM   13  N7  UNL     1       5.680 -26.017 -31.816  1.00  0.00    -0.315 N 
HETATM   14  C15 UNL     1       6.650 -26.361 -32.668  1.00  0.00     0.163 A 
ATOM     15  H7  UNL     1       4.994 -26.665 -31.428  1.00  0.00     0.169 HD
HETATM   16  C18 UNL     1       7.331 -25.190 -32.968  1.00  0.00     0.261 A 
HETATM   17  O9  UNL     1       6.705 -24.253 -32.246  1.00  0.00    -0.263 OA
BRANCH  14  18
HETATM   18  N8  UNL     1       6.947 -27.669 -33.170  1.00  0.00    -0.344 N 
ATOM     19  H8  UNL     1       7.534 -28.304 -32.628  1.00  0.00     0.163 HD
BRANCH  18  20
HETATM   20  C16 UNL     1       6.413 -28.088 -34.447  1.00  0.00     0.311 A 
HETATM   21  C17 UNL     1       6.344 -27.231 -35.647  1.00  0.00     0.289 A 
HETATM   22  N9  UNL     1       7.534 -28.085 -35.478  1.00  0.00    -0.049 N 
ATOM     23  H92 UNL     1       8.543 -27.934 -35.458  1.00  0.00     0.279 HD
ATOM     24  H91 UNL     1       8.010 -28.792 -36.040  1.00  0.00     0.279 HD
ENDBRANCH  18  20
ENDBRANCH  14  18
BRANCH  16  25
HETATM   25  N10 UNL     1       8.433 -24.941 -33.772  1.00  0.00    -0.086 N 
HETATM   26  O7  UNL     1       9.264 -25.904 -33.889  1.00  0.00    -0.530 OA
HETATM   27  O8  UNL     1       8.698 -23.765 -34.386  1.00  0.00    -0.530 OA
ENDBRANCH  16  25
ENDBRANCH   9  12
ENDBRANCH   7   8
BRANCH   1  28
HETATM   28  N1  UNL     1       2.522 -21.406 -30.148  1.00  0.00    -0.321 N 
HETATM   29  C2  UNL     1       2.721 -21.435 -28.802  1.00  0.00     0.218 C 
HETATM   30  C1  UNL     1       3.641 -20.525 -27.969  1.00  0.00     0.117 C 
HETATM   31  O1  UNL     1       2.116 -22.301 -28.078  1.00  0.00    -0.274 OA
ATOM     32  H1  UNL     1       2.921 -20.644 -30.697  1.00  0.00     0.169 HD
ENDBRANCH   1  28
BRANCH   6  33
HETATM   33  C10 UNL     1       2.542 -25.019 -33.339  1.00  0.00     0.168 C 
HETATM   34  C11 UNL     1       1.355 -25.500 -34.331  1.00  0.00     0.046 C 
BRANCH  33  35
HETATM   35  O5  UNL     1       2.675 -26.227 -32.629  1.00  0.00    -0.390 OA
ATOM     36  H5  UNL     1       2.025 -26.842 -32.948  1.00  0.00     0.210 HD
ENDBRANCH  33  35
ENDBRANCH   6  33
BRANCH   2  37
HETATM   37  N2  UNL     1      -0.278 -20.979 -30.763  1.00  0.00    -0.358 NA
BRANCH  37  38
HETATM   38  C5  UNL     1      -1.067 -20.062 -30.271  1.00  0.00     0.191 A 
HETATM   39  C6  UNL     1      -2.226 -19.610 -31.012  1.00  0.00     0.138 A 
HETATM   40  C7  UNL     1      -3.141 -18.786 -30.596  1.00  0.00     0.253 A 
HETATM   41  O2  UNL     1      -4.162 -18.412 -31.280  1.00  0.00    -0.268 OA
HETATM   42  N3  UNL     1      -3.034 -18.248 -29.337  1.00  0.00    -0.275 N 
HETATM   43  C8  UNL     1      -1.980 -18.617 -28.612  1.00  0.00     0.329 A 
ATOM     44  H3  UNL     1      -3.729 -17.596 -28.974  1.00  0.00     0.173 HD
HETATM   45  O3  UNL     1      -1.818 -18.155 -27.439  1.00  0.00    -0.247 OA
HETATM   46  N4  UNL     1      -1.004 -19.487 -29.020  1.00  0.00    -0.283 N 
ATOM     47  H4  UNL     1      -0.229 -19.711 -28.397  1.00  0.00     0.173 HD
ENDBRANCH  37  38
ENDBRANCH   2  37
TORSDOF 10
ENDMDL
