MODEL 1
REMARK VINA RESULT: -8.261207942      0.000      0.000
REMARK  12 active torsions:
REMARK  status: ('A' for Active; 'I' for Inactive)
REMARK    1  A    between atoms: C2_2  and  N1_3 
REMARK    2  A    between atoms: C3_4  and  C4_5 
REMARK    3  A    between atoms: C5_6  and  O1_7 
REMARK    4  A    between atoms: C7_14  and  N3_15 
REMARK       I    between atoms: N3_15  and  C8_17 
REMARK    5  A    between atoms: C8_17  and  C9_19 
REMARK    6  A    between atoms: C9_19  and  N5_22 
REMARK    7  A    between atoms: N5_22  and  C11_25 
REMARK    8  A    between atoms: C11_25  and  O4_26 
REMARK    9  A    between atoms: C11_25  and  N6_28 
REMARK   10  A    between atoms: N6_28  and  C13_30 
REMARK   11  A    between atoms: C13_30  and  C14_31 
REMARK   12  A    between atoms: C15_34  and  N8_35 
ROOT
HETATM    1  C9  UNL     1       4.066 -22.571 -30.148  1.00  0.00     0.387 C 
HETATM    2  C10 UNL     1       3.710 -22.881 -31.526  1.00  0.00     0.102 C 
HETATM    3  N4  UNL     1       3.439 -23.155 -32.645  1.00  0.00    -0.195 NA
ENDROOT
BRANCH   1   4
HETATM    4  C8  UNL     1       5.483 -22.881 -29.891  1.00  0.00     0.267 C 
HETATM    5  N3  UNL     1       5.879 -23.714 -28.822  1.00  0.00    -0.318 N 
ATOM      6  H3  UNL     1       5.159 -24.131 -28.231  1.00  0.00     0.169 HD
HETATM    7  O3  UNL     1       6.361 -22.394 -30.638  1.00  0.00    -0.270 OA
BRANCH   5   8
HETATM    8  C7  UNL     1       7.235 -23.992 -28.538  1.00  0.00     0.135 A 
HETATM    9  C3  UNL     1       8.193 -24.735 -29.162  1.00  0.00     0.107 A 
HETATM   10  N1  UNL     1       9.333 -24.540 -28.429  1.00  0.00    -0.260 N 
HETATM   11  N10 UNL     1       9.074 -23.700 -27.398  1.00  0.00    -0.253 N 
HETATM   12  C16 UNL     1       7.815 -23.347 -27.425  1.00  0.00     0.291 A 
HETATM   13  C17 UNL     1      10.048 -23.259 -26.419  1.00  0.00     0.182 C 
HETATM   14  O5  UNL     1       7.188 -22.588 -26.645  1.00  0.00    -0.264 OA
BRANCH   9  15
HETATM   15  C4  UNL     1       8.006 -25.755 -30.247  1.00  0.00     0.105 A 
HETATM   16  C5  UNL     1       8.131 -25.424 -31.570  1.00  0.00     0.142 A 
HETATM   17  S1  UNL     1       8.161 -26.961 -32.366  1.00  0.00     0.015 SA
HETATM   18  N2  UNL     1       8.014 -27.943 -31.050  1.00  0.00    -0.290 N 
HETATM   19  C6  UNL     1       7.943 -27.081 -29.994  1.00  0.00     0.267 A 
ATOM     20  H2  UNL     1       7.983 -28.962 -31.029  1.00  0.00     0.177 HD
HETATM   21  O2  UNL     1       7.833 -27.669 -28.857  1.00  0.00    -0.267 OA
BRANCH  16  22
HETATM   22  O1  UNL     1       8.206 -24.189 -32.251  1.00  0.00    -0.352 OA
ATOM     23  H1  UNL     1       8.032 -23.932 -33.150  1.00  0.00     0.218 HD
ENDBRANCH  16  22
ENDBRANCH   9  15
BRANCH  10  24
HETATM   24  C2  UNL     1      10.613 -25.132 -28.460  1.00  0.00     0.107 C 
HETATM   25  C1  UNL     1      10.788 -26.270 -27.802  1.00  0.00     0.032 C 
ENDBRANCH  10  24
ENDBRANCH   5   8
ENDBRANCH   1   4
BRANCH   1  26
HETATM   26  N5  UNL     1       3.735 -21.209 -29.799  1.00  0.00    -0.006 N 
ATOM     27  H52 UNL     1       4.525 -20.709 -29.392  1.00  0.00     0.284 HD
ATOM     28  H51 UNL     1       3.602 -20.620 -30.621  1.00  0.00     0.284 HD
BRANCH  26  29
HETATM   29  C11 UNL     1       2.561 -21.211 -28.916  1.00  0.00     0.426 C 
BRANCH  29  30
HETATM   30  O4  UNL     1       2.989 -20.619 -27.706  1.00  0.00    -0.355 OA
ATOM     31  H4  UNL     1       2.224 -20.187 -27.344  1.00  0.00     0.213 HD
ENDBRANCH  29  30
BRANCH  29  32
HETATM   32  N6  UNL     1       1.409 -20.596 -29.476  1.00  0.00    -0.363 N 
HETATM   33  C12 UNL     1       1.290 -19.214 -29.109  1.00  0.00     0.148 C 
BRANCH  32  34
HETATM   34  C13 UNL     1       0.208 -21.349 -29.495  1.00  0.00     0.197 C 
BRANCH  34  35
HETATM   35  C14 UNL     1      -0.276 -21.699 -30.893  1.00  0.00     0.107 A 
HETATM   36  N7  UNL     1       0.376 -22.446 -31.718  1.00  0.00    -0.324 N 
HETATM   37  C15 UNL     1      -0.114 -22.699 -32.921  1.00  0.00     0.160 A 
ATOM     38  H7  UNL     1       1.273 -22.845 -31.441  1.00  0.00     0.169 HD
HETATM   39  S2  UNL     1      -1.582 -21.821 -32.868  1.00  0.00     0.024 SA
HETATM   40  N9  UNL     1      -1.455 -21.197 -31.304  1.00  0.00    -0.312 N 
ATOM     41  H9  UNL     1      -2.106 -20.595 -30.800  1.00  0.00     0.175 HD
BRANCH  37  42
HETATM   42  N8  UNL     1       0.392 -23.429 -33.887  1.00  0.00    -0.379 N 
ATOM     43  H82 UNL     1       0.503 -24.441 -33.950  1.00  0.00     0.158 HD
ATOM     44  H81 UNL     1       0.786 -23.133 -34.781  1.00  0.00     0.158 HD
ENDBRANCH  37  42
ENDBRANCH  34  35
ENDBRANCH  32  34
ENDBRANCH  29  32
ENDBRANCH  26  29
ENDBRANCH   1  26
TORSDOF 12
ENDMDL
MODEL 2
REMARK VINA RESULT: -8.241593309      1.648      2.896
REMARK  12 active torsions:
REMARK  status: ('A' for Active; 'I' for Inactive)
REMARK    1  A    between atoms: C2_2  and  N1_3 
REMARK    2  A    between atoms: C3_4  and  C4_5 
REMARK    3  A    between atoms: C5_6  and  O1_7 
REMARK    4  A    between atoms: C7_14  and  N3_15 
REMARK       I    between atoms: N3_15  and  C8_17 
REMARK    5  A    between atoms: C8_17  and  C9_19 
REMARK    6  A    between atoms: C9_19  and  N5_22 
REMARK    7  A    between atoms: N5_22  and  C11_25 
REMARK    8  A    between atoms: C11_25  and  O4_26 
REMARK    9  A    between atoms: C11_25  and  N6_28 
REMARK   10  A    between atoms: N6_28  and  C13_30 
REMARK   11  A    between atoms: C13_30  and  C14_31 
REMARK   12  A    between atoms: C15_34  and  N8_35 
ROOT
HETATM    1  C9  UNL     1       4.668 -22.454 -29.733  1.00  0.00     0.387 C 
HETATM    2  C10 UNL     1       3.978 -22.094 -28.501  1.00  0.00     0.102 C 
HETATM    3  N4  UNL     1       3.442 -21.792 -27.490  1.00  0.00    -0.195 NA
ENDROOT
BRANCH   1   4
HETATM    4  C8  UNL     1       6.045 -22.896 -29.451  1.00  0.00     0.267 C 
HETATM    5  N3  UNL     1       6.383 -23.552 -28.246  1.00  0.00    -0.318 N 
ATOM      6  H3  UNL     1       5.644 -23.746 -27.570  1.00  0.00     0.169 HD
HETATM    7  O3  UNL     1       6.941 -22.685 -30.298  1.00  0.00    -0.270 OA
BRANCH   5   8
HETATM    8  C7  UNL     1       7.704 -23.948 -27.943  1.00  0.00     0.135 A 
HETATM    9  C3  UNL     1       8.537 -24.906 -28.443  1.00  0.00     0.107 A 
HETATM   10  N1  UNL     1       9.721 -24.734 -27.778  1.00  0.00    -0.260 N 
HETATM   11  N10 UNL     1       9.610 -23.703 -26.907  1.00  0.00    -0.253 N 
HETATM   12  C16 UNL     1       8.404 -23.200 -26.973  1.00  0.00     0.291 A 
HETATM   13  C17 UNL     1      10.670 -23.227 -26.039  1.00  0.00     0.182 C 
HETATM   14  O5  UNL     1       7.907 -22.243 -26.328  1.00  0.00    -0.264 OA
BRANCH   9  15
HETATM   15  C4  UNL     1       8.182 -26.065 -29.327  1.00  0.00     0.105 A 
HETATM   16  C5  UNL     1       8.278 -25.982 -30.690  1.00  0.00     0.142 A 
HETATM   17  S1  UNL     1       8.093 -27.624 -31.206  1.00  0.00     0.015 SA
HETATM   18  N2  UNL     1       7.901 -28.342 -29.735  1.00  0.00    -0.290 N 
HETATM   19  C6  UNL     1       7.981 -27.311 -28.845  1.00  0.00     0.267 A 
ATOM     20  H2  UNL     1       7.755 -29.332 -29.535  1.00  0.00     0.177 HD
HETATM   21  O2  UNL     1       7.862 -27.679 -27.620  1.00  0.00    -0.267 OA
BRANCH  16  22
HETATM   22  O1  UNL     1       8.459 -24.898 -31.580  1.00  0.00    -0.352 OA
ATOM     23  H1  UNL     1       8.539 -24.842 -32.525  1.00  0.00     0.218 HD
ENDBRANCH  16  22
ENDBRANCH   9  15
BRANCH  10  24
HETATM   24  C2  UNL     1      10.916 -25.482 -27.726  1.00  0.00     0.107 C 
HETATM   25  C1  UNL     1      10.970 -26.513 -26.893  1.00  0.00     0.032 C 
ENDBRANCH  10  24
ENDBRANCH   5   8
ENDBRANCH   1   4
BRANCH   1  26
HETATM   26  N5  UNL     1       3.929 -23.430 -30.499  1.00  0.00    -0.006 N 
ATOM     27  H52 UNL     1       4.263 -24.381 -30.341  1.00  0.00     0.284 HD
ATOM     28  H51 UNL     1       2.977 -23.554 -30.153  1.00  0.00     0.284 HD
BRANCH  26  29
HETATM   29  C11 UNL     1       3.963 -23.054 -31.918  1.00  0.00     0.426 C 
BRANCH  29  30
HETATM   30  O4  UNL     1       4.872 -23.948 -32.530  1.00  0.00    -0.355 OA
ATOM     31  H4  UNL     1       5.545 -23.404 -32.922  1.00  0.00     0.213 HD
ENDBRANCH  29  30
BRANCH  29  32
HETATM   32  N6  UNL     1       2.689 -23.018 -32.544  1.00  0.00    -0.363 N 
HETATM   33  C12 UNL     1       2.540 -24.030 -33.549  1.00  0.00     0.148 C 
BRANCH  32  34
HETATM   34  C13 UNL     1       2.143 -21.744 -32.846  1.00  0.00     0.197 C 
BRANCH  34  35
HETATM   35  C14 UNL     1       1.472 -21.067 -31.661  1.00  0.00     0.107 A 
HETATM   36  N7  UNL     1       2.090 -20.323 -30.809  1.00  0.00    -0.324 N 
HETATM   37  C15 UNL     1       1.432 -19.773 -29.801  1.00  0.00     0.160 A 
ATOM     38  H7  UNL     1       3.092 -20.158 -30.911  1.00  0.00     0.169 HD
HETATM   39  S2  UNL     1      -0.153 -20.350 -30.091  1.00  0.00     0.024 SA
HETATM   40  N9  UNL     1       0.151 -21.253 -31.485  1.00  0.00    -0.312 N 
ATOM     41  H9  UNL     1      -0.500 -21.800 -32.048  1.00  0.00     0.175 HD
BRANCH  37  42
HETATM   42  N8  UNL     1       1.879 -18.993 -28.844  1.00  0.00    -0.379 N 
ATOM     43  H82 UNL     1       2.831 -18.687 -28.644  1.00  0.00     0.158 HD
ATOM     44  H81 UNL     1       1.363 -18.531 -28.094  1.00  0.00     0.158 HD
ENDBRANCH  37  42
ENDBRANCH  34  35
ENDBRANCH  32  34
ENDBRANCH  29  32
ENDBRANCH  26  29
ENDBRANCH   1  26
TORSDOF 12
ENDMDL
MODEL 3
REMARK VINA RESULT: -8.190503750      1.679      3.216
REMARK  12 active torsions:
REMARK  status: ('A' for Active; 'I' for Inactive)
REMARK    1  A    between atoms: C2_2  and  N1_3 
REMARK    2  A    between atoms: C3_4  and  C4_5 
REMARK    3  A    between atoms: C5_6  and  O1_7 
REMARK    4  A    between atoms: C7_14  and  N3_15 
REMARK       I    between atoms: N3_15  and  C8_17 
REMARK    5  A    between atoms: C8_17  and  C9_19 
REMARK    6  A    between atoms: C9_19  and  N5_22 
REMARK    7  A    between atoms: N5_22  and  C11_25 
REMARK    8  A    between atoms: C11_25  and  O4_26 
REMARK    9  A    between atoms: C11_25  and  N6_28 
REMARK   10  A    between atoms: N6_28  and  C13_30 
REMARK   11  A    between atoms: C13_30  and  C14_31 
REMARK   12  A    between atoms: C15_34  and  N8_35 
ROOT
HETATM    1  C9  UNL     1       4.557 -22.774 -29.708  1.00  0.00     0.387 C 
HETATM    2  C10 UNL     1       3.901 -22.196 -28.543  1.00  0.00     0.102 C 
HETATM    3  N4  UNL     1       3.392 -21.713 -27.589  1.00  0.00    -0.195 NA
ENDROOT
BRANCH   1   4
HETATM    4  C8  UNL     1       5.970 -23.072 -29.418  1.00  0.00     0.267 C 
HETATM    5  N3  UNL     1       6.350 -23.867 -28.314  1.00  0.00    -0.318 N 
ATOM      6  H3  UNL     1       5.621 -24.266 -27.722  1.00  0.00     0.169 HD
HETATM    7  O3  UNL     1       6.859 -22.609 -30.166  1.00  0.00    -0.270 OA
BRANCH   5   8
HETATM    8  C7  UNL     1       7.701 -24.133 -27.999  1.00  0.00     0.135 A 
HETATM    9  C3  UNL     1       8.624 -25.014 -28.481  1.00  0.00     0.107 A 
HETATM   10  N1  UNL     1       9.783 -24.721 -27.813  1.00  0.00    -0.260 N 
HETATM   11  N10 UNL     1       9.570 -23.692 -26.959  1.00  0.00    -0.253 N 
HETATM   12  C16 UNL     1       8.322 -23.307 -27.038  1.00  0.00     0.291 A 
HETATM   13  C17 UNL     1      10.575 -23.105 -26.094  1.00  0.00     0.182 C 
HETATM   14  O5  UNL     1       7.733 -22.392 -26.410  1.00  0.00    -0.264 OA
BRANCH   9  15
HETATM   15  C4  UNL     1       8.385 -26.215 -29.349  1.00  0.00     0.105 A 
HETATM   16  C5  UNL     1       7.982 -27.411 -28.820  1.00  0.00     0.142 A 
HETATM   17  S1  UNL     1       7.532 -28.335 -30.213  1.00  0.00     0.015 SA
HETATM   18  N2  UNL     1       7.861 -27.222 -31.384  1.00  0.00    -0.290 N 
HETATM   19  C6  UNL     1       8.317 -26.135 -30.696  1.00  0.00     0.267 A 
ATOM     20  H2  UNL     1       7.749 -27.322 -32.393  1.00  0.00     0.177 HD
HETATM   21  O2  UNL     1       8.622 -25.141 -31.449  1.00  0.00    -0.267 OA
BRANCH  16  22
HETATM   22  O1  UNL     1       7.917 -27.908 -27.498  1.00  0.00    -0.352 OA
ATOM     23  H1  UNL     1       7.194 -28.142 -26.928  1.00  0.00     0.218 HD
ENDBRANCH  16  22
ENDBRANCH   9  15
BRANCH  10  24
HETATM   24  C2  UNL     1      11.043 -25.352 -27.745  1.00  0.00     0.107 C 
HETATM   25  C1  UNL     1      11.143 -26.470 -27.038  1.00  0.00     0.032 C 
ENDBRANCH  10  24
ENDBRANCH   5   8
ENDBRANCH   1   4
BRANCH   1  26
HETATM   26  N5  UNL     1       3.848 -23.928 -30.208  1.00  0.00    -0.006 N 
ATOM     27  H52 UNL     1       4.207 -24.801 -29.823  1.00  0.00     0.284 HD
ATOM     28  H51 UNL     1       2.899 -23.990 -29.840  1.00  0.00     0.284 HD
BRANCH  26  29
HETATM   29  C11 UNL     1       3.877 -23.912 -31.677  1.00  0.00     0.426 C 
BRANCH  29  30
HETATM   30  O4  UNL     1       4.454 -25.144 -32.063  1.00  0.00    -0.355 OA
ATOM     31  H4  UNL     1       4.612 -25.073 -32.997  1.00  0.00     0.213 HD
ENDBRANCH  29  30
BRANCH  29  32
HETATM   32  N6  UNL     1       2.619 -23.656 -32.283  1.00  0.00    -0.363 N 
HETATM   33  C12 UNL     1       2.210 -24.708 -33.169  1.00  0.00     0.148 C 
BRANCH  32  34
HETATM   34  C13 UNL     1       2.358 -22.331 -32.715  1.00  0.00     0.197 C 
BRANCH  34  35
HETATM   35  C14 UNL     1       1.626 -21.482 -31.686  1.00  0.00     0.107 A 
HETATM   36  N7  UNL     1       2.199 -20.604 -30.935  1.00  0.00    -0.324 N 
HETATM   37  C15 UNL     1       1.489 -19.909 -30.060  1.00  0.00     0.160 A 
ATOM     38  H7  UNL     1       3.203 -20.443 -31.017  1.00  0.00     0.169 HD
HETATM   39  S2  UNL     1      -0.076 -20.548 -30.327  1.00  0.00     0.024 SA
HETATM   40  N9  UNL     1       0.299 -21.657 -31.542  1.00  0.00    -0.312 N 
ATOM     41  H9  UNL     1      -0.320 -22.296 -32.041  1.00  0.00     0.175 HD
BRANCH  37  42
HETATM   42  N8  UNL     1       1.885 -18.981 -29.220  1.00  0.00    -0.379 N 
ATOM     43  H82 UNL     1       2.100 -19.051 -28.225  1.00  0.00     0.158 HD
ATOM     44  H81 UNL     1       2.058 -17.990 -29.389  1.00  0.00     0.158 HD
ENDBRANCH  37  42
ENDBRANCH  34  35
ENDBRANCH  32  34
ENDBRANCH  29  32
ENDBRANCH  26  29
ENDBRANCH   1  26
TORSDOF 12
ENDMDL
MODEL 4
REMARK VINA RESULT: -8.183470635      1.742      2.293
REMARK  12 active torsions:
REMARK  status: ('A' for Active; 'I' for Inactive)
REMARK    1  A    between atoms: C2_2  and  N1_3 
REMARK    2  A    between atoms: C3_4  and  C4_5 
REMARK    3  A    between atoms: C5_6  and  O1_7 
REMARK    4  A    between atoms: C7_14  and  N3_15 
REMARK       I    between atoms: N3_15  and  C8_17 
REMARK    5  A    between atoms: C8_17  and  C9_19 
REMARK    6  A    between atoms: C9_19  and  N5_22 
REMARK    7  A    between atoms: N5_22  and  C11_25 
REMARK    8  A    between atoms: C11_25  and  O4_26 
REMARK    9  A    between atoms: C11_25  and  N6_28 
REMARK   10  A    between atoms: N6_28  and  C13_30 
REMARK   11  A    between atoms: C13_30  and  C14_31 
REMARK   12  A    between atoms: C15_34  and  N8_35 
ROOT
HETATM    1  C9  UNL     1       4.473 -23.482 -28.404  1.00  0.00     0.387 C 
HETATM    2  C10 UNL     1       4.503 -23.529 -29.860  1.00  0.00     0.102 C 
HETATM    3  N4  UNL     1       4.546 -23.589 -31.041  1.00  0.00    -0.195 NA
ENDROOT
BRANCH   1   4
HETATM    4  C8  UNL     1       5.785 -23.850 -27.843  1.00  0.00     0.267 C 
HETATM    5  N3  UNL     1       6.985 -23.640 -28.558  1.00  0.00    -0.318 N 
ATOM      6  H3  UNL     1       6.938 -23.197 -29.475  1.00  0.00     0.169 HD
HETATM    7  O3  UNL     1       5.840 -24.363 -26.703  1.00  0.00    -0.270 OA
BRANCH   5   8
HETATM    8  C7  UNL     1       8.247 -24.021 -28.051  1.00  0.00     0.135 A 
HETATM    9  C3  UNL     1       9.130 -25.010 -28.370  1.00  0.00     0.107 A 
HETATM   10  N1  UNL     1      10.213 -24.801 -27.560  1.00  0.00    -0.260 N 
HETATM   11  N10 UNL     1       9.995 -23.716 -26.778  1.00  0.00    -0.253 N 
HETATM   12  C16 UNL     1       8.815 -23.215 -27.041  1.00  0.00     0.291 A 
HETATM   13  C17 UNL     1      10.931 -23.189 -25.804  1.00  0.00     0.182 C 
HETATM   14  O5  UNL     1       8.246 -22.218 -26.533  1.00  0.00    -0.264 OA
BRANCH   9  15
HETATM   15  C4  UNL     1       8.885 -26.222 -29.221  1.00  0.00     0.105 A 
HETATM   16  C5  UNL     1       8.266 -27.336 -28.720  1.00  0.00     0.142 A 
HETATM   17  S1  UNL     1       7.930 -28.278 -30.133  1.00  0.00     0.015 SA
HETATM   18  N2  UNL     1       8.565 -27.273 -31.276  1.00  0.00    -0.290 N 
HETATM   19  C6  UNL     1       9.036 -26.209 -30.564  1.00  0.00     0.267 A 
ATOM     20  H2  UNL     1       8.598 -27.416 -32.286  1.00  0.00     0.177 HD
HETATM   21  O2  UNL     1       9.569 -25.297 -31.295  1.00  0.00    -0.267 OA
BRANCH  16  22
HETATM   22  O1  UNL     1       7.941 -27.750 -27.409  1.00  0.00    -0.352 OA
ATOM     23  H1  UNL     1       7.630 -27.284 -26.640  1.00  0.00     0.218 HD
ENDBRANCH  16  22
ENDBRANCH   9  15
BRANCH  10  24
HETATM   24  C2  UNL     1      11.380 -25.547 -27.297  1.00  0.00     0.107 C 
HETATM   25  C1  UNL     1      11.248 -26.713 -26.679  1.00  0.00     0.032 C 
ENDBRANCH  10  24
ENDBRANCH   5   8
ENDBRANCH   1   4
BRANCH   1  26
HETATM   26  N5  UNL     1       4.010 -22.205 -27.916  1.00  0.00    -0.006 N 
ATOM     27  H52 UNL     1       3.707 -22.248 -26.943  1.00  0.00     0.284 HD
ATOM     28  H51 UNL     1       4.771 -21.536 -27.798  1.00  0.00     0.284 HD
BRANCH  26  29
HETATM   29  C11 UNL     1       2.957 -21.702 -28.807  1.00  0.00     0.426 C 
BRANCH  29  30
HETATM   30  O4  UNL     1       1.735 -22.130 -28.238  1.00  0.00    -0.355 OA
ATOM     31  H4  UNL     1       1.812 -23.073 -28.142  1.00  0.00     0.213 HD
ENDBRANCH  29  30
BRANCH  29  32
HETATM   32  N6  UNL     1       3.015 -20.304 -29.048  1.00  0.00    -0.363 N 
HETATM   33  C12 UNL     1       3.273 -19.549 -27.855  1.00  0.00     0.148 C 
BRANCH  32  34
HETATM   34  C13 UNL     1       2.068 -19.754 -29.949  1.00  0.00     0.197 C 
BRANCH  34  35
HETATM   35  C14 UNL     1       1.638 -20.713 -31.048  1.00  0.00     0.107 A 
HETATM   36  N7  UNL     1       2.361 -21.008 -32.074  1.00  0.00    -0.324 N 
HETATM   37  C15 UNL     1       1.910 -21.850 -32.990  1.00  0.00     0.160 A 
ATOM     38  H7  UNL     1       3.286 -20.591 -32.180  1.00  0.00     0.169 HD
HETATM   39  S2  UNL     1       0.371 -22.238 -32.348  1.00  0.00     0.024 SA
HETATM   40  N9  UNL     1       0.425 -21.290 -30.953  1.00  0.00    -0.312 N 
ATOM     41  H9  UNL     1      -0.279 -21.183 -30.223  1.00  0.00     0.175 HD
BRANCH  37  42
HETATM   42  N8  UNL     1       2.491 -22.272 -34.089  1.00  0.00    -0.379 N 
ATOM     43  H82 UNL     1       3.056 -21.759 -34.765  1.00  0.00     0.158 HD
ATOM     44  H81 UNL     1       2.496 -23.207 -34.499  1.00  0.00     0.158 HD
ENDBRANCH  37  42
ENDBRANCH  34  35
ENDBRANCH  32  34
ENDBRANCH  29  32
ENDBRANCH  26  29
ENDBRANCH   1  26
TORSDOF 12
ENDMDL
MODEL 5
REMARK VINA RESULT: -8.167133332      2.962      9.019
REMARK  12 active torsions:
REMARK  status: ('A' for Active; 'I' for Inactive)
REMARK    1  A    between atoms: C2_2  and  N1_3 
REMARK    2  A    between atoms: C3_4  and  C4_5 
REMARK    3  A    between atoms: C5_6  and  O1_7 
REMARK    4  A    between atoms: C7_14  and  N3_15 
REMARK       I    between atoms: N3_15  and  C8_17 
REMARK    5  A    between atoms: C8_17  and  C9_19 
REMARK    6  A    between atoms: C9_19  and  N5_22 
REMARK    7  A    between atoms: N5_22  and  C11_25 
REMARK    8  A    between atoms: C11_25  and  O4_26 
REMARK    9  A    between atoms: C11_25  and  N6_28 
REMARK   10  A    between atoms: N6_28  and  C13_30 
REMARK   11  A    between atoms: C13_30  and  C14_31 
REMARK   12  A    between atoms: C15_34  and  N8_35 
ROOT
HETATM    1  C9  UNL     1       4.531 -22.386 -27.300  1.00  0.00     0.387 C 
HETATM    2  C10 UNL     1       4.846 -21.137 -26.620  1.00  0.00     0.102 C 
HETATM    3  N4  UNL     1       5.074 -20.117 -26.065  1.00  0.00    -0.195 NA
ENDROOT
BRANCH   1   4
HETATM    4  C8  UNL     1       3.293 -22.255 -28.087  1.00  0.00     0.267 C 
HETATM    5  N3  UNL     1       3.123 -21.225 -29.039  1.00  0.00    -0.318 N 
ATOM      6  H3  UNL     1       3.892 -20.575 -29.201  1.00  0.00     0.169 HD
HETATM    7  O3  UNL     1       2.365 -23.076 -27.910  1.00  0.00    -0.270 OA
BRANCH   5   8
HETATM    8  C7  UNL     1       1.929 -21.062 -29.775  1.00  0.00     0.135 A 
HETATM    9  C3  UNL     1       1.367 -21.738 -30.819  1.00  0.00     0.107 A 
HETATM   10  N1  UNL     1       0.158 -21.131 -31.029  1.00  0.00    -0.260 N 
HETATM   11  N10 UNL     1      -0.009 -20.124 -30.139  1.00  0.00    -0.253 N 
HETATM   12  C16 UNL     1       1.041 -20.046 -29.362  1.00  0.00     0.291 A 
HETATM   13  C17 UNL     1      -1.178 -19.269 -30.057  1.00  0.00     0.182 C 
HETATM   14  O5  UNL     1       1.272 -19.249 -28.419  1.00  0.00    -0.264 OA
BRANCH   9  15
HETATM   15  C4  UNL     1       2.018 -22.745 -31.720  1.00  0.00     0.105 A 
HETATM   16  C5  UNL     1       2.089 -24.069 -31.382  1.00  0.00     0.142 A 
HETATM   17  S1  UNL     1       2.602 -24.832 -32.848  1.00  0.00     0.015 SA
HETATM   18  N2  UNL     1       2.714 -23.499 -33.813  1.00  0.00    -0.290 N 
HETATM   19  C6  UNL     1       2.353 -22.465 -32.999  1.00  0.00     0.267 A 
ATOM     20  H2  UNL     1       2.991 -23.457 -34.794  1.00  0.00     0.177 HD
HETATM   21  O2  UNL     1       2.369 -21.321 -33.584  1.00  0.00    -0.267 OA
BRANCH  16  22
HETATM   22  O1  UNL     1       1.852 -24.770 -30.177  1.00  0.00    -0.352 OA
ATOM     23  H1  UNL     1       2.280 -25.511 -29.764  1.00  0.00     0.218 HD
ENDBRANCH  16  22
ENDBRANCH   9  15
BRANCH  10  24
HETATM   24  C2  UNL     1      -0.821 -21.256 -32.037  1.00  0.00     0.107 C 
HETATM   25  C1  UNL     1      -1.493 -22.397 -32.114  1.00  0.00     0.032 C 
ENDBRANCH  10  24
ENDBRANCH   5   8
ENDBRANCH   1   4
BRANCH   1  26
HETATM   26  N5  UNL     1       5.638 -22.859 -28.100  1.00  0.00    -0.006 N 
ATOM     27  H52 UNL     1       5.366 -23.612 -28.731  1.00  0.00     0.284 HD
ATOM     28  H51 UNL     1       5.925 -22.179 -28.803  1.00  0.00     0.284 HD
BRANCH  26  29
HETATM   29  C11 UNL     1       6.742 -23.246 -27.212  1.00  0.00     0.426 C 
BRANCH  29  30
HETATM   30  O4  UNL     1       6.262 -24.341 -26.457  1.00  0.00    -0.355 OA
ATOM     31  H4  UNL     1       6.686 -24.276 -25.609  1.00  0.00     0.213 HD
ENDBRANCH  29  30
BRANCH  29  32
HETATM   32  N6  UNL     1       7.966 -23.507 -27.882  1.00  0.00    -0.363 N 
HETATM   33  C12 UNL     1       7.770 -23.946 -29.234  1.00  0.00     0.148 C 
BRANCH  32  34
HETATM   34  C13 UNL     1       8.988 -24.161 -27.149  1.00  0.00     0.197 C 
BRANCH  34  35
HETATM   35  C14 UNL     1       9.856 -23.217 -26.330  1.00  0.00     0.107 A 
HETATM   36  N7  UNL     1      10.423 -23.540 -25.218  1.00  0.00    -0.324 N 
HETATM   37  C15 UNL     1      11.160 -22.656 -24.564  1.00  0.00     0.160 A 
ATOM     38  H7  UNL     1      10.305 -24.480 -24.841  1.00  0.00     0.169 HD
HETATM   39  S2  UNL     1      11.033 -21.296 -25.594  1.00  0.00     0.024 SA
HETATM   40  N9  UNL     1      10.044 -21.965 -26.787  1.00  0.00    -0.312 N 
ATOM     41  H9  UNL     1       9.682 -21.533 -27.637  1.00  0.00     0.175 HD
BRANCH  37  42
HETATM   42  N8  UNL     1      11.813 -22.794 -23.433  1.00  0.00    -0.379 N 
ATOM     43  H82 UNL     1      12.463 -23.524 -23.141  1.00  0.00     0.158 HD
ATOM     44  H81 UNL     1      11.802 -22.198 -22.605  1.00  0.00     0.158 HD
ENDBRANCH  37  42
ENDBRANCH  34  35
ENDBRANCH  32  34
ENDBRANCH  29  32
ENDBRANCH  26  29
ENDBRANCH   1  26
TORSDOF 12
ENDMDL
