MODEL 1
REMARK VINA RESULT: -8.549390028      0.000      0.000
REMARK  9 active torsions:
REMARK  status: ('A' for Active; 'I' for Inactive)
REMARK    1  A    between atoms: O1_2  and  C2_3 
REMARK    2  A    between atoms: C8_9  and  O2_10 
REMARK    3  A    between atoms: O2_10  and  C9_11 
REMARK    4  A    between atoms: C19_22  and  C20_23 
REMARK    5  A    between atoms: C20_23  and  O3_25 
REMARK    6  A    between atoms: C20_23  and  C22_27 
REMARK    7  A    between atoms: C29_35  and  O5_36 
REMARK    8  A    between atoms: O5_36  and  C30_37 
REMARK    9  A    between atoms: C32_40  and  O7_41 
ROOT
HETATM    1  C2  UNL     1      26.259   2.008  34.779  1.00  0.00     0.129 C 
HETATM    2  C3  UNL     1      25.922   3.465  35.017  1.00  0.00     0.033 C 
HETATM    3  C4  UNL     1      27.004   4.240  34.379  1.00  0.00     0.015 C 
HETATM    4  C5  UNL     1      28.397   4.047  34.910  1.00  0.00    -0.003 C 
HETATM    5  C6  UNL     1      29.269   4.590  33.760  1.00  0.00     0.019 C 
HETATM    6  C7  UNL     1      28.715   2.595  35.072  1.00  0.00     0.036 C 
HETATM    7  C8  UNL     1      29.880   2.316  35.984  1.00  0.00     0.134 C 
HETATM    8  C12 UNL     1      29.831   3.124  37.258  1.00  0.00     0.041 C 
HETATM    9  C13 UNL     1      29.931   4.590  36.851  1.00  0.00     0.031 C 
HETATM   10  C14 UNL     1      29.885   5.393  38.145  1.00  0.00     0.001 C 
HETATM   11  C15 UNL     1      30.808   4.888  39.206  1.00  0.00     0.007 C 
HETATM   12  C16 UNL     1      30.556   5.660  40.483  1.00  0.00     0.010 C 
HETATM   13  C17 UNL     1      30.773   7.136  40.301  1.00  0.00    -0.033 C 
HETATM   14  C18 UNL     1      32.224   7.356  40.085  1.00  0.00     0.016 C 
HETATM   15  C19 UNL     1      30.202   7.988  41.365  1.00  0.00     0.035 C 
HETATM   16  C23 UNL     1      30.148   9.362  40.672  1.00  0.00     0.009 C 
HETATM   17  C24 UNL     1      30.112   9.052  39.167  1.00  0.00     0.007 C 
HETATM   18  C25 UNL     1      29.866   7.583  39.187  1.00  0.00     0.003 C 
HETATM   19  C26 UNL     1      29.907   6.869  37.911  1.00  0.00    -0.033 C 
HETATM   20  C27 UNL     1      30.948   7.378  36.985  1.00  0.00     0.016 C 
HETATM   21  C28 UNL     1      28.554   7.135  37.229  1.00  0.00     0.045 C 
HETATM   22  C29 UNL     1      28.417   6.362  35.914  1.00  0.00     0.168 C 
HETATM   23  C32 UNL     1      28.657   4.922  36.102  1.00  0.00     0.096 C 
HETATM   24  C33 UNL     1      27.600   1.627  35.310  1.00  0.00    -0.015 C 
HETATM   25  C34 UNL     1      27.374   1.184  36.733  1.00  0.00     0.018 C 
HETATM   26  C35 UNL     1      27.920   0.315  34.589  1.00  0.00     0.018 C 
ENDROOT
BRANCH  15  27
HETATM   27  C20 UNL     1      30.891   8.172  42.640  1.00  0.00     0.111 C 
HETATM   28  C21 UNL     1      30.024   9.154  43.460  1.00  0.00     0.054 C 
BRANCH  27  29
HETATM   29  O3  UNL     1      32.119   8.858  42.532  1.00  0.00    -0.383 OA
ATOM     30  H3  UNL     1      32.564   8.983  43.363  1.00  0.00     0.211 HD
ENDBRANCH  27  29
BRANCH  27  31
HETATM   31  C22 UNL     1      31.031   6.974  43.481  1.00  0.00     0.269 C 
HETATM   32  O4  UNL     1      30.553   6.918  44.579  1.00  0.00    -0.304 OA
ENDBRANCH  27  31
ENDBRANCH  15  27
BRANCH  22  33
HETATM   33  O5  UNL     1      29.115   7.091  34.985  1.00  0.00    -0.313 OA
BRANCH  33  34
HETATM   34  C30 UNL     1      28.514   8.102  34.247  1.00  0.00     0.255 C 
HETATM   35  C31 UNL     1      27.567   7.728  33.147  1.00  0.00     0.126 C 
HETATM   36  O6  UNL     1      28.718   9.326  34.448  1.00  0.00    -0.266 OA
ENDBRANCH  33  34
ENDBRANCH  22  33
BRANCH  23  37
HETATM   37  O7  UNL     1      27.680   4.540  37.073  1.00  0.00    -0.386 OA
ATOM     38  H7  UNL     1      26.922   4.262  36.572  1.00  0.00     0.210 HD
ENDBRANCH  23  37
BRANCH   7  39
HETATM   39  O2  UNL     1      31.126   2.541  35.436  1.00  0.00    -0.349 OA
BRANCH  39  40
HETATM   40  C9  UNL     1      32.367   2.085  35.657  1.00  0.00     0.054 C 
HETATM   41  C10 UNL     1      33.324   2.811  36.516  1.00  0.00     0.077 C 
HETATM   42  C11 UNL     1      32.765   0.946  35.092  1.00  0.00     0.116 C 
HETATM   43 CL1  UNL     1      34.375   0.370  35.390  1.00  0.00    -0.094 Cl
ENDBRANCH  39  40
ENDBRANCH   7  39
BRANCH   1  44
HETATM   44  O1  UNL     1      25.240   1.284  35.385  1.00  0.00    -0.390 OA
HETATM   45  C1  UNL     1      23.997   1.851  35.311  1.00  0.00     0.202 C 
ENDBRANCH   1  44
TORSDOF 9
ENDMDL
MODEL 2
REMARK VINA RESULT: -8.485837249      1.269      1.537
REMARK  9 active torsions:
REMARK  status: ('A' for Active; 'I' for Inactive)
REMARK    1  A    between atoms: O1_2  and  C2_3 
REMARK    2  A    between atoms: C8_9  and  O2_10 
REMARK    3  A    between atoms: O2_10  and  C9_11 
REMARK    4  A    between atoms: C19_22  and  C20_23 
REMARK    5  A    between atoms: C20_23  and  O3_25 
REMARK    6  A    between atoms: C20_23  and  C22_27 
REMARK    7  A    between atoms: C29_35  and  O5_36 
REMARK    8  A    between atoms: O5_36  and  C30_37 
REMARK    9  A    between atoms: C32_40  and  O7_41 
ROOT
HETATM    1  C2  UNL     1      25.831   3.053  36.144  1.00  0.00     0.129 C 
HETATM    2  C3  UNL     1      25.587   4.507  36.490  1.00  0.00     0.033 C 
HETATM    3  C4  UNL     1      26.667   5.267  35.832  1.00  0.00     0.015 C 
HETATM    4  C5  UNL     1      28.078   4.972  36.261  1.00  0.00    -0.003 C 
HETATM    5  C6  UNL     1      28.906   5.543  35.093  1.00  0.00     0.019 C 
HETATM    6  C7  UNL     1      28.328   3.499  36.315  1.00  0.00     0.036 C 
HETATM    7  C8  UNL     1      29.528   3.106  37.133  1.00  0.00     0.134 C 
HETATM    8  C12 UNL     1      29.600   3.833  38.454  1.00  0.00     0.041 C 
HETATM    9  C13 UNL     1      29.752   5.315  38.130  1.00  0.00     0.031 C 
HETATM   10  C14 UNL     1      29.828   6.036  39.470  1.00  0.00     0.001 C 
HETATM   11  C15 UNL     1      30.784   5.421  40.438  1.00  0.00     0.007 C 
HETATM   12  C16 UNL     1      30.652   6.122  41.773  1.00  0.00     0.010 C 
HETATM   13  C17 UNL     1      30.935   7.594  41.666  1.00  0.00    -0.033 C 
HETATM   14  C18 UNL     1      32.380   7.755  41.372  1.00  0.00     0.016 C 
HETATM   15  C19 UNL     1      30.475   8.404  42.813  1.00  0.00     0.035 C 
HETATM   16  C23 UNL     1      30.453   9.820  42.208  1.00  0.00     0.009 C 
HETATM   17  C24 UNL     1      30.310   9.608  40.693  1.00  0.00     0.007 C 
HETATM   18  C25 UNL     1      29.988   8.154  40.641  1.00  0.00     0.003 C 
HETATM   19  C26 UNL     1      29.914   7.521  39.324  1.00  0.00    -0.033 C 
HETATM   20  C27 UNL     1      30.923   8.035  38.366  1.00  0.00     0.016 C 
HETATM   21  C28 UNL     1      28.538   7.896  38.746  1.00  0.00     0.045 C 
HETATM   22  C29 UNL     1      28.282   7.216  37.398  1.00  0.00     0.168 C 
HETATM   23  C32 UNL     1      28.455   5.756  37.484  1.00  0.00     0.096 C 
HETATM   24  C33 UNL     1      27.179   2.574  36.565  1.00  0.00    -0.015 C 
HETATM   25  C34 UNL     1      27.016   2.054  37.970  1.00  0.00     0.018 C 
HETATM   26  C35 UNL     1      27.384   1.296  35.748  1.00  0.00     0.018 C 
ENDROOT
BRANCH  15  27
HETATM   27  C20 UNL     1      31.248   8.473  44.050  1.00  0.00     0.111 C 
HETATM   28  C21 UNL     1      30.529   9.503  44.951  1.00  0.00     0.054 C 
BRANCH  27  29
HETATM   29  O3  UNL     1      32.530   9.041  43.893  1.00  0.00    -0.383 OA
ATOM     30  H3  UNL     1      33.137   8.820  44.590  1.00  0.00     0.211 HD
ENDBRANCH  27  29
BRANCH  27  31
HETATM   31  C22 UNL     1      31.315   7.237  44.844  1.00  0.00     0.269 C 
HETATM   32  O4  UNL     1      30.326   6.695  45.248  1.00  0.00    -0.304 OA
ENDBRANCH  27  31
ENDBRANCH  15  27
BRANCH  22  33
HETATM   33  O5  UNL     1      28.960   7.966  36.472  1.00  0.00    -0.313 OA
BRANCH  33  34
HETATM   34  C30 UNL     1      28.400   9.099  35.897  1.00  0.00     0.255 C 
HETATM   35  C31 UNL     1      27.612   8.952  34.630  1.00  0.00     0.126 C 
HETATM   36  O6  UNL     1      28.514  10.253  36.380  1.00  0.00    -0.266 OA
ENDBRANCH  33  34
ENDBRANCH  22  33
BRANCH  23  37
HETATM   37  O7  UNL     1      27.520   5.362  38.491  1.00  0.00    -0.386 OA
ATOM     38  H7  UNL     1      27.103   6.167  38.776  1.00  0.00     0.210 HD
ENDBRANCH  23  37
BRANCH   7  39
HETATM   39  O2  UNL     1      30.750   3.303  36.522  1.00  0.00    -0.349 OA
BRANCH  39  40
HETATM   40  C9  UNL     1      31.902   2.623  36.441  1.00  0.00     0.054 C 
HETATM   41  C10 UNL     1      33.077   2.976  37.261  1.00  0.00     0.077 C 
HETATM   42  C11 UNL     1      32.007   1.596  35.598  1.00  0.00     0.116 C 
HETATM   43 CL1  UNL     1      33.506   0.727  35.505  1.00  0.00    -0.094 Cl
ENDBRANCH  39  40
ENDBRANCH   7  39
BRANCH   1  44
HETATM   44  O1  UNL     1      24.813   2.343  36.769  1.00  0.00    -0.390 OA
HETATM   45  C1  UNL     1      23.848   1.850  35.934  1.00  0.00     0.202 C 
ENDBRANCH   1  44
TORSDOF 9
ENDMDL
MODEL 3
REMARK VINA RESULT: -7.822762665      2.990      5.625
REMARK  9 active torsions:
REMARK  status: ('A' for Active; 'I' for Inactive)
REMARK    1  A    between atoms: O1_2  and  C2_3 
REMARK    2  A    between atoms: C8_9  and  O2_10 
REMARK    3  A    between atoms: O2_10  and  C9_11 
REMARK    4  A    between atoms: C19_22  and  C20_23 
REMARK    5  A    between atoms: C20_23  and  O3_25 
REMARK    6  A    between atoms: C20_23  and  C22_27 
REMARK    7  A    between atoms: C29_35  and  O5_36 
REMARK    8  A    between atoms: O5_36  and  C30_37 
REMARK    9  A    between atoms: C32_40  and  O7_41 
ROOT
HETATM    1  C2  UNL     1      24.746   3.312  35.486  1.00  0.00     0.129 C 
HETATM    2  C3  UNL     1      25.081   3.209  36.959  1.00  0.00     0.033 C 
HETATM    3  C4  UNL     1      25.663   4.512  37.335  1.00  0.00     0.015 C 
HETATM    4  C5  UNL     1      26.938   4.920  36.650  1.00  0.00    -0.003 C 
HETATM    5  C6  UNL     1      26.976   6.441  36.900  1.00  0.00     0.019 C 
HETATM    6  C7  UNL     1      26.848   4.707  35.173  1.00  0.00     0.036 C 
HETATM    7  C8  UNL     1      28.180   4.668  34.473  1.00  0.00     0.134 C 
HETATM    8  C12 UNL     1      29.197   3.820  35.198  1.00  0.00     0.041 C 
HETATM    9  C13 UNL     1      29.430   4.480  36.553  1.00  0.00     0.031 C 
HETATM   10  C14 UNL     1      30.460   3.619  37.272  1.00  0.00     0.001 C 
HETATM   11  C15 UNL     1      31.651   3.273  36.439  1.00  0.00     0.007 C 
HETATM   12  C16 UNL     1      32.515   2.292  37.201  1.00  0.00     0.010 C 
HETATM   13  C17 UNL     1      32.979   2.853  38.515  1.00  0.00    -0.033 C 
HETATM   14  C18 UNL     1      33.934   3.950  38.226  1.00  0.00     0.016 C 
HETATM   15  C19 UNL     1      33.502   1.855  39.471  1.00  0.00     0.035 C 
HETATM   16  C23 UNL     1      33.417   2.622  40.804  1.00  0.00     0.009 C 
HETATM   17  C24 UNL     1      32.336   3.691  40.583  1.00  0.00     0.007 C 
HETATM   18  C25 UNL     1      31.749   3.237  39.291  1.00  0.00     0.003 C 
HETATM   19  C26 UNL     1      30.752   4.100  38.656  1.00  0.00    -0.033 C 
HETATM   20  C27 UNL     1      31.044   5.547  38.807  1.00  0.00     0.016 C 
HETATM   21  C28 UNL     1      29.431   3.846  39.401  1.00  0.00     0.045 C 
HETATM   22  C29 UNL     1      28.266   4.618  38.775  1.00  0.00     0.168 C 
HETATM   23  C32 UNL     1      28.140   4.338  37.334  1.00  0.00     0.096 C 
HETATM   24  C33 UNL     1      25.929   3.653  34.643  1.00  0.00    -0.015 C 
HETATM   25  C34 UNL     1      26.554   2.337  34.253  1.00  0.00     0.018 C 
HETATM   26  C35 UNL     1      25.314   4.143  33.331  1.00  0.00     0.018 C 
ENDROOT
BRANCH  15  27
HETATM   27  C20 UNL     1      34.863   1.337  39.356  1.00  0.00     0.111 C 
HETATM   28  C21 UNL     1      34.989   0.218  40.415  1.00  0.00     0.054 C 
BRANCH  27  29
HETATM   29  O3  UNL     1      35.860   2.254  39.753  1.00  0.00    -0.383 OA
ATOM     30  H3  UNL     1      35.785   3.106  39.340  1.00  0.00     0.211 HD
ENDBRANCH  27  29
BRANCH  27  31
HETATM   31  C22 UNL     1      35.211   0.706  38.075  1.00  0.00     0.269 C 
HETATM   32  O4  UNL     1      36.058   1.161  37.359  1.00  0.00    -0.304 OA
ENDBRANCH  27  31
ENDBRANCH  15  27
BRANCH  22  33
HETATM   33  O5  UNL     1      28.376   5.900  39.250  1.00  0.00    -0.313 OA
BRANCH  33  34
HETATM   34  C30 UNL     1      27.492   6.407  40.194  1.00  0.00     0.255 C 
HETATM   35  C31 UNL     1      27.414   7.891  40.387  1.00  0.00     0.126 C 
HETATM   36  O6  UNL     1      26.747   5.688  40.906  1.00  0.00    -0.266 OA
ENDBRANCH  33  34
ENDBRANCH  22  33
BRANCH  23  37
HETATM   37  O7  UNL     1      27.960   2.922  37.278  1.00  0.00    -0.386 OA
ATOM     38  H7  UNL     1      28.404   2.642  36.486  1.00  0.00     0.210 HD
ENDBRANCH  23  37
BRANCH   7  39
HETATM   39  O2  UNL     1      28.778   5.895  34.272  1.00  0.00    -0.349 OA
BRANCH  39  40
HETATM   40  C9  UNL     1      28.363   7.115  33.904  1.00  0.00     0.054 C 
HETATM   41  C10 UNL     1      27.279   7.308  32.920  1.00  0.00     0.077 C 
HETATM   42  C11 UNL     1      28.936   8.197  34.430  1.00  0.00     0.116 C 
HETATM   43 CL1  UNL     1      28.386   9.769  33.942  1.00  0.00    -0.094 Cl
ENDBRANCH  39  40
ENDBRANCH   7  39
BRANCH   1  44
HETATM   44  O1  UNL     1      24.202   2.082  35.138  1.00  0.00    -0.390 OA
HETATM   45  C1  UNL     1      23.561   1.420  36.150  1.00  0.00     0.202 C 
ENDBRANCH   1  44
TORSDOF 9
ENDMDL
MODEL 4
REMARK VINA RESULT: -7.774641472      3.273      5.464
REMARK  9 active torsions:
REMARK  status: ('A' for Active; 'I' for Inactive)
REMARK    1  A    between atoms: O1_2  and  C2_3 
REMARK    2  A    between atoms: C8_9  and  O2_10 
REMARK    3  A    between atoms: O2_10  and  C9_11 
REMARK    4  A    between atoms: C19_22  and  C20_23 
REMARK    5  A    between atoms: C20_23  and  O3_25 
REMARK    6  A    between atoms: C20_23  and  C22_27 
REMARK    7  A    between atoms: C29_35  and  O5_36 
REMARK    8  A    between atoms: O5_36  and  C30_37 
REMARK    9  A    between atoms: C32_40  and  O7_41 
ROOT
HETATM    1  C2  UNL     1      25.704   4.563  35.910  1.00  0.00     0.129 C 
HETATM    2  C3  UNL     1      26.064   4.653  37.378  1.00  0.00     0.033 C 
HETATM    3  C4  UNL     1      26.334   6.080  37.642  1.00  0.00     0.015 C 
HETATM    4  C5  UNL     1      27.475   6.716  36.897  1.00  0.00    -0.003 C 
HETATM    5  C6  UNL     1      27.163   8.220  37.034  1.00  0.00     0.019 C 
HETATM    6  C7  UNL     1      27.426   6.374  35.443  1.00  0.00     0.036 C 
HETATM    7  C8  UNL     1      28.725   6.587  34.714  1.00  0.00     0.134 C 
HETATM    8  C12 UNL     1      29.916   6.054  35.474  1.00  0.00     0.041 C 
HETATM    9  C13 UNL     1      30.000   6.852  36.771  1.00  0.00     0.031 C 
HETATM   10  C14 UNL     1      31.206   6.309  37.525  1.00  0.00     0.001 C 
HETATM   11  C15 UNL     1      32.439   6.181  36.690  1.00  0.00     0.007 C 
HETATM   12  C16 UNL     1      33.512   5.486  37.501  1.00  0.00     0.010 C 
HETATM   13  C17 UNL     1      33.843   6.239  38.759  1.00  0.00    -0.033 C 
HETATM   14  C18 UNL     1      34.518   7.500  38.366  1.00  0.00     0.016 C 
HETATM   15  C19 UNL     1      34.589   5.465  39.772  1.00  0.00     0.035 C 
HETATM   16  C23 UNL     1      34.339   6.293  41.047  1.00  0.00     0.009 C 
HETATM   17  C24 UNL     1      33.039   7.065  40.775  1.00  0.00     0.007 C 
HETATM   18  C25 UNL     1      32.563   6.390  39.535  1.00  0.00     0.003 C 
HETATM   19  C26 UNL     1      31.390   6.950  38.862  1.00  0.00    -0.033 C 
HETATM   20  C27 UNL     1      31.342   8.432  38.899  1.00  0.00     0.016 C 
HETATM   21  C28 UNL     1      30.168   6.458  39.657  1.00  0.00     0.045 C 
HETATM   22  C29 UNL     1      28.852   6.891  39.005  1.00  0.00     0.168 C 
HETATM   23  C32 UNL     1      28.784   6.480  37.592  1.00  0.00     0.096 C 
HETATM   24  C33 UNL     1      26.771   5.099  35.015  1.00  0.00    -0.015 C 
HETATM   25  C34 UNL     1      27.679   3.936  34.708  1.00  0.00     0.018 C 
HETATM   26  C35 UNL     1      26.050   5.332  33.686  1.00  0.00     0.018 C 
ENDROOT
BRANCH  15  27
HETATM   27  C20 UNL     1      36.032   5.265  39.662  1.00  0.00     0.111 C 
HETATM   28  C21 UNL     1      36.426   4.317  40.817  1.00  0.00     0.054 C 
BRANCH  27  29
HETATM   29  O3  UNL     1      36.792   6.422  39.937  1.00  0.00    -0.383 OA
ATOM     30  H3  UNL     1      36.949   6.568  40.862  1.00  0.00     0.211 HD
ENDBRANCH  27  29
BRANCH  27  31
HETATM   31  C22 UNL     1      36.504   4.606  38.435  1.00  0.00     0.269 C 
HETATM   32  O4  UNL     1      36.342   3.433  38.250  1.00  0.00    -0.304 OA
ENDBRANCH  27  31
ENDBRANCH  15  27
BRANCH  22  33
HETATM   33  O5  UNL     1      28.667   8.197  39.382  1.00  0.00    -0.313 OA
BRANCH  33  34
HETATM   34  C30 UNL     1      28.061   8.531  40.586  1.00  0.00     0.255 C 
HETATM   35  C31 UNL     1      28.901   9.124  41.677  1.00  0.00     0.126 C 
HETATM   36  O6  UNL     1      26.838   8.363  40.820  1.00  0.00    -0.266 OA
ENDBRANCH  33  34
ENDBRANCH  22  33
BRANCH  23  37
HETATM   37  O7  UNL     1      28.934   5.060  37.646  1.00  0.00    -0.386 OA
ATOM     38  H7  UNL     1      29.757   4.910  38.098  1.00  0.00     0.210 HD
ENDBRANCH  23  37
BRANCH   7  39
HETATM   39  O2  UNL     1      29.023   7.899  34.409  1.00  0.00    -0.349 OA
BRANCH  39  40
HETATM   40  C9  UNL     1      28.435   8.877  33.705  1.00  0.00     0.054 C 
HETATM   41  C10 UNL     1      27.655   8.599  32.483  1.00  0.00     0.077 C 
HETATM   42  C11 UNL     1      28.551  10.142  34.105  1.00  0.00     0.116 C 
HETATM   43 CL1  UNL     1      27.783  11.395  33.182  1.00  0.00    -0.094 Cl
ENDBRANCH  39  40
ENDBRANCH   7  39
BRANCH   1  44
HETATM   44  O1  UNL     1      25.456   3.218  35.668  1.00  0.00    -0.390 OA
HETATM   45  C1  UNL     1      24.645   2.600  36.580  1.00  0.00     0.202 C 
ENDBRANCH   1  44
TORSDOF 9
ENDMDL
MODEL 5
REMARK VINA RESULT: -7.725832993      2.187      3.333
REMARK  9 active torsions:
REMARK  status: ('A' for Active; 'I' for Inactive)
REMARK    1  A    between atoms: O1_2  and  C2_3 
REMARK    2  A    between atoms: C8_9  and  O2_10 
REMARK    3  A    between atoms: O2_10  and  C9_11 
REMARK    4  A    between atoms: C19_22  and  C20_23 
REMARK    5  A    between atoms: C20_23  and  O3_25 
REMARK    6  A    between atoms: C20_23  and  C22_27 
REMARK    7  A    between atoms: C29_35  and  O5_36 
REMARK    8  A    between atoms: O5_36  and  C30_37 
REMARK    9  A    between atoms: C32_40  and  O7_41 
ROOT
HETATM    1  C2  UNL     1      29.377   2.444  36.278  1.00  0.00     0.129 C 
HETATM    2  C3  UNL     1      28.365   3.432  36.819  1.00  0.00     0.033 C 
HETATM    3  C4  UNL     1      28.800   4.760  36.345  1.00  0.00     0.015 C 
HETATM    4  C5  UNL     1      30.144   5.251  36.807  1.00  0.00    -0.003 C 
HETATM    5  C6  UNL     1      30.460   6.362  35.786  1.00  0.00     0.019 C 
HETATM    6  C7  UNL     1      31.186   4.190  36.658  1.00  0.00     0.036 C 
HETATM    7  C8  UNL     1      32.427   4.423  37.477  1.00  0.00     0.134 C 
HETATM    8  C12 UNL     1      32.121   4.849  38.893  1.00  0.00     0.041 C 
HETATM    9  C13 UNL     1      31.395   6.187  38.800  1.00  0.00     0.031 C 
HETATM   10  C14 UNL     1      31.096   6.607  40.233  1.00  0.00     0.001 C 
HETATM   11  C15 UNL     1      32.267   6.500  41.155  1.00  0.00     0.007 C 
HETATM   12  C16 UNL     1      31.809   6.787  42.568  1.00  0.00     0.010 C 
HETATM   13  C17 UNL     1      31.204   8.157  42.696  1.00  0.00    -0.033 C 
HETATM   14  C18 UNL     1      32.291   9.149  42.514  1.00  0.00     0.016 C 
HETATM   15  C19 UNL     1      30.408   8.377  43.921  1.00  0.00     0.035 C 
HETATM   16  C23 UNL     1      29.565   9.606  43.532  1.00  0.00     0.009 C 
HETATM   17  C24 UNL     1      29.513   9.587  41.996  1.00  0.00     0.007 C 
HETATM   18  C25 UNL     1      30.069   8.234  41.711  1.00  0.00     0.003 C 
HETATM   19  C26 UNL     1      30.321   7.882  40.313  1.00  0.00    -0.033 C 
HETATM   20  C27 UNL     1      30.825   9.017  39.502  1.00  0.00     0.016 C 
HETATM   21  C28 UNL     1      28.955   7.498  39.718  1.00  0.00     0.045 C 
HETATM   22  C29 UNL     1      29.081   7.010  38.272  1.00  0.00     0.168 C 
HETATM   23  C32 UNL     1      30.054   5.911  38.152  1.00  0.00     0.096 C 
HETATM   24  C33 UNL     1      30.774   2.753  36.701  1.00  0.00    -0.015 C 
HETATM   25  C34 UNL     1      30.985   2.022  38.003  1.00  0.00     0.018 C 
HETATM   26  C35 UNL     1      31.638   1.959  35.719  1.00  0.00     0.018 C 
ENDROOT
BRANCH  15  27
HETATM   27  C20 UNL     1      31.049   8.679  45.198  1.00  0.00     0.111 C 
HETATM   28  C21 UNL     1      29.927   8.657  46.260  1.00  0.00     0.054 C 
BRANCH  27  29
HETATM   29  O3  UNL     1      31.541   9.998  45.293  1.00  0.00    -0.383 OA
ATOM     30  H3  UNL     1      31.756  10.265  46.179  1.00  0.00     0.211 HD
ENDBRANCH  27  29
BRANCH  27  31
HETATM   31  C22 UNL     1      32.052   7.710  45.666  1.00  0.00     0.269 C 
HETATM   32  O4  UNL     1      33.185   8.033  45.884  1.00  0.00    -0.304 OA
ENDBRANCH  27  31
ENDBRANCH  15  27
BRANCH  22  33
HETATM   33  O5  UNL     1      29.181   8.144  37.508  1.00  0.00    -0.313 OA
BRANCH  33  34
HETATM   34  C30 UNL     1      28.102   8.633  36.782  1.00  0.00     0.255 C 
HETATM   35  C31 UNL     1      26.813   7.869  36.800  1.00  0.00     0.126 C 
HETATM   36  O6  UNL     1      28.142   9.689  36.103  1.00  0.00    -0.266 OA
ENDBRANCH  33  34
ENDBRANCH  22  33
BRANCH  23  37
HETATM   37  O7  UNL     1      29.544   4.909  39.033  1.00  0.00    -0.386 OA
ATOM     38  H7  UNL     1      30.001   4.109  38.798  1.00  0.00     0.210 HD
ENDBRANCH  23  37
BRANCH   7  39
HETATM   39  O2  UNL     1      33.298   5.368  36.974  1.00  0.00    -0.349 OA
BRANCH  39  40
HETATM   40  C9  UNL     1      34.539   5.780  37.268  1.00  0.00     0.054 C 
HETATM   41  C10 UNL     1      34.826   7.171  37.671  1.00  0.00     0.077 C 
HETATM   42  C11 UNL     1      35.556   4.922  37.198  1.00  0.00     0.116 C 
HETATM   43 CL1  UNL     1      37.157   5.473  37.582  1.00  0.00    -0.094 Cl
ENDBRANCH  39  40
ENDBRANCH   7  39
BRANCH   1  44
HETATM   44  O1  UNL     1      28.964   1.198  36.731  1.00  0.00    -0.390 OA
HETATM   45  C1  UNL     1      27.650   0.897  36.496  1.00  0.00     0.202 C 
ENDBRANCH   1  44
TORSDOF 9
ENDMDL
