MODEL 1
REMARK VINA RESULT: -10.485888236      0.000      0.000
REMARK  7 active torsions:
REMARK  status: ('A' for Active; 'I' for Inactive)
REMARK    1  A    between atoms: C2_2  and  C4_4 
REMARK    2  A    between atoms: C15_17  and  C16_18 
REMARK    3  A    between atoms: C19_23  and  C20_24 
REMARK    4  A    between atoms: C21_25  and  O4_26 
REMARK    5  A    between atoms: O4_26  and  C22_27 
REMARK    6  A    between atoms: C22_27  and  C23_29 
REMARK    7  A    between atoms: C25_31  and  O6_32 
ROOT
HETATM    1  C4  UNL     1      25.670   1.559  35.596  1.00  0.00     0.022 C 
HETATM    2  C5  UNL     1      26.923   0.725  35.670  1.00  0.00     0.010 C 
HETATM    3  C6  UNL     1      28.050   1.674  35.249  1.00  0.00     0.006 C 
HETATM    4  C7  UNL     1      27.377   2.949  34.935  1.00  0.00    -0.001 C 
HETATM    5  C8  UNL     1      28.210   4.179  35.057  1.00  0.00    -0.005 C 
HETATM    6  C9  UNL     1      29.103   4.199  33.828  1.00  0.00     0.008 C 
HETATM    7  C10 UNL     1      29.876   5.458  33.688  1.00  0.00     0.036 C 
HETATM    8  C11 UNL     1      29.104   6.710  33.937  1.00  0.00     0.171 C 
HETATM    9  O1  UNL     1      28.261   7.070  32.924  1.00  0.00    -0.232 OA
HETATM   10  O2  UNL     1      28.287   8.284  32.529  1.00  0.00    -0.200 OA
HETATM   11  C12 UNL     1      28.219   9.267  33.494  1.00  0.00     0.198 C 
HETATM   12  C13 UNL     1      29.424  10.199  33.209  1.00  0.00     0.072 C 
HETATM   13  C14 UNL     1      28.929  10.791  31.867  1.00  0.00     0.011 C 
HETATM   14  C15 UNL     1      27.599  11.319  32.297  1.00  0.00     0.009 C 
HETATM   15  C18 UNL     1      27.098  10.265  33.282  1.00  0.00     0.077 C 
HETATM   16  O3  UNL     1      28.358   8.871  34.767  1.00  0.00    -0.342 OA
HETATM   17  C19 UNL     1      27.477   7.938  35.284  1.00  0.00     0.161 C 
HETATM   18  C28 UNL     1      28.213   6.600  35.185  1.00  0.00     0.019 C 
HETATM   19  C29 UNL     1      29.095   6.403  36.426  1.00  0.00     0.021 C 
HETATM   20  C30 UNL     1      27.325   5.418  34.984  1.00  0.00     0.003 C 
HETATM   21  C31 UNL     1      26.188   5.328  35.937  1.00  0.00     0.007 C 
HETATM   22  C32 UNL     1      25.341   4.093  35.609  1.00  0.00     0.010 C 
HETATM   23  C33 UNL     1      26.193   2.901  35.927  1.00  0.00    -0.033 C 
HETATM   24  C34 UNL     1      26.717   2.993  37.349  1.00  0.00     0.016 C 
ENDROOT
BRANCH  17  25
HETATM   25  C20 UNL     1      27.399   8.292  36.756  1.00  0.00     0.030 C 
HETATM   26  C21 UNL     1      28.051   9.371  37.188  1.00  0.00     0.144 C 
BRANCH  26  27
HETATM   27  O4  UNL     1      28.031   9.742  38.528  1.00  0.00    -0.290 OA
BRANCH  27  28
HETATM   28  C22 UNL     1      28.739   8.835  39.365  1.00  0.00     0.294 C 
HETATM   29  O5  UNL     1      28.071   7.910  39.894  1.00  0.00    -0.263 OA
BRANCH  28  30
HETATM   30  C23 UNL     1      30.139   8.991  39.603  1.00  0.00     0.288 C 
HETATM   31  C24 UNL     1      30.748   9.889  40.527  1.00  0.00     0.077 C 
HETATM   32  C25 UNL     1      32.099   9.156  40.808  1.00  0.00     0.150 C 
HETATM   33  C26 UNL     1      32.056   7.916  40.001  1.00  0.00     0.211 C 
HETATM   34  C27 UNL     1      32.625   8.044  38.597  1.00  0.00     0.043 C 
HETATM   35  N1  UNL     1      30.663   7.593  39.881  1.00  0.00    -0.055 N 
ATOM     36  H12 UNL     1      30.242   7.095  40.664  1.00  0.00     0.278 HD
ATOM     37  H11 UNL     1      30.419   6.872  39.202  1.00  0.00     0.278 HD
BRANCH  32  38
HETATM   38  O6  UNL     1      33.183   9.944  40.474  1.00  0.00    -0.393 OA
ATOM     39  H6  UNL     1      33.978   9.429  40.397  1.00  0.00     0.210 HD
ENDBRANCH  32  38
ENDBRANCH  28  30
ENDBRANCH  27  28
ENDBRANCH  26  27
ENDBRANCH  17  25
BRANCH  14  40
HETATM   40  C16 UNL     1      26.613  11.497  31.180  1.00  0.00     0.082 C 
HETATM   41  C17 UNL     1      26.422  10.267  30.350  1.00  0.00     0.027 C 
HETATM   42 CL1  UNL     1      25.106  12.188  31.719  1.00  0.00    -0.125 Cl
ENDBRANCH  14  40
BRANCH   1  43
HETATM   43  C2  UNL     1      24.540   1.035  36.340  1.00  0.00    -0.088 C 
HETATM   44  C1  UNL     1      24.634   0.243  37.396  1.00  0.00     0.014 C 
HETATM   45  C3  UNL     1      23.139   1.334  35.870  1.00  0.00     0.043 C 
ENDBRANCH   1  43
TORSDOF 7
ENDMDL
MODEL 2
REMARK VINA RESULT: -10.103830049      1.067      1.746
REMARK  7 active torsions:
REMARK  status: ('A' for Active; 'I' for Inactive)
REMARK    1  A    between atoms: C2_2  and  C4_4 
REMARK    2  A    between atoms: C15_17  and  C16_18 
REMARK    3  A    between atoms: C19_23  and  C20_24 
REMARK    4  A    between atoms: C21_25  and  O4_26 
REMARK    5  A    between atoms: O4_26  and  C22_27 
REMARK    6  A    between atoms: C22_27  and  C23_29 
REMARK    7  A    between atoms: C25_31  and  O6_32 
ROOT
HETATM    1  C4  UNL     1      25.550   1.598  35.470  1.00  0.00     0.022 C 
HETATM    2  C5  UNL     1      26.796   0.754  35.552  1.00  0.00     0.010 C 
HETATM    3  C6  UNL     1      27.936   1.700  35.163  1.00  0.00     0.006 C 
HETATM    4  C7  UNL     1      27.278   2.985  34.857  1.00  0.00    -0.001 C 
HETATM    5  C8  UNL     1      28.119   4.206  35.010  1.00  0.00    -0.005 C 
HETATM    6  C9  UNL     1      29.031   4.237  33.796  1.00  0.00     0.008 C 
HETATM    7  C10 UNL     1      29.816   5.492  33.686  1.00  0.00     0.036 C 
HETATM    8  C11 UNL     1      29.049   6.746  33.941  1.00  0.00     0.171 C 
HETATM    9  O1  UNL     1      28.225   7.127  32.920  1.00  0.00    -0.232 OA
HETATM   10  O2  UNL     1      28.266   8.346  32.543  1.00  0.00    -0.200 OA
HETATM   11  C12 UNL     1      28.190   9.316  33.521  1.00  0.00     0.198 C 
HETATM   12  C13 UNL     1      29.406  10.243  33.269  1.00  0.00     0.072 C 
HETATM   13  C14 UNL     1      28.938  10.858  31.928  1.00  0.00     0.011 C 
HETATM   14  C15 UNL     1      27.605  11.389  32.344  1.00  0.00     0.009 C 
HETATM   15  C18 UNL     1      27.080  10.325  33.306  1.00  0.00     0.077 C 
HETATM   16  O3  UNL     1      28.306   8.900  34.790  1.00  0.00    -0.342 OA
HETATM   17  C19 UNL     1      27.409   7.967  35.280  1.00  0.00     0.161 C 
HETATM   18  C28 UNL     1      28.137   6.625  35.173  1.00  0.00     0.019 C 
HETATM   19  C29 UNL     1      28.997   6.403  36.425  1.00  0.00     0.021 C 
HETATM   20  C30 UNL     1      27.244   5.453  34.940  1.00  0.00     0.003 C 
HETATM   21  C31 UNL     1      26.091   5.358  35.874  1.00  0.00     0.007 C 
HETATM   22  C32 UNL     1      25.240   4.134  35.514  1.00  0.00     0.010 C 
HETATM   23  C33 UNL     1      26.078   2.932  35.829  1.00  0.00    -0.033 C 
HETATM   24  C34 UNL     1      26.580   2.999  37.261  1.00  0.00     0.016 C 
ENDROOT
BRANCH  17  25
HETATM   25  C20 UNL     1      27.311   8.300  36.755  1.00  0.00     0.030 C 
HETATM   26  C21 UNL     1      28.133   9.220  37.257  1.00  0.00     0.144 C 
BRANCH  26  27
HETATM   27  O4  UNL     1      28.102   9.562  38.605  1.00  0.00    -0.290 OA
BRANCH  27  28
HETATM   28  C22 UNL     1      29.263   9.138  39.311  1.00  0.00     0.294 C 
HETATM   29  O5  UNL     1      30.242   9.926  39.320  1.00  0.00    -0.263 OA
BRANCH  28  30
HETATM   30  C23 UNL     1      29.309   7.864  39.956  1.00  0.00     0.288 C 
HETATM   31  C24 UNL     1      28.272   6.887  39.979  1.00  0.00     0.077 C 
HETATM   32  C25 UNL     1      29.101   5.579  40.197  1.00  0.00     0.150 C 
HETATM   33  C26 UNL     1      30.517   6.008  40.251  1.00  0.00     0.211 C 
HETATM   34  C27 UNL     1      31.031   6.351  41.640  1.00  0.00     0.043 C 
HETATM   35  N1  UNL     1      30.580   7.200  39.455  1.00  0.00    -0.055 N 
ATOM     36  H12 UNL     1      30.660   7.071  38.446  1.00  0.00     0.278 HD
ATOM     37  H11 UNL     1      31.437   7.748  39.521  1.00  0.00     0.278 HD
BRANCH  32  38
HETATM   38  O6  UNL     1      28.722   4.925  41.352  1.00  0.00    -0.393 OA
ATOM     39  H6  UNL     1      28.027   4.299  41.187  1.00  0.00     0.210 HD
ENDBRANCH  32  38
ENDBRANCH  28  30
ENDBRANCH  27  28
ENDBRANCH  26  27
ENDBRANCH  17  25
BRANCH  14  40
HETATM   40  C16 UNL     1      26.639  11.591  31.214  1.00  0.00     0.082 C 
HETATM   41  C17 UNL     1      26.508  10.398  30.320  1.00  0.00     0.027 C 
HETATM   42 CL1  UNL     1      25.097  12.204  31.750  1.00  0.00    -0.125 Cl
ENDBRANCH  14  40
BRANCH   1  43
HETATM   43  C2  UNL     1      24.405   1.073  36.188  1.00  0.00    -0.088 C 
HETATM   44  C1  UNL     1      23.143   1.337  35.893  1.00  0.00     0.014 C 
HETATM   45  C3  UNL     1      24.625   0.213  37.408  1.00  0.00     0.043 C 
ENDBRANCH   1  43
TORSDOF 7
ENDMDL
MODEL 3
REMARK VINA RESULT: -9.469381020      4.153      7.413
REMARK  7 active torsions:
REMARK  status: ('A' for Active; 'I' for Inactive)
REMARK    1  A    between atoms: C2_2  and  C4_4 
REMARK    2  A    between atoms: C15_17  and  C16_18 
REMARK    3  A    between atoms: C19_23  and  C20_24 
REMARK    4  A    between atoms: C21_25  and  O4_26 
REMARK    5  A    between atoms: O4_26  and  C22_27 
REMARK    6  A    between atoms: C22_27  and  C23_29 
REMARK    7  A    between atoms: C25_31  and  O6_32 
ROOT
HETATM    1  C4  UNL     1      25.027   4.031  36.236  1.00  0.00     0.022 C 
HETATM    2  C5  UNL     1      24.770   4.909  35.038  1.00  0.00     0.010 C 
HETATM    3  C6  UNL     1      25.572   6.185  35.309  1.00  0.00     0.006 C 
HETATM    4  C7  UNL     1      26.193   5.972  36.631  1.00  0.00    -0.001 C 
HETATM    5  C8  UNL     1      27.443   6.738  36.901  1.00  0.00    -0.005 C 
HETATM    6  C9  UNL     1      27.001   8.162  37.196  1.00  0.00     0.008 C 
HETATM    7  C10 UNL     1      28.106   9.030  37.671  1.00  0.00     0.036 C 
HETATM    8  C11 UNL     1      29.004   8.416  38.692  1.00  0.00     0.171 C 
HETATM    9  O1  UNL     1      28.471   8.342  39.948  1.00  0.00    -0.232 OA
HETATM   10  O2  UNL     1      29.190   8.737  40.926  1.00  0.00    -0.200 OA
HETATM   11  C12 UNL     1      30.483   8.262  40.996  1.00  0.00     0.198 C 
HETATM   12  C13 UNL     1      31.372   9.524  41.136  1.00  0.00     0.072 C 
HETATM   13  C14 UNL     1      30.926   9.949  42.556  1.00  0.00     0.011 C 
HETATM   14  C15 UNL     1      31.213   8.686  43.301  1.00  0.00     0.009 C 
HETATM   15  C18 UNL     1      30.824   7.590  42.310  1.00  0.00     0.077 C 
HETATM   16  O3  UNL     1      30.943   7.610  39.919  1.00  0.00    -0.342 OA
HETATM   17  C19 UNL     1      30.275   6.482  39.476  1.00  0.00     0.161 C 
HETATM   18  C28 UNL     1      29.387   6.972  38.330  1.00  0.00     0.019 C 
HETATM   19  C29 UNL     1      30.187   6.969  37.019  1.00  0.00     0.021 C 
HETATM   20  C30 UNL     1      28.114   6.211  38.164  1.00  0.00     0.003 C 
HETATM   21  C31 UNL     1      28.277   4.735  38.115  1.00  0.00     0.007 C 
HETATM   22  C32 UNL     1      26.901   4.072  37.971  1.00  0.00     0.010 C 
HETATM   23  C33 UNL     1      26.397   4.440  36.608  1.00  0.00    -0.033 C 
HETATM   24  C34 UNL     1      27.426   4.080  35.551  1.00  0.00     0.016 C 
ENDROOT
BRANCH  17  25
HETATM   25  C20 UNL     1      31.369   5.635  38.856  1.00  0.00     0.030 C 
HETATM   26  C21 UNL     1      32.096   4.852  39.652  1.00  0.00     0.144 C 
BRANCH  26  27
HETATM   27  O4  UNL     1      33.124   4.060  39.148  1.00  0.00    -0.290 OA
BRANCH  27  28
HETATM   28  C22 UNL     1      32.744   2.698  38.985  1.00  0.00     0.294 C 
HETATM   29  O5  UNL     1      32.708   1.991  40.024  1.00  0.00    -0.263 OA
BRANCH  28  30
HETATM   30  C23 UNL     1      32.444   2.166  37.694  1.00  0.00     0.288 C 
HETATM   31  C24 UNL     1      31.198   2.254  37.009  1.00  0.00     0.077 C 
HETATM   32  C25 UNL     1      31.666   2.131  35.522  1.00  0.00     0.150 C 
HETATM   33  C26 UNL     1      33.140   2.004  35.578  1.00  0.00     0.211 C 
HETATM   34  C27 UNL     1      33.658   0.578  35.671  1.00  0.00     0.043 C 
HETATM   35  N1  UNL     1      33.533   2.692  36.774  1.00  0.00    -0.055 N 
ATOM     36  H12 UNL     1      33.624   3.705  36.708  1.00  0.00     0.278 HD
ATOM     37  H11 UNL     1      34.495   2.556  37.083  1.00  0.00     0.278 HD
BRANCH  32  38
HETATM   38  O6  UNL     1      31.085   1.047  34.896  1.00  0.00    -0.393 OA
ATOM     39  H6  UNL     1      30.664   0.467  35.521  1.00  0.00     0.210 HD
ENDBRANCH  32  38
ENDBRANCH  28  30
ENDBRANCH  27  28
ENDBRANCH  26  27
ENDBRANCH  17  25
BRANCH  14  40
HETATM   40  C16 UNL     1      30.441   8.531  44.578  1.00  0.00     0.082 C 
HETATM   41  C17 UNL     1      30.659   7.211  45.251  1.00  0.00     0.027 C 
HETATM   42 CL1  UNL     1      30.652   9.882  45.659  1.00  0.00    -0.125 Cl
ENDBRANCH  14  40
BRANCH   1  43
HETATM   43  C2  UNL     1      24.737   2.624  36.038  1.00  0.00    -0.088 C 
HETATM   44  C1  UNL     1      24.593   1.739  37.010  1.00  0.00     0.014 C 
HETATM   45  C3  UNL     1      24.652   2.074  34.636  1.00  0.00     0.043 C 
ENDBRANCH   1  43
TORSDOF 7
ENDMDL
MODEL 4
REMARK VINA RESULT: -9.436222618      4.128      6.952
REMARK  7 active torsions:
REMARK  status: ('A' for Active; 'I' for Inactive)
REMARK    1  A    between atoms: C2_2  and  C4_4 
REMARK    2  A    between atoms: C15_17  and  C16_18 
REMARK    3  A    between atoms: C19_23  and  C20_24 
REMARK    4  A    between atoms: C21_25  and  O4_26 
REMARK    5  A    between atoms: O4_26  and  C22_27 
REMARK    6  A    between atoms: C22_27  and  C23_29 
REMARK    7  A    between atoms: C25_31  and  O6_32 
ROOT
HETATM    1  C4  UNL     1      25.246   4.015  35.975  1.00  0.00     0.022 C 
HETATM    2  C5  UNL     1      24.878   4.972  34.870  1.00  0.00     0.010 C 
HETATM    3  C6  UNL     1      25.584   6.282  35.236  1.00  0.00     0.006 C 
HETATM    4  C7  UNL     1      26.264   6.004  36.516  1.00  0.00    -0.001 C 
HETATM    5  C8  UNL     1      27.455   6.845  36.822  1.00  0.00    -0.005 C 
HETATM    6  C9  UNL     1      26.909   8.195  37.258  1.00  0.00     0.008 C 
HETATM    7  C10 UNL     1      27.956   9.107  37.782  1.00  0.00     0.036 C 
HETATM    8  C11 UNL     1      28.934   8.482  38.719  1.00  0.00     0.171 C 
HETATM    9  O1  UNL     1      28.452   8.252  39.976  1.00  0.00    -0.232 OA
HETATM   10  O2  UNL     1      29.169   8.616  40.967  1.00  0.00    -0.200 OA
HETATM   11  C12 UNL     1      30.498   8.247  40.959  1.00  0.00     0.198 C 
HETATM   12  C13 UNL     1      31.285   9.562  41.191  1.00  0.00     0.072 C 
HETATM   13  C14 UNL     1      30.855   9.819  42.655  1.00  0.00     0.011 C 
HETATM   14  C15 UNL     1      31.268   8.523  43.273  1.00  0.00     0.009 C 
HETATM   15  C18 UNL     1      30.937   7.492  42.197  1.00  0.00     0.077 C 
HETATM   16  O3  UNL     1      30.973   7.735  39.815  1.00  0.00    -0.342 OA
HETATM   17  C19 UNL     1      30.384   6.599  39.287  1.00  0.00     0.161 C 
HETATM   18  C28 UNL     1      29.421   7.113  38.215  1.00  0.00     0.019 C 
HETATM   19  C29 UNL     1      30.175   7.295  36.889  1.00  0.00     0.021 C 
HETATM   20  C30 UNL     1      28.210   6.266  38.014  1.00  0.00     0.003 C 
HETATM   21  C31 UNL     1      28.490   4.819  37.825  1.00  0.00     0.007 C 
HETATM   22  C32 UNL     1      27.169   4.059  37.657  1.00  0.00     0.010 C 
HETATM   23  C33 UNL     1      26.591   4.503  36.347  1.00  0.00    -0.033 C 
HETATM   24  C34 UNL     1      27.609   4.327  35.234  1.00  0.00     0.016 C 
ENDROOT
BRANCH  17  25
HETATM   25  C20 UNL     1      31.522   5.905  38.564  1.00  0.00     0.030 C 
HETATM   26  C21 UNL     1      32.743   5.961  39.095  1.00  0.00     0.144 C 
BRANCH  26  27
HETATM   27  O4  UNL     1      33.832   5.357  38.474  1.00  0.00    -0.290 OA
BRANCH  27  28
HETATM   28  C22 UNL     1      34.538   6.242  37.612  1.00  0.00     0.294 C 
HETATM   29  O5  UNL     1      34.281   6.164  36.384  1.00  0.00    -0.263 OA
BRANCH  28  30
HETATM   30  C23 UNL     1      35.509   7.154  38.128  1.00  0.00     0.288 C 
HETATM   31  C24 UNL     1      35.335   8.051  39.221  1.00  0.00     0.077 C 
HETATM   32  C25 UNL     1      36.812   8.231  39.698  1.00  0.00     0.150 C 
HETATM   33  C26 UNL     1      37.627   7.381  38.800  1.00  0.00     0.211 C 
HETATM   34  C27 UNL     1      38.137   8.076  37.547  1.00  0.00     0.043 C 
HETATM   35  N1  UNL     1      36.753   6.321  38.387  1.00  0.00    -0.055 N 
ATOM     36  H12 UNL     1      36.651   5.538  39.032  1.00  0.00     0.278 HD
ATOM     37  H11 UNL     1      37.077   5.735  37.618  1.00  0.00     0.278 HD
BRANCH  32  38
HETATM   38  O6  UNL     1      37.206   9.552  39.643  1.00  0.00    -0.393 OA
ATOM     39  H6  UNL     1      37.932   9.725  40.232  1.00  0.00     0.210 HD
ENDBRANCH  32  38
ENDBRANCH  28  30
ENDBRANCH  27  28
ENDBRANCH  26  27
ENDBRANCH  17  25
BRANCH  14  40
HETATM   40  C16 UNL     1      30.555   8.190  44.550  1.00  0.00     0.082 C 
HETATM   41  C17 UNL     1      30.930   6.855  45.113  1.00  0.00     0.027 C 
HETATM   42 CL1  UNL     1      30.654   9.471  45.729  1.00  0.00    -0.125 Cl
ENDBRANCH  14  40
BRANCH   1  43
HETATM   43  C2  UNL     1      25.065   2.612  35.656  1.00  0.00    -0.088 C 
HETATM   44  C1  UNL     1      25.042   2.114  34.430  1.00  0.00     0.014 C 
HETATM   45  C3  UNL     1      24.812   1.625  36.767  1.00  0.00     0.043 C 
ENDBRANCH   1  43
TORSDOF 7
ENDMDL
MODEL 5
REMARK VINA RESULT: -9.429248928      4.124      7.429
REMARK  7 active torsions:
REMARK  status: ('A' for Active; 'I' for Inactive)
REMARK    1  A    between atoms: C2_2  and  C4_4 
REMARK    2  A    between atoms: C15_17  and  C16_18 
REMARK    3  A    between atoms: C19_23  and  C20_24 
REMARK    4  A    between atoms: C21_25  and  O4_26 
REMARK    5  A    between atoms: O4_26  and  C22_27 
REMARK    6  A    between atoms: C22_27  and  C23_29 
REMARK    7  A    between atoms: C25_31  and  O6_32 
ROOT
HETATM    1  C4  UNL     1      25.217   4.253  36.080  1.00  0.00     0.022 C 
HETATM    2  C5  UNL     1      24.940   5.218  34.956  1.00  0.00     0.010 C 
HETATM    3  C6  UNL     1      25.697   6.493  35.340  1.00  0.00     0.006 C 
HETATM    4  C7  UNL     1      26.314   6.192  36.646  1.00  0.00    -0.001 C 
HETATM    5  C8  UNL     1      27.535   6.974  36.991  1.00  0.00    -0.005 C 
HETATM    6  C9  UNL     1      27.043   8.353  37.398  1.00  0.00     0.008 C 
HETATM    7  C10 UNL     1      28.114   9.216  37.954  1.00  0.00     0.036 C 
HETATM    8  C11 UNL     1      29.024   8.549  38.931  1.00  0.00     0.171 C 
HETATM    9  O1  UNL     1      28.485   8.354  40.170  1.00  0.00    -0.232 OA
HETATM   10  O2  UNL     1      29.183   8.690  41.185  1.00  0.00    -0.200 OA
HETATM   11  C12 UNL     1      30.491   8.254  41.229  1.00  0.00     0.198 C 
HETATM   12  C13 UNL     1      31.335   9.529  41.482  1.00  0.00     0.072 C 
HETATM   13  C14 UNL     1      30.864   9.819  42.927  1.00  0.00     0.011 C 
HETATM   14  C15 UNL     1      31.188   8.510  43.569  1.00  0.00     0.009 C 
HETATM   15  C18 UNL     1      30.844   7.487  42.487  1.00  0.00     0.077 C 
HETATM   16  O3  UNL     1      30.980   7.709  40.106  1.00  0.00    -0.342 OA
HETATM   17  C19 UNL     1      30.355   6.600  39.565  1.00  0.00     0.161 C 
HETATM   18  C28 UNL     1      29.459   7.153  38.454  1.00  0.00     0.019 C 
HETATM   19  C29 UNL     1      30.269   7.286  37.156  1.00  0.00     0.021 C 
HETATM   20  C30 UNL     1      28.214   6.367  38.213  1.00  0.00     0.003 C 
HETATM   21  C31 UNL     1      28.428   4.906  38.044  1.00  0.00     0.007 C 
HETATM   22  C32 UNL     1      27.076   4.213  37.832  1.00  0.00     0.010 C 
HETATM   23  C33 UNL     1      26.570   4.675  36.499  1.00  0.00    -0.033 C 
HETATM   24  C34 UNL     1      27.618   4.438  35.426  1.00  0.00     0.016 C 
ENDROOT
BRANCH  17  25
HETATM   25  C20 UNL     1      31.482   5.844  38.889  1.00  0.00     0.030 C 
HETATM   26  C21 UNL     1      32.727   6.037  39.320  1.00  0.00     0.144 C 
BRANCH  26  27
HETATM   27  O4  UNL     1      33.807   5.384  38.734  1.00  0.00    -0.290 OA
BRANCH  27  28
HETATM   28  C22 UNL     1      33.521   4.907  37.424  1.00  0.00     0.294 C 
HETATM   29  O5  UNL     1      33.342   5.773  36.530  1.00  0.00    -0.263 OA
BRANCH  28  30
HETATM   30  C23 UNL     1      33.421   3.508  37.155  1.00  0.00     0.288 C 
HETATM   31  C24 UNL     1      33.106   2.483  38.093  1.00  0.00     0.077 C 
HETATM   32  C25 UNL     1      32.508   1.389  37.151  1.00  0.00     0.150 C 
HETATM   33  C26 UNL     1      32.555   1.967  35.789  1.00  0.00     0.211 C 
HETATM   34  C27 UNL     1      33.832   1.680  35.014  1.00  0.00     0.043 C 
HETATM   35  N1  UNL     1      32.468   3.386  35.978  1.00  0.00    -0.055 N 
ATOM     36  H12 UNL     1      31.533   3.772  36.107  1.00  0.00     0.278 HD
ATOM     37  H11 UNL     1      32.671   3.968  35.166  1.00  0.00     0.278 HD
BRANCH  32  38
HETATM   38  O6  UNL     1      33.220   0.208  37.228  1.00  0.00    -0.393 OA
ATOM     39  H6  UNL     1      33.149  -0.186  38.090  1.00  0.00     0.210 HD
ENDBRANCH  32  38
ENDBRANCH  28  30
ENDBRANCH  27  28
ENDBRANCH  26  27
ENDBRANCH  17  25
BRANCH  14  40
HETATM   40  C16 UNL     1      30.412   8.224  44.820  1.00  0.00     0.082 C 
HETATM   41  C17 UNL     1      30.646   6.850  45.367  1.00  0.00     0.027 C 
HETATM   42 CL1  UNL     1      30.598   9.469  46.025  1.00  0.00    -0.125 Cl
ENDBRANCH  14  40
BRANCH   1  43
HETATM   43  C2  UNL     1      24.977   2.858  35.763  1.00  0.00    -0.088 C 
HETATM   44  C1  UNL     1      24.798   1.901  36.659  1.00  0.00     0.014 C 
HETATM   45  C3  UNL     1      24.991   2.411  34.323  1.00  0.00     0.043 C 
ENDBRANCH   1  43
TORSDOF 7
ENDMDL
