MODEL 1
REMARK VINA RESULT: -8.776526706      0.000      0.000
REMARK  8 active torsions:
REMARK  status: ('A' for Active; 'I' for Inactive)
REMARK    1  A    between atoms: C2_2  and  O2_4 
REMARK    2  A    between atoms: O2_4  and  C3_5 
REMARK    3  A    between atoms: C16_19  and  O3_20 
REMARK    4  A    between atoms: O3_20  and  C17_21 
REMARK    5  A    between atoms: C17_21  and  C18_23 
REMARK    6  A    between atoms: C18_23  and  N1_25 
REMARK       I    between atoms: N1_25  and  C20_27 
REMARK    7  A    between atoms: C20_27  and  C21_29 
REMARK    8  A    between atoms: C27_35  and  C28_36 
ROOT
HETATM    1  C3  UNL     1      25.303   4.302  35.394  1.00  0.00     0.084 C 
HETATM    2  C4  UNL     1      24.824   3.205  34.533  1.00  0.00     0.044 C 
HETATM    3  C5  UNL     1      24.889   1.792  34.926  1.00  0.00    -0.063 C 
HETATM    4  C6  UNL     1      24.319   1.484  36.309  1.00  0.00     0.048 C 
HETATM    5  C7  UNL     1      26.082   1.011  34.556  1.00  0.00    -0.017 C 
HETATM    6  C8  UNL     1      27.394   1.602  34.324  1.00  0.00     0.065 C 
HETATM    7  C9  UNL     1      28.130   2.364  35.400  1.00  0.00     0.062 C 
HETATM    8  C10 UNL     1      28.063   1.464  36.652  1.00  0.00     0.046 C 
HETATM    9  C11 UNL     1      29.609   2.193  34.988  1.00  0.00     0.038 C 
HETATM   10  C12 UNL     1      30.579   2.777  35.904  1.00  0.00     0.006 C 
HETATM   11  C13 UNL     1      30.171   3.760  36.921  1.00  0.00     0.046 C 
HETATM   12  C14 UNL     1      29.857   5.148  36.540  1.00  0.00     0.129 C 
HETATM   13  C15 UNL     1      30.958   5.832  35.772  1.00  0.00     0.054 C 
HETATM   14  F1  UNL     1      29.980   5.821  37.806  1.00  0.00    -0.240 F 
HETATM   15  C16 UNL     1      28.452   5.531  36.171  1.00  0.00     0.210 C 
HETATM   16  C32 UNL     1      27.812   4.773  35.080  1.00  0.00     0.114 C 
HETATM   17  C33 UNL     1      28.545   5.038  33.742  1.00  0.00     0.054 C 
HETATM   18  O6  UNL     1      27.656   3.524  35.443  1.00  0.00    -0.362 OA
HETATM   19  C34 UNL     1      26.391   5.152  34.709  1.00  0.00    -0.013 C 
HETATM   20  C35 UNL     1      26.019   6.555  34.569  1.00  0.00     0.050 C 
ENDROOT
BRANCH  15  21
HETATM   21  O3  UNL     1      28.554   6.955  36.017  1.00  0.00    -0.308 OA
BRANCH  21  22
HETATM   22  C17 UNL     1      28.118   7.865  36.956  1.00  0.00     0.282 C 
HETATM   23  O4  UNL     1      26.922   7.786  37.314  1.00  0.00    -0.263 OA
BRANCH  22  24
HETATM   24  C18 UNL     1      28.977   8.883  37.538  1.00  0.00     0.180 C 
HETATM   25  C19 UNL     1      28.514  10.327  37.288  1.00  0.00     0.043 C 
BRANCH  24  26
HETATM   26  N1  UNL     1      29.199   8.741  38.963  1.00  0.00    -0.344 N 
HETATM   27  C20 UNL     1      30.452   8.472  39.527  1.00  0.00     0.244 C 
HETATM   28  O5  UNL     1      31.424   8.353  38.759  1.00  0.00    -0.268 OA
ATOM     29  H1  UNL     1      28.400   8.842  39.589  1.00  0.00     0.163 HD
BRANCH  27  30
HETATM   30  C21 UNL     1      30.632   8.331  40.970  1.00  0.00    -0.007 C 
HETATM   31  C22 UNL     1      29.448   8.671  41.822  1.00  0.00     0.044 C 
HETATM   32  C23 UNL     1      29.969   9.065  43.183  1.00  0.00    -0.014 C 
HETATM   33  C24 UNL     1      30.293  10.561  43.224  1.00  0.00     0.010 C 
HETATM   34  C25 UNL     1      31.050   8.214  43.727  1.00  0.00     0.005 C 
HETATM   35  C26 UNL     1      32.078   7.742  42.779  1.00  0.00     0.010 C 
HETATM   36  C27 UNL     1      31.536   7.264  41.439  1.00  0.00     0.027 C 
BRANCH  36  37
HETATM   37  C28 UNL     1      31.186   5.852  41.401  1.00  0.00    -0.044 C 
HETATM   38  C29 UNL     1      29.793   5.509  40.963  1.00  0.00     0.015 C 
HETATM   39  C30 UNL     1      32.059   5.222  40.264  1.00  0.00     0.015 C 
HETATM   40  C31 UNL     1      31.537   4.981  42.574  1.00  0.00     0.015 C 
ENDBRANCH  36  37
ENDBRANCH  27  30
ENDBRANCH  24  26
ENDBRANCH  22  24
ENDBRANCH  21  22
ENDBRANCH  15  21
BRANCH   1  41
HETATM   41  O2  UNL     1      25.553   4.039  36.724  1.00  0.00    -0.279 OA
BRANCH  41  42
HETATM   42  C2  UNL     1      25.247   4.835  37.821  1.00  0.00     0.260 C 
HETATM   43  C1  UNL     1      26.094   4.768  39.023  1.00  0.00     0.126 C 
HETATM   44  O1  UNL     1      24.236   5.575  37.703  1.00  0.00    -0.265 OA
ENDBRANCH  41  42
ENDBRANCH   1  41
TORSDOF 8
ENDMDL
MODEL 2
REMARK VINA RESULT: -8.648742672      1.908      3.475
REMARK  8 active torsions:
REMARK  status: ('A' for Active; 'I' for Inactive)
REMARK    1  A    between atoms: C2_2  and  O2_4 
REMARK    2  A    between atoms: O2_4  and  C3_5 
REMARK    3  A    between atoms: C16_19  and  O3_20 
REMARK    4  A    between atoms: O3_20  and  C17_21 
REMARK    5  A    between atoms: C17_21  and  C18_23 
REMARK    6  A    between atoms: C18_23  and  N1_25 
REMARK       I    between atoms: N1_25  and  C20_27 
REMARK    7  A    between atoms: C20_27  and  C21_29 
REMARK    8  A    between atoms: C27_35  and  C28_36 
ROOT
HETATM    1  C3  UNL     1      26.864   4.387  35.479  1.00  0.00     0.084 C 
HETATM    2  C4  UNL     1      27.068   3.395  34.407  1.00  0.00     0.044 C 
HETATM    3  C5  UNL     1      26.291   2.154  34.306  1.00  0.00    -0.063 C 
HETATM    4  C6  UNL     1      24.776   2.336  34.391  1.00  0.00     0.048 C 
HETATM    5  C7  UNL     1      26.809   0.941  34.963  1.00  0.00    -0.017 C 
HETATM    6  C8  UNL     1      27.703   0.966  36.114  1.00  0.00     0.065 C 
HETATM    7  C9  UNL     1      27.302   1.598  37.425  1.00  0.00     0.062 C 
HETATM    8  C10 UNL     1      25.899   1.034  37.734  1.00  0.00     0.046 C 
HETATM    9  C11 UNL     1      28.165   0.833  38.452  1.00  0.00     0.038 C 
HETATM   10  C12 UNL     1      27.934   1.189  39.845  1.00  0.00     0.006 C 
HETATM   11  C13 UNL     1      27.220   2.425  40.207  1.00  0.00     0.046 C 
HETATM   12  C14 UNL     1      27.885   3.735  40.095  1.00  0.00     0.129 C 
HETATM   13  C15 UNL     1      29.192   3.820  40.839  1.00  0.00     0.054 C 
HETATM   14  F1  UNL     1      27.056   4.542  40.951  1.00  0.00    -0.240 F 
HETATM   15  C16 UNL     1      27.794   4.521  38.818  1.00  0.00     0.210 C 
HETATM   16  C32 UNL     1      28.246   3.855  37.583  1.00  0.00     0.114 C 
HETATM   17  C33 UNL     1      29.768   3.583  37.648  1.00  0.00     0.054 C 
HETATM   18  O6  UNL     1      27.463   2.838  37.319  1.00  0.00    -0.362 OA
HETATM   19  C34 UNL     1      28.149   4.643  36.291  1.00  0.00    -0.013 C 
HETATM   20  C35 UNL     1      28.588   6.033  36.246  1.00  0.00     0.050 C 
ENDROOT
BRANCH  15  21
HETATM   21  O3  UNL     1      28.432   5.758  39.175  1.00  0.00    -0.308 OA
BRANCH  21  22
HETATM   22  C17 UNL     1      27.752   6.927  39.440  1.00  0.00     0.282 C 
HETATM   23  O4  UNL     1      26.613   7.050  38.938  1.00  0.00    -0.263 OA
BRANCH  22  24
HETATM   24  C18 UNL     1      28.293   7.995  40.265  1.00  0.00     0.180 C 
HETATM   25  C19 UNL     1      27.237   8.933  40.867  1.00  0.00     0.043 C 
BRANCH  24  26
HETATM   26  N1  UNL     1      29.141   7.544  41.351  1.00  0.00    -0.344 N 
HETATM   27  C20 UNL     1      30.532   7.700  41.360  1.00  0.00     0.244 C 
HETATM   28  O5  UNL     1      31.064   8.257  40.383  1.00  0.00    -0.268 OA
ATOM     29  H1  UNL     1      28.701   7.090  42.151  1.00  0.00     0.163 HD
BRANCH  27  30
HETATM   30  C21 UNL     1      31.352   7.226  42.474  1.00  0.00    -0.007 C 
HETATM   31  C22 UNL     1      32.831   7.194  42.241  1.00  0.00     0.044 C 
HETATM   32  C23 UNL     1      33.412   6.155  43.172  1.00  0.00    -0.014 C 
HETATM   33  C24 UNL     1      33.387   4.771  42.517  1.00  0.00     0.010 C 
HETATM   34  C25 UNL     1      32.882   6.163  44.552  1.00  0.00     0.005 C 
HETATM   35  C26 UNL     1      31.436   6.408  44.718  1.00  0.00     0.010 C 
HETATM   36  C27 UNL     1      30.874   7.518  43.838  1.00  0.00     0.027 C 
BRANCH  36  37
HETATM   37  C28 UNL     1      30.930   8.844  44.435  1.00  0.00    -0.044 C 
HETATM   38  C29 UNL     1      29.987   9.874  43.887  1.00  0.00     0.015 C 
HETATM   39  C30 UNL     1      30.423   8.676  45.907  1.00  0.00     0.015 C 
HETATM   40  C31 UNL     1      32.267   9.495  44.644  1.00  0.00     0.015 C 
ENDBRANCH  36  37
ENDBRANCH  27  30
ENDBRANCH  24  26
ENDBRANCH  22  24
ENDBRANCH  21  22
ENDBRANCH  15  21
BRANCH   1  41
HETATM   41  O2  UNL     1      25.724   4.305  36.249  1.00  0.00    -0.279 OA
BRANCH  41  42
HETATM   42  C2  UNL     1      24.804   5.312  36.516  1.00  0.00     0.260 C 
HETATM   43  C1  UNL     1      24.431   6.254  35.448  1.00  0.00     0.126 C 
HETATM   44  O1  UNL     1      24.345   5.346  37.687  1.00  0.00    -0.265 OA
ENDBRANCH  41  42
ENDBRANCH   1  41
TORSDOF 8
ENDMDL
MODEL 3
REMARK VINA RESULT: -8.495697658      1.819      3.781
REMARK  8 active torsions:
REMARK  status: ('A' for Active; 'I' for Inactive)
REMARK    1  A    between atoms: C2_2  and  O2_4 
REMARK    2  A    between atoms: O2_4  and  C3_5 
REMARK    3  A    between atoms: C16_19  and  O3_20 
REMARK    4  A    between atoms: O3_20  and  C17_21 
REMARK    5  A    between atoms: C17_21  and  C18_23 
REMARK    6  A    between atoms: C18_23  and  N1_25 
REMARK       I    between atoms: N1_25  and  C20_27 
REMARK    7  A    between atoms: C20_27  and  C21_29 
REMARK    8  A    between atoms: C27_35  and  C28_36 
ROOT
HETATM    1  C3  UNL     1      26.482   3.462  36.945  1.00  0.00     0.084 C 
HETATM    2  C4  UNL     1      25.338   2.922  36.188  1.00  0.00     0.044 C 
HETATM    3  C5  UNL     1      25.464   2.366  34.835  1.00  0.00    -0.063 C 
HETATM    4  C6  UNL     1      26.572   1.327  34.668  1.00  0.00     0.048 C 
HETATM    5  C7  UNL     1      25.275   3.264  33.683  1.00  0.00    -0.017 C 
HETATM    6  C8  UNL     1      25.502   4.703  33.735  1.00  0.00     0.065 C 
HETATM    7  C9  UNL     1      26.853   5.288  34.068  1.00  0.00     0.062 C 
HETATM    8  C10 UNL     1      27.855   4.529  33.173  1.00  0.00     0.046 C 
HETATM    9  C11 UNL     1      26.811   6.665  33.369  1.00  0.00     0.038 C 
HETATM   10  C12 UNL     1      28.038   7.445  33.461  1.00  0.00     0.006 C 
HETATM   11  C13 UNL     1      29.081   7.112  34.445  1.00  0.00     0.046 C 
HETATM   12  C14 UNL     1      28.896   7.435  35.871  1.00  0.00     0.129 C 
HETATM   13  C15 UNL     1      28.579   8.884  36.130  1.00  0.00     0.054 C 
HETATM   14  F1  UNL     1      30.254   7.387  36.346  1.00  0.00    -0.240 F 
HETATM   15  C16 UNL     1      28.257   6.438  36.795  1.00  0.00     0.210 C 
HETATM   16  C32 UNL     1      26.916   5.944  36.429  1.00  0.00     0.114 C 
HETATM   17  C33 UNL     1      25.886   7.097  36.489  1.00  0.00     0.054 C 
HETATM   18  O6  UNL     1      26.988   5.259  35.315  1.00  0.00    -0.362 OA
HETATM   19  C34 UNL     1      26.270   4.932  37.356  1.00  0.00    -0.013 C 
HETATM   20  C35 UNL     1      26.303   5.135  38.800  1.00  0.00     0.050 C 
ENDROOT
BRANCH  15  21
HETATM   21  O3  UNL     1      28.402   7.071  38.076  1.00  0.00    -0.308 OA
BRANCH  21  22
HETATM   22  C17 UNL     1      29.395   6.762  38.980  1.00  0.00     0.282 C 
HETATM   23  O4  UNL     1      29.626   5.549  39.180  1.00  0.00    -0.263 OA
BRANCH  22  24
HETATM   24  C18 UNL     1      30.169   7.768  39.689  1.00  0.00     0.180 C 
HETATM   25  C19 UNL     1      29.557   9.176  39.667  1.00  0.00     0.043 C 
BRANCH  24  26
HETATM   26  N1  UNL     1      30.454   7.442  41.073  1.00  0.00    -0.344 N 
HETATM   27  C20 UNL     1      31.728   7.546  41.644  1.00  0.00     0.244 C 
HETATM   28  O5  UNL     1      32.661   7.941  40.922  1.00  0.00    -0.268 OA
ATOM     29  H1  UNL     1      29.686   7.121  41.661  1.00  0.00     0.163 HD
BRANCH  27  30
HETATM   30  C21 UNL     1      31.973   7.202  43.043  1.00  0.00    -0.007 C 
HETATM   31  C22 UNL     1      33.396   7.284  43.506  1.00  0.00     0.044 C 
HETATM   32  C23 UNL     1      33.542   6.349  44.682  1.00  0.00    -0.014 C 
HETATM   33  C24 UNL     1      33.891   4.935  44.207  1.00  0.00     0.010 C 
HETATM   34  C25 UNL     1      32.442   6.383  45.670  1.00  0.00     0.005 C 
HETATM   35  C26 UNL     1      31.069   6.513  45.145  1.00  0.00     0.010 C 
HETATM   36  C27 UNL     1      30.912   7.523  44.016  1.00  0.00     0.027 C 
BRANCH  36  37
HETATM   37  C28 UNL     1      30.620   8.878  44.458  1.00  0.00    -0.044 C 
HETATM   38  C29 UNL     1      29.636   9.662  43.642  1.00  0.00     0.015 C 
HETATM   39  C30 UNL     1      29.878   8.734  45.829  1.00  0.00     0.015 C 
HETATM   40  C31 UNL     1      31.759   9.788  44.821  1.00  0.00     0.015 C 
ENDBRANCH  36  37
ENDBRANCH  27  30
ENDBRANCH  24  26
ENDBRANCH  22  24
ENDBRANCH  21  22
ENDBRANCH  15  21
BRANCH   1  41
HETATM   41  O2  UNL     1      27.758   3.182  36.507  1.00  0.00    -0.279 OA
BRANCH  41  42
HETATM   42  C2  UNL     1      28.839   2.739  37.260  1.00  0.00     0.260 C 
HETATM   43  C1  UNL     1      28.608   1.818  38.385  1.00  0.00     0.126 C 
HETATM   44  O1  UNL     1      29.968   3.172  36.915  1.00  0.00    -0.265 OA
ENDBRANCH  41  42
ENDBRANCH   1  41
TORSDOF 8
ENDMDL
MODEL 4
REMARK VINA RESULT: -8.488019468      2.316      4.839
REMARK  8 active torsions:
REMARK  status: ('A' for Active; 'I' for Inactive)
REMARK    1  A    between atoms: C2_2  and  O2_4 
REMARK    2  A    between atoms: O2_4  and  C3_5 
REMARK    3  A    between atoms: C16_19  and  O3_20 
REMARK    4  A    between atoms: O3_20  and  C17_21 
REMARK    5  A    between atoms: C17_21  and  C18_23 
REMARK    6  A    between atoms: C18_23  and  N1_25 
REMARK       I    between atoms: N1_25  and  C20_27 
REMARK    7  A    between atoms: C20_27  and  C21_29 
REMARK    8  A    between atoms: C27_35  and  C28_36 
ROOT
HETATM    1  C3  UNL     1      29.042   7.000  36.435  1.00  0.00     0.084 C 
HETATM    2  C4  UNL     1      29.273   7.292  35.008  1.00  0.00     0.044 C 
HETATM    3  C5  UNL     1      28.239   7.851  34.127  1.00  0.00    -0.063 C 
HETATM    4  C6  UNL     1      27.531   9.090  34.674  1.00  0.00     0.048 C 
HETATM    5  C7  UNL     1      27.378   6.923  33.374  1.00  0.00    -0.017 C 
HETATM    6  C8  UNL     1      27.090   5.560  33.803  1.00  0.00     0.065 C 
HETATM    7  C9  UNL     1      26.400   5.261  35.112  1.00  0.00     0.062 C 
HETATM    8  C10 UNL     1      25.175   6.198  35.147  1.00  0.00     0.046 C 
HETATM    9  C11 UNL     1      25.726   3.898  34.840  1.00  0.00     0.038 C 
HETATM   10  C12 UNL     1      24.909   3.381  35.929  1.00  0.00     0.006 C 
HETATM   11  C13 UNL     1      25.024   3.926  37.292  1.00  0.00     0.046 C 
HETATM   12  C14 UNL     1      26.180   3.584  38.141  1.00  0.00     0.129 C 
HETATM   13  C15 UNL     1      26.398   2.103  38.304  1.00  0.00     0.054 C 
HETATM   14  F1  UNL     1      25.671   3.908  39.448  1.00  0.00    -0.240 F 
HETATM   15  C16 UNL     1      27.414   4.440  38.116  1.00  0.00     0.210 C 
HETATM   16  C32 UNL     1      28.061   4.652  36.808  1.00  0.00     0.114 C 
HETATM   17  C33 UNL     1      28.625   3.315  36.267  1.00  0.00     0.054 C 
HETATM   18  O6  UNL     1      27.259   5.328  36.024  1.00  0.00    -0.362 OA
HETATM   19  C34 UNL     1      29.304   5.520  36.779  1.00  0.00    -0.013 C 
HETATM   20  C35 UNL     1      30.349   5.341  37.780  1.00  0.00     0.050 C 
ENDROOT
BRANCH  15  21
HETATM   21  O3  UNL     1      28.209   3.860  39.163  1.00  0.00    -0.308 OA
BRANCH  21  22
HETATM   22  C17 UNL     1      28.494   4.491  40.354  1.00  0.00     0.282 C 
HETATM   23  O4  UNL     1      27.779   5.469  40.666  1.00  0.00    -0.263 OA
BRANCH  22  24
HETATM   24  C18 UNL     1      29.563   4.069  41.244  1.00  0.00     0.180 C 
HETATM   25  C19 UNL     1      30.554   3.073  40.623  1.00  0.00     0.043 C 
BRANCH  24  26
HETATM   26  N1  UNL     1      30.338   5.155  41.810  1.00  0.00    -0.344 N 
HETATM   27  C20 UNL     1      30.668   5.243  43.168  1.00  0.00     0.244 C 
HETATM   28  O5  UNL     1      30.275   4.337  43.924  1.00  0.00    -0.268 OA
ATOM     29  H1  UNL     1      30.660   5.895  41.186  1.00  0.00     0.163 HD
BRANCH  27  30
HETATM   30  C21 UNL     1      31.448   6.359  43.699  1.00  0.00    -0.007 C 
HETATM   31  C22 UNL     1      32.938   6.223  43.621  1.00  0.00     0.044 C 
HETATM   32  C23 UNL     1      33.528   7.087  44.710  1.00  0.00    -0.014 C 
HETATM   33  C24 UNL     1      33.632   6.305  46.022  1.00  0.00     0.010 C 
HETATM   34  C25 UNL     1      32.916   8.425  44.868  1.00  0.00     0.005 C 
HETATM   35  C26 UNL     1      31.450   8.517  44.726  1.00  0.00     0.010 C 
HETATM   36  C27 UNL     1      30.871   7.710  43.571  1.00  0.00     0.027 C 
BRANCH  36  37
HETATM   37  C28 UNL     1      30.805   8.431  42.309  1.00  0.00    -0.044 C 
HETATM   38  C29 UNL     1      29.500   8.387  41.569  1.00  0.00     0.015 C 
HETATM   39  C30 UNL     1      30.932   9.949  42.672  1.00  0.00     0.015 C 
HETATM   40  C31 UNL     1      31.916   8.261  41.311  1.00  0.00     0.015 C 
ENDBRANCH  36  37
ENDBRANCH  27  30
ENDBRANCH  24  26
ENDBRANCH  22  24
ENDBRANCH  21  22
ENDBRANCH  15  21
BRANCH   1  41
HETATM   41  O2  UNL     1      27.925   7.527  37.047  1.00  0.00    -0.279 OA
BRANCH  41  42
HETATM   42  C2  UNL     1      27.878   8.403  38.125  1.00  0.00     0.260 C 
HETATM   43  C1  UNL     1      28.775   9.571  38.147  1.00  0.00     0.126 C 
HETATM   44  O1  UNL     1      27.051   8.123  39.029  1.00  0.00    -0.265 OA
ENDBRANCH  41  42
ENDBRANCH   1  41
TORSDOF 8
ENDMDL
MODEL 5
REMARK VINA RESULT: -8.457540832      1.476      2.901
REMARK  8 active torsions:
REMARK  status: ('A' for Active; 'I' for Inactive)
REMARK    1  A    between atoms: C2_2  and  O2_4 
REMARK    2  A    between atoms: O2_4  and  C3_5 
REMARK    3  A    between atoms: C16_19  and  O3_20 
REMARK    4  A    between atoms: O3_20  and  C17_21 
REMARK    5  A    between atoms: C17_21  and  C18_23 
REMARK    6  A    between atoms: C18_23  and  N1_25 
REMARK       I    between atoms: N1_25  and  C20_27 
REMARK    7  A    between atoms: C20_27  and  C21_29 
REMARK    8  A    between atoms: C27_35  and  C28_36 
ROOT
HETATM    1  C3  UNL     1      26.892   3.718  38.170  1.00  0.00     0.084 C 
HETATM    2  C4  UNL     1      25.761   2.819  38.468  1.00  0.00     0.044 C 
HETATM    3  C5  UNL     1      25.566   1.528  37.797  1.00  0.00    -0.063 C 
HETATM    4  C6  UNL     1      26.795   0.621  37.780  1.00  0.00     0.048 C 
HETATM    5  C7  UNL     1      24.744   1.484  36.576  1.00  0.00    -0.017 C 
HETATM    6  C8  UNL     1      24.556   2.625  35.688  1.00  0.00     0.065 C 
HETATM    7  C9  UNL     1      25.713   3.287  34.980  1.00  0.00     0.062 C 
HETATM    8  C10 UNL     1      26.517   2.131  34.349  1.00  0.00     0.046 C 
HETATM    9  C11 UNL     1      25.042   3.902  33.731  1.00  0.00     0.038 C 
HETATM   10  C12 UNL     1      25.949   4.560  32.800  1.00  0.00     0.006 C 
HETATM   11  C13 UNL     1      27.316   4.931  33.202  1.00  0.00     0.046 C 
HETATM   12  C14 UNL     1      27.551   6.089  34.082  1.00  0.00     0.129 C 
HETATM   13  C15 UNL     1      26.943   7.371  33.575  1.00  0.00     0.054 C 
HETATM   14  F1  UNL     1      28.943   6.355  33.829  1.00  0.00    -0.240 F 
HETATM   15  C16 UNL     1      27.580   5.912  35.573  1.00  0.00     0.210 C 
HETATM   16  C32 UNL     1      26.396   5.299  36.203  1.00  0.00     0.114 C 
HETATM   17  C33 UNL     1      25.166   6.226  36.046  1.00  0.00     0.054 C 
HETATM   18  O6  UNL     1      26.272   4.060  35.794  1.00  0.00    -0.362 OA
HETATM   19  C34 UNL     1      26.425   5.112  37.707  1.00  0.00    -0.013 C 
HETATM   20  C35 UNL     1      26.894   6.189  38.571  1.00  0.00     0.050 C 
ENDROOT
BRANCH  15  21
HETATM   21  O3  UNL     1      27.972   7.217  36.029  1.00  0.00    -0.308 OA
BRANCH  21  22
HETATM   22  C17 UNL     1      29.160   7.484  36.673  1.00  0.00     0.282 C 
HETATM   23  O4  UNL     1      30.053   6.610  36.608  1.00  0.00    -0.263 OA
BRANCH  22  24
HETATM   24  C18 UNL     1      29.412   8.715  37.403  1.00  0.00     0.180 C 
HETATM   25  C19 UNL     1      28.414   9.846  37.110  1.00  0.00     0.043 C 
BRANCH  24  26
HETATM   26  N1  UNL     1      29.477   8.558  38.843  1.00  0.00    -0.344 N 
HETATM   27  C20 UNL     1      30.678   8.489  39.559  1.00  0.00     0.244 C 
HETATM   28  O5  UNL     1      31.744   8.569  38.920  1.00  0.00    -0.268 OA
ATOM     29  H1  UNL     1      28.602   8.496  39.362  1.00  0.00     0.163 HD
BRANCH  27  30
HETATM   30  C21 UNL     1      30.700   8.325  41.011  1.00  0.00    -0.007 C 
HETATM   31  C22 UNL     1      29.464   8.747  41.744  1.00  0.00     0.044 C 
HETATM   32  C23 UNL     1      29.872   9.092  43.156  1.00  0.00    -0.014 C 
HETATM   33  C24 UNL     1      30.300  10.559  43.250  1.00  0.00     0.010 C 
HETATM   34  C25 UNL     1      30.826   8.159  43.794  1.00  0.00     0.005 C 
HETATM   35  C26 UNL     1      31.907   7.617  42.948  1.00  0.00     0.010 C 
HETATM   36  C27 UNL     1      31.470   7.190  41.553  1.00  0.00     0.027 C 
BRANCH  36  37
HETATM   37  C28 UNL     1      31.023   5.808  41.460  1.00  0.00    -0.044 C 
HETATM   38  C29 UNL     1      29.628   5.578  40.958  1.00  0.00     0.015 C 
HETATM   39  C30 UNL     1      31.895   5.148  40.340  1.00  0.00     0.015 C 
HETATM   40  C31 UNL     1      31.263   4.884  42.620  1.00  0.00     0.015 C 
ENDBRANCH  36  37
ENDBRANCH  27  30
ENDBRANCH  24  26
ENDBRANCH  22  24
ENDBRANCH  21  22
ENDBRANCH  15  21
BRANCH   1  41
HETATM   41  O2  UNL     1      27.962   3.221  37.457  1.00  0.00    -0.279 OA
BRANCH  41  42
HETATM   42  C2  UNL     1      29.274   3.065  37.889  1.00  0.00     0.260 C 
HETATM   43  C1  UNL     1      29.534   2.459  39.206  1.00  0.00     0.126 C 
HETATM   44  O1  UNL     1      30.167   3.467  37.101  1.00  0.00    -0.265 OA
ENDBRANCH  41  42
ENDBRANCH   1  41
TORSDOF 8
ENDMDL
