MODEL 1
REMARK VINA RESULT: -6.674039710      0.000      0.000
REMARK  7 active torsions:
REMARK  status: ('A' for Active; 'I' for Inactive)
REMARK    1  A    between atoms: C3_3  and  C4_4 
REMARK    2  A    between atoms: C4_4  and  C5_5 
REMARK    3  A    between atoms: C5_5  and  C6_6 
REMARK    4  A    between atoms: C6_6  and  C7_7 
REMARK    5  A    between atoms: C7_7  and  C8_8 
REMARK    6  A    between atoms: C8_8  and  C9_9 
REMARK       I    between atoms: C9_9  and  N1_11 
REMARK    7  A    between atoms: N1_11  and  C10_13 
ROOT
HETATM    1  C1  UNL     1     -29.609   4.716  23.257  1.00  0.00     0.113 C 
HETATM    2  C2  UNL     1     -30.283   5.792  22.531  1.00  0.00    -0.097 C 
HETATM    3  C3  UNL     1     -30.835   6.680  21.910  1.00  0.00    -0.015 C 
ENDROOT
BRANCH   3   4
HETATM    4  C4  UNL     1     -31.460   7.712  21.168  1.00  0.00    -0.015 C 
BRANCH   4   5
HETATM    5  C5  UNL     1     -31.989   8.603  20.551  1.00  0.00    -0.092 C 
BRANCH   5   6
HETATM    6  C6  UNL     1     -32.648   9.713  19.813  1.00  0.00     0.095 C 
BRANCH   6   7
HETATM    7  C7  UNL     1     -32.059  10.974  20.337  1.00  0.00     0.021 C 
BRANCH   7   8
HETATM    8  C8  UNL     1     -31.817  11.014  21.803  1.00  0.00     0.104 C 
BRANCH   8   9
HETATM    9  C9  UNL     1     -30.449  11.426  22.178  1.00  0.00     0.223 C 
HETATM   10  O1  UNL     1     -29.472  10.679  21.911  1.00  0.00    -0.273 OA
HETATM   11  N1  UNL     1     -30.222  12.687  22.855  1.00  0.00    -0.306 N 
ATOM     12  H1  UNL     1     -30.605  13.574  22.529  1.00  0.00     0.171 HD
BRANCH  11  13
HETATM   13  C10 UNL     1     -29.473  12.575  23.930  1.00  0.00     0.167 A 
HETATM   14  N2  UNL     1     -29.687  11.785  24.982  1.00  0.00    -0.279 N 
HETATM   15  N3  UNL     1     -28.856  11.803  25.943  1.00  0.00    -0.296 N 
ATOM     16  H2  UNL     1     -30.505  11.176  25.016  1.00  0.00     0.189 HD
HETATM   17  C11 UNL     1     -27.797  12.597  25.894  1.00  0.00     0.066 A 
ATOM     18  H3  UNL     1     -29.006  11.204  26.755  1.00  0.00     0.187 HD
HETATM   19  C12 UNL     1     -26.698  12.776  26.906  1.00  0.00     0.078 C 
HETATM   20  S1  UNL     1     -28.017  13.357  24.373  1.00  0.00    -0.038 SA
ENDBRANCH  11  13
ENDBRANCH   8   9
ENDBRANCH   7   8
ENDBRANCH   6   7
ENDBRANCH   5   6
ENDBRANCH   4   5
ENDBRANCH   3   4
TORSDOF 7
ENDMDL
MODEL 2
REMARK VINA RESULT: -6.557189126      6.694      8.978
REMARK  7 active torsions:
REMARK  status: ('A' for Active; 'I' for Inactive)
REMARK    1  A    between atoms: C3_3  and  C4_4 
REMARK    2  A    between atoms: C4_4  and  C5_5 
REMARK    3  A    between atoms: C5_5  and  C6_6 
REMARK    4  A    between atoms: C6_6  and  C7_7 
REMARK    5  A    between atoms: C7_7  and  C8_8 
REMARK    6  A    between atoms: C8_8  and  C9_9 
REMARK       I    between atoms: C9_9  and  N1_11 
REMARK    7  A    between atoms: N1_11  and  C10_13 
ROOT
HETATM    1  C1  UNL     1     -29.964  12.360  22.276  1.00  0.00     0.113 C 
HETATM    2  C2  UNL     1     -30.506  11.068  21.858  1.00  0.00    -0.097 C 
HETATM    3  C3  UNL     1     -30.939   9.983  21.518  1.00  0.00    -0.015 C 
ENDROOT
BRANCH   3   4
HETATM    4  C4  UNL     1     -31.420   8.711  21.122  1.00  0.00    -0.015 C 
BRANCH   4   5
HETATM    5  C5  UNL     1     -31.814   7.626  20.773  1.00  0.00    -0.092 C 
BRANCH   5   6
HETATM    6  C6  UNL     1     -32.279   6.279  20.351  1.00  0.00     0.095 C 
BRANCH   6   7
HETATM    7  C7  UNL     1     -33.559   6.485  19.621  1.00  0.00     0.021 C 
BRANCH   7   8
HETATM    8  C8  UNL     1     -34.482   5.321  19.594  1.00  0.00     0.104 C 
BRANCH   8   9
HETATM    9  C9  UNL     1     -35.465   5.306  20.696  1.00  0.00     0.223 C 
HETATM   10  O1  UNL     1     -35.952   4.214  21.090  1.00  0.00    -0.273 OA
HETATM   11  N1  UNL     1     -35.878   6.542  21.329  1.00  0.00    -0.306 N 
ATOM     12  H1  UNL     1     -35.221   7.243  21.671  1.00  0.00     0.171 HD
BRANCH  11  13
HETATM   13  C10 UNL     1     -37.184   6.672  21.419  1.00  0.00     0.167 A 
HETATM   14  N2  UNL     1     -38.111   5.971  20.767  1.00  0.00    -0.279 N 
HETATM   15  N3  UNL     1     -39.337   6.230  20.974  1.00  0.00    -0.296 N 
ATOM     16  H2  UNL     1     -37.840   5.238  20.112  1.00  0.00     0.189 HD
HETATM   17  C11 UNL     1     -39.682   7.185  21.827  1.00  0.00     0.066 A 
ATOM     18  H3  UNL     1     -40.058   5.702  20.484  1.00  0.00     0.187 HD
HETATM   19  C12 UNL     1     -41.056   7.653  22.220  1.00  0.00     0.078 C 
HETATM   20  S1  UNL     1     -38.146   7.734  22.355  1.00  0.00    -0.038 SA
ENDBRANCH  11  13
ENDBRANCH   8   9
ENDBRANCH   7   8
ENDBRANCH   6   7
ENDBRANCH   5   6
ENDBRANCH   4   5
ENDBRANCH   3   4
TORSDOF 7
ENDMDL
MODEL 3
REMARK VINA RESULT: -6.547943888      7.336      9.424
REMARK  7 active torsions:
REMARK  status: ('A' for Active; 'I' for Inactive)
REMARK    1  A    between atoms: C3_3  and  C4_4 
REMARK    2  A    between atoms: C4_4  and  C5_5 
REMARK    3  A    between atoms: C5_5  and  C6_6 
REMARK    4  A    between atoms: C6_6  and  C7_7 
REMARK    5  A    between atoms: C7_7  and  C8_8 
REMARK    6  A    between atoms: C8_8  and  C9_9 
REMARK       I    between atoms: C9_9  and  N1_11 
REMARK    7  A    between atoms: N1_11  and  C10_13 
ROOT
HETATM    1  C1  UNL     1     -30.253  10.593  22.125  1.00  0.00     0.113 C 
HETATM    2  C2  UNL     1     -30.932   9.421  21.573  1.00  0.00    -0.097 C 
HETATM    3  C3  UNL     1     -31.497   8.456  21.095  1.00  0.00    -0.015 C 
ENDROOT
BRANCH   3   4
HETATM    4  C4  UNL     1     -32.163   7.346  20.519  1.00  0.00    -0.015 C 
BRANCH   4   5
HETATM    5  C5  UNL     1     -32.719   6.403  20.014  1.00  0.00    -0.092 C 
BRANCH   5   6
HETATM    6  C6  UNL     1     -33.382   5.232  19.383  1.00  0.00     0.095 C 
BRANCH   6   7
HETATM    7  C7  UNL     1     -34.839   5.533  19.364  1.00  0.00     0.021 C 
BRANCH   7   8
HETATM    8  C8  UNL     1     -35.643   4.902  20.443  1.00  0.00     0.104 C 
BRANCH   8   9
HETATM    9  C9  UNL     1     -36.433   5.859  21.244  1.00  0.00     0.223 C 
HETATM   10  O1  UNL     1     -36.463   5.756  22.498  1.00  0.00    -0.273 OA
HETATM   11  N1  UNL     1     -37.179   6.919  20.596  1.00  0.00    -0.306 N 
ATOM     12  H1  UNL     1     -36.774   7.544  19.900  1.00  0.00     0.171 HD
BRANCH  11  13
HETATM   13  C10 UNL     1     -38.430   6.997  20.994  1.00  0.00     0.167 A 
HETATM   14  N2  UNL     1     -39.201   6.000  21.428  1.00  0.00    -0.279 N 
HETATM   15  N3  UNL     1     -40.396   6.253  21.776  1.00  0.00    -0.296 N 
ATOM     16  H2  UNL     1     -38.836   5.048  21.481  1.00  0.00     0.189 HD
HETATM   17  C11 UNL     1     -40.863   7.491  21.704  1.00  0.00     0.066 A 
ATOM     18  H3  UNL     1     -40.998   5.501  22.111  1.00  0.00     0.187 HD
HETATM   19  C12 UNL     1     -42.229   8.011  22.059  1.00  0.00     0.078 C 
HETATM   20  S1  UNL     1     -39.496   8.331  21.102  1.00  0.00    -0.038 SA
ENDBRANCH  11  13
ENDBRANCH   8   9
ENDBRANCH   7   8
ENDBRANCH   6   7
ENDBRANCH   5   6
ENDBRANCH   4   5
ENDBRANCH   3   4
TORSDOF 7
ENDMDL
MODEL 4
REMARK VINA RESULT: -6.522642545      7.778     10.650
REMARK  7 active torsions:
REMARK  status: ('A' for Active; 'I' for Inactive)
REMARK    1  A    between atoms: C3_3  and  C4_4 
REMARK    2  A    between atoms: C4_4  and  C5_5 
REMARK    3  A    between atoms: C5_5  and  C6_6 
REMARK    4  A    between atoms: C6_6  and  C7_7 
REMARK    5  A    between atoms: C7_7  and  C8_8 
REMARK    6  A    between atoms: C8_8  and  C9_9 
REMARK       I    between atoms: C9_9  and  N1_11 
REMARK    7  A    between atoms: N1_11  and  C10_13 
ROOT
HETATM    1  C1  UNL     1     -29.975  12.374  22.255  1.00  0.00     0.113 C 
HETATM    2  C2  UNL     1     -30.486  11.069  21.837  1.00  0.00    -0.097 C 
HETATM    3  C3  UNL     1     -30.923   9.993  21.474  1.00  0.00    -0.015 C 
ENDROOT
BRANCH   3   4
HETATM    4  C4  UNL     1     -31.452   8.752  21.042  1.00  0.00    -0.015 C 
BRANCH   4   5
HETATM    5  C5  UNL     1     -31.918   7.698  20.688  1.00  0.00    -0.092 C 
BRANCH   5   6
HETATM    6  C6  UNL     1     -32.480   6.400  20.228  1.00  0.00     0.095 C 
BRANCH   6   7
HETATM    7  C7  UNL     1     -33.795   6.710  19.605  1.00  0.00     0.021 C 
BRANCH   7   8
HETATM    8  C8  UNL     1     -33.785   6.882  18.129  1.00  0.00     0.104 C 
BRANCH   8   9
HETATM    9  C9  UNL     1     -34.785   6.058  17.420  1.00  0.00     0.223 C 
HETATM   10  O1  UNL     1     -34.883   4.829  17.675  1.00  0.00    -0.273 OA
HETATM   11  N1  UNL     1     -35.656   6.654  16.426  1.00  0.00    -0.306 N 
ATOM     12  H1  UNL     1     -36.193   7.504  16.590  1.00  0.00     0.171 HD
BRANCH  11  13
HETATM   13  C10 UNL     1     -35.685   5.990  15.291  1.00  0.00     0.167 A 
HETATM   14  N2  UNL     1     -34.826   5.056  14.881  1.00  0.00    -0.279 N 
HETATM   15  N3  UNL     1     -35.004   4.512  13.747  1.00  0.00    -0.296 N 
ATOM     16  H2  UNL     1     -34.039   4.782  15.469  1.00  0.00     0.189 HD
HETATM   17  C11 UNL     1     -36.029   4.873  12.988  1.00  0.00     0.066 A 
ATOM     18  H3  UNL     1     -34.356   3.796  13.420  1.00  0.00     0.187 HD
HETATM   19  C12 UNL     1     -36.425   4.367  11.628  1.00  0.00     0.078 C 
HETATM   20  S1  UNL     1     -36.773   6.063  13.973  1.00  0.00    -0.038 SA
ENDBRANCH  11  13
ENDBRANCH   8   9
ENDBRANCH   7   8
ENDBRANCH   6   7
ENDBRANCH   5   6
ENDBRANCH   4   5
ENDBRANCH   3   4
TORSDOF 7
ENDMDL
MODEL 5
REMARK VINA RESULT: -6.498775822      7.037      9.971
REMARK  7 active torsions:
REMARK  status: ('A' for Active; 'I' for Inactive)
REMARK    1  A    between atoms: C3_3  and  C4_4 
REMARK    2  A    between atoms: C4_4  and  C5_5 
REMARK    3  A    between atoms: C5_5  and  C6_6 
REMARK    4  A    between atoms: C6_6  and  C7_7 
REMARK    5  A    between atoms: C7_7  and  C8_8 
REMARK    6  A    between atoms: C8_8  and  C9_9 
REMARK       I    between atoms: C9_9  and  N1_11 
REMARK    7  A    between atoms: N1_11  and  C10_13 
ROOT
HETATM    1  C1  UNL     1     -29.595  12.850  22.647  1.00  0.00     0.113 C 
HETATM    2  C2  UNL     1     -30.020  11.506  22.256  1.00  0.00    -0.097 C 
HETATM    3  C3  UNL     1     -30.393  10.396  21.925  1.00  0.00    -0.015 C 
ENDROOT
BRANCH   3   4
HETATM    4  C4  UNL     1     -30.850   9.111  21.543  1.00  0.00    -0.015 C 
BRANCH   4   5
HETATM    5  C5  UNL     1     -31.240   8.012  21.237  1.00  0.00    -0.092 C 
BRANCH   5   6
HETATM    6  C6  UNL     1     -31.730   6.654  20.883  1.00  0.00     0.095 C 
BRANCH   6   7
HETATM    7  C7  UNL     1     -32.898   6.850  19.984  1.00  0.00     0.021 C 
BRANCH   7   8
HETATM    8  C8  UNL     1     -33.372   5.639  19.266  1.00  0.00     0.104 C 
BRANCH   8   9
HETATM    9  C9  UNL     1     -34.456   5.897  18.296  1.00  0.00     0.223 C 
HETATM   10  O1  UNL     1     -35.550   5.284  18.398  1.00  0.00    -0.273 OA
HETATM   11  N1  UNL     1     -34.268   6.852  17.223  1.00  0.00    -0.306 N 
ATOM     12  H1  UNL     1     -33.916   7.798  17.370  1.00  0.00     0.171 HD
BRANCH  11  13
HETATM   13  C10 UNL     1     -34.597   6.381  16.040  1.00  0.00     0.167 A 
HETATM   14  N2  UNL     1     -34.779   5.104  15.704  1.00  0.00    -0.279 N 
HETATM   15  N3  UNL     1     -35.096   4.823  14.506  1.00  0.00    -0.296 N 
ATOM     16  H2  UNL     1     -34.667   4.364  16.397  1.00  0.00     0.189 HD
HETATM   17  C11 UNL     1     -35.240   5.789  13.610  1.00  0.00     0.066 A 
ATOM     18  H3  UNL     1     -35.240   3.851  14.233  1.00  0.00     0.187 HD
HETATM   19  C12 UNL     1     -35.607   5.685  12.155  1.00  0.00     0.078 C 
HETATM   20  S1  UNL     1     -34.899   7.177  14.556  1.00  0.00    -0.038 SA
ENDBRANCH  11  13
ENDBRANCH   8   9
ENDBRANCH   7   8
ENDBRANCH   6   7
ENDBRANCH   5   6
ENDBRANCH   4   5
ENDBRANCH   3   4
TORSDOF 7
ENDMDL
