MODEL 1
REMARK VINA RESULT: -6.183480583      0.000      0.000
REMARK  3 active torsions:
REMARK  status: ('A' for Active; 'I' for Inactive)
REMARK    1  A    between atoms: C8_9  and  O1_10 
REMARK    2  A    between atoms: O1_10  and  N2_11 
REMARK    3  A    between atoms: N2_11  and  O2_13 
ROOT
HETATM    1  N1  UNL     1     -34.665   4.921  20.089  1.00  0.00    -0.195 NA
HETATM    2  C1  UNL     1     -34.804   5.604  19.145  1.00  0.00     0.099 C 
HETATM    3  C2  UNL     1     -34.985   6.447  17.980  1.00  0.00     0.214 C 
HETATM    4  C3  UNL     1     -36.244   7.265  18.101  1.00  0.00     0.059 C 
HETATM    5  C4  UNL     1     -36.408   8.147  16.892  1.00  0.00    -0.009 C 
HETATM    6  C5  UNL     1     -35.190   9.010  16.767  1.00  0.00     0.012 C 
HETATM    7  C6  UNL     1     -33.952   8.161  16.595  1.00  0.00     0.023 C 
HETATM    8  C7  UNL     1     -33.754   7.314  17.812  1.00  0.00     0.062 C 
HETATM    9  C8  UNL     1     -34.137   7.341  15.340  1.00  0.00     0.189 C 
HETATM   10  C9  UNL     1     -35.294   6.393  15.604  1.00  0.00     0.220 C 
HETATM   11  C10 UNL     1     -36.542   7.248  15.683  1.00  0.00     0.040 C 
HETATM   12  N3  UNL     1     -35.086   5.616  16.805  1.00  0.00    -0.046 N 
ATOM     13  H31 UNL     1     -35.810   4.907  16.916  1.00  0.00     0.279 HD
ATOM     14  H32 UNL     1     -34.274   5.006  16.714  1.00  0.00     0.279 HD
ENDROOT
BRANCH   9  15
HETATM   15  O1  UNL     1     -32.986   6.688  14.927  1.00  0.00    -0.252 OA
BRANCH  15  16
HETATM   16  N2  UNL     1     -33.084   5.649  14.036  1.00  0.00    -0.174 N 
ATOM     17  H2  UNL     1     -32.866   4.705  14.356  1.00  0.00     0.223 HD
BRANCH  16  18
HETATM   18  O2  UNL     1     -33.432   5.819  12.838  1.00  0.00    -0.269 OA
ATOM     19  H2  UNL     1     -32.802   5.889  12.131  1.00  0.00     0.246 HD
ENDBRANCH  16  18
ENDBRANCH  15  16
ENDBRANCH   9  15
TORSDOF 3
ENDMDL
MODEL 2
REMARK VINA RESULT: -6.058758544      2.221      3.188
REMARK  3 active torsions:
REMARK  status: ('A' for Active; 'I' for Inactive)
REMARK    1  A    between atoms: C8_9  and  O1_10 
REMARK    2  A    between atoms: O1_10  and  N2_11 
REMARK    3  A    between atoms: N2_11  and  O2_13 
ROOT
HETATM    1  N1  UNL     1     -38.306   6.813  20.092  1.00  0.00    -0.195 NA
HETATM    2  C1  UNL     1     -37.188   7.054  19.833  1.00  0.00     0.099 C 
HETATM    3  C2  UNL     1     -35.807   7.360  19.516  1.00  0.00     0.214 C 
HETATM    4  C3  UNL     1     -35.192   8.225  20.584  1.00  0.00     0.059 C 
HETATM    5  C4  UNL     1     -33.754   8.520  20.250  1.00  0.00    -0.009 C 
HETATM    6  C5  UNL     1     -33.027   7.219  20.097  1.00  0.00     0.012 C 
HETATM    7  C6  UNL     1     -33.636   6.398  18.983  1.00  0.00     0.023 C 
HETATM    8  C7  UNL     1     -35.052   6.060  19.328  1.00  0.00     0.062 C 
HETATM    9  C8  UNL     1     -33.524   7.207  17.712  1.00  0.00     0.189 C 
HETATM   10  C9  UNL     1     -34.404   8.431  17.894  1.00  0.00     0.220 C 
HETATM   11  C10 UNL     1     -33.734   9.289  18.947  1.00  0.00     0.040 C 
HETATM   12  N3  UNL     1     -35.755   8.070  18.261  1.00  0.00    -0.046 N 
ATOM     13  H31 UNL     1     -36.364   8.887  18.274  1.00  0.00     0.279 HD
ATOM     14  H32 UNL     1     -36.210   7.540  17.518  1.00  0.00     0.279 HD
ENDROOT
BRANCH   9  15
HETATM   15  O1  UNL     1     -33.829   6.487  16.567  1.00  0.00    -0.252 OA
BRANCH  15  16
HETATM   16  N2  UNL     1     -33.218   6.816  15.382  1.00  0.00    -0.174 N 
ATOM     17  H2  UNL     1     -33.798   7.005  14.566  1.00  0.00     0.223 HD
BRANCH  16  18
HETATM   18  O2  UNL     1     -31.966   6.892  15.269  1.00  0.00    -0.269 OA
ATOM     19  H2  UNL     1     -31.463   7.598  15.657  1.00  0.00     0.246 HD
ENDBRANCH  16  18
ENDBRANCH  15  16
ENDBRANCH   9  15
TORSDOF 3
ENDMDL
MODEL 3
REMARK VINA RESULT: -5.914732947      3.829      6.005
REMARK  3 active torsions:
REMARK  status: ('A' for Active; 'I' for Inactive)
REMARK    1  A    between atoms: C8_9  and  O1_10 
REMARK    2  A    between atoms: O1_10  and  N2_11 
REMARK    3  A    between atoms: N2_11  and  O2_13 
ROOT
HETATM    1  N1  UNL     1     -33.549   8.267   9.794  1.00  0.00    -0.195 NA
HETATM    2  C1  UNL     1     -34.294   7.635  10.442  1.00  0.00     0.099 C 
HETATM    3  C2  UNL     1     -35.223   6.856  11.239  1.00  0.00     0.214 C 
HETATM    4  C3  UNL     1     -36.227   6.160  10.360  1.00  0.00     0.059 C 
HETATM    5  C4  UNL     1     -37.173   5.342  11.200  1.00  0.00    -0.009 C 
HETATM    6  C5  UNL     1     -36.368   4.371  12.009  1.00  0.00     0.012 C 
HETATM    7  C6  UNL     1     -35.407   5.103  12.916  1.00  0.00     0.023 C 
HETATM    8  C7  UNL     1     -34.434   5.882  12.090  1.00  0.00     0.062 C 
HETATM    9  C8  UNL     1     -36.229   5.982  13.829  1.00  0.00     0.189 C 
HETATM   10  C9  UNL     1     -36.892   7.027  12.949  1.00  0.00     0.220 C 
HETATM   11  C10 UNL     1     -37.918   6.293  12.110  1.00  0.00     0.040 C 
HETATM   12  N3  UNL     1     -35.928   7.735  12.139  1.00  0.00    -0.046 N 
ATOM     13  H31 UNL     1     -36.365   8.506  11.635  1.00  0.00     0.279 HD
ATOM     14  H32 UNL     1     -35.279   8.268  12.719  1.00  0.00     0.279 HD
ENDROOT
BRANCH   9  15
HETATM   15  O1  UNL     1     -35.500   6.537  14.871  1.00  0.00    -0.252 OA
BRANCH  15  16
HETATM   16  N2  UNL     1     -34.595   5.759  15.549  1.00  0.00    -0.174 N 
ATOM     17  H2  UNL     1     -33.675   5.605  15.138  1.00  0.00     0.223 HD
BRANCH  16  18
HETATM   18  O2  UNL     1     -34.862   5.228  16.659  1.00  0.00    -0.269 OA
ATOM     19  H2  UNL     1     -35.229   4.355  16.729  1.00  0.00     0.246 HD
ENDBRANCH  16  18
ENDBRANCH  15  16
ENDBRANCH   9  15
TORSDOF 3
ENDMDL
MODEL 4
REMARK VINA RESULT: -5.853344384      3.971      6.016
REMARK  3 active torsions:
REMARK  status: ('A' for Active; 'I' for Inactive)
REMARK    1  A    between atoms: C8_9  and  O1_10 
REMARK    2  A    between atoms: O1_10  and  N2_11 
REMARK    3  A    between atoms: N2_11  and  O2_13 
ROOT
HETATM    1  N1  UNL     1     -37.273   9.622  10.068  1.00  0.00    -0.195 NA
HETATM    2  C1  UNL     1     -37.124   8.622  10.662  1.00  0.00     0.099 C 
HETATM    3  C2  UNL     1     -36.948   7.386  11.400  1.00  0.00     0.214 C 
HETATM    4  C3  UNL     1     -38.263   6.671  11.567  1.00  0.00     0.059 C 
HETATM    5  C4  UNL     1     -38.062   5.383  12.320  1.00  0.00    -0.009 C 
HETATM    6  C5  UNL     1     -37.064   4.550  11.574  1.00  0.00     0.012 C 
HETATM    7  C6  UNL     1     -35.741   5.274  11.468  1.00  0.00     0.023 C 
HETATM    8  C7  UNL     1     -35.922   6.533  10.682  1.00  0.00     0.062 C 
HETATM    9  C8  UNL     1     -35.253   5.532  12.875  1.00  0.00     0.189 C 
HETATM   10  C9  UNL     1     -36.239   6.497  13.509  1.00  0.00     0.220 C 
HETATM   11  C10 UNL     1     -37.533   5.731  13.693  1.00  0.00     0.040 C 
HETATM   12  N3  UNL     1     -36.416   7.686  12.706  1.00  0.00    -0.046 N 
ATOM     13  H31 UNL     1     -36.992   8.375  13.189  1.00  0.00     0.279 HD
ATOM     14  H32 UNL     1     -35.549   8.218  12.638  1.00  0.00     0.279 HD
ENDROOT
BRANCH   9  15
HETATM   15  O1  UNL     1     -33.942   5.979  12.936  1.00  0.00    -0.252 OA
BRANCH  15  16
HETATM   16  N2  UNL     1     -33.184   5.694  14.043  1.00  0.00    -0.174 N 
ATOM     17  H2  UNL     1     -32.970   4.720  14.255  1.00  0.00     0.223 HD
BRANCH  16  18
HETATM   18  O2  UNL     1     -32.744   6.593  14.807  1.00  0.00    -0.269 OA
ATOM     19  H2  UNL     1     -32.322   7.378  14.477  1.00  0.00     0.246 HD
ENDBRANCH  16  18
ENDBRANCH  15  16
ENDBRANCH   9  15
TORSDOF 3
ENDMDL
MODEL 5
REMARK VINA RESULT: -5.850596109      2.048      4.090
REMARK  3 active torsions:
REMARK  status: ('A' for Active; 'I' for Inactive)
REMARK    1  A    between atoms: C8_9  and  O1_10 
REMARK    2  A    between atoms: O1_10  and  N2_11 
REMARK    3  A    between atoms: N2_11  and  O2_13 
ROOT
HETATM    1  N1  UNL     1     -34.266   6.184  12.446  1.00  0.00    -0.195 NA
HETATM    2  C1  UNL     1     -34.443   6.567  13.541  1.00  0.00     0.099 C 
HETATM    3  C2  UNL     1     -34.660   7.048  14.891  1.00  0.00     0.214 C 
HETATM    4  C3  UNL     1     -35.036   8.506  14.886  1.00  0.00     0.059 C 
HETATM    5  C4  UNL     1     -35.274   8.986  16.293  1.00  0.00    -0.009 C 
HETATM    6  C5  UNL     1     -36.342   8.135  16.909  1.00  0.00     0.012 C 
HETATM    7  C6  UNL     1     -35.912   6.686  16.946  1.00  0.00     0.023 C 
HETATM    8  C7  UNL     1     -35.718   6.186  15.550  1.00  0.00     0.062 C 
HETATM    9  C8  UNL     1     -34.648   6.611  17.772  1.00  0.00     0.189 C 
HETATM   10  C9  UNL     1     -33.580   7.373  17.006  1.00  0.00     0.220 C 
HETATM   11  C10 UNL     1     -33.976   8.835  17.055  1.00  0.00     0.040 C 
HETATM   12  N3  UNL     1     -33.444   6.888  15.651  1.00  0.00    -0.046 N 
ATOM     13  H31 UNL     1     -32.654   7.327  15.180  1.00  0.00     0.279 HD
ATOM     14  H32 UNL     1     -33.124   5.920  15.636  1.00  0.00     0.279 HD
ENDROOT
BRANCH   9  15
HETATM   15  O1  UNL     1     -34.267   5.317  18.088  1.00  0.00    -0.252 OA
BRANCH  15  16
HETATM   16  N2  UNL     1     -33.567   5.085  19.246  1.00  0.00    -0.174 N 
ATOM     17  H2  UNL     1     -34.068   4.731  20.061  1.00  0.00     0.223 HD
BRANCH  16  18
HETATM   18  O2  UNL     1     -32.329   5.294  19.337  1.00  0.00    -0.269 OA
ATOM     19  H2  UNL     1     -31.721   5.050  18.649  1.00  0.00     0.246 HD
ENDBRANCH  16  18
ENDBRANCH  15  16
ENDBRANCH   9  15
TORSDOF 3
ENDMDL
