MODEL 1
REMARK VINA RESULT: -5.442746896      0.000      0.000
REMARK  2 active torsions:
REMARK  status: ('A' for Active; 'I' for Inactive)
REMARK    1  A    between atoms: O1_3  and  C2_4 
REMARK    2  A    between atoms: C5_8  and  C6_9 
ROOT
HETATM    1  N1  UNL     1     -40.579   3.835   8.192  1.00  0.00    -0.164 NA
HETATM    2  C1  UNL     1     -39.915   4.784   8.213  1.00  0.00     0.231 C 
HETATM    3  O1  UNL     1     -39.109   5.906   8.227  1.00  0.00    -0.248 OA
ENDROOT
BRANCH   3   4
HETATM    4  C2  UNL     1     -37.746   5.877   7.900  1.00  0.00     0.310 C 
HETATM    5  O2  UNL     1     -36.974   5.823   9.083  1.00  0.00    -0.349 OA
HETATM    6  C3  UNL     1     -36.735   7.204   9.006  1.00  0.00     0.159 C 
HETATM    7  C4  UNL     1     -35.278   7.459   9.259  1.00  0.00     0.052 C 
HETATM    8  C8  UNL     1     -37.137   7.232   7.579  1.00  0.00     0.206 C 
HETATM    9  C5  UNL     1     -34.703   8.376   8.207  1.00  0.00     0.113 C 
HETATM   10  C7  UNL     1     -34.999   7.842   6.862  1.00  0.00     0.184 C 
HETATM   11  O5  UNL     1     -36.200   7.293   6.642  1.00  0.00    -0.377 OA
BRANCH   9  12
HETATM   12  C6  UNL     1     -33.236   8.435   8.440  1.00  0.00     0.179 C 
HETATM   13  O3  UNL     1     -32.808   8.410   9.600  1.00  0.00    -0.648 OA
HETATM   14  O4  UNL     1     -32.316   8.517   7.407  1.00  0.00    -0.648 OA
ENDBRANCH   9  12
ENDBRANCH   3   4
TORSDOF 2
ENDMDL
MODEL 2
REMARK VINA RESULT: -5.433504397      3.393      5.912
REMARK  2 active torsions:
REMARK  status: ('A' for Active; 'I' for Inactive)
REMARK    1  A    between atoms: O1_3  and  C2_4 
REMARK    2  A    between atoms: C5_8  and  C6_9 
ROOT
HETATM    1  N1  UNL     1     -32.597   8.593   7.849  1.00  0.00    -0.164 NA
HETATM    2  C1  UNL     1     -33.012   8.365   8.906  1.00  0.00     0.231 C 
HETATM    3  O1  UNL     1     -33.526   8.087  10.158  1.00  0.00    -0.248 OA
ENDROOT
BRANCH   3   4
HETATM    4  C2  UNL     1     -34.901   7.984  10.418  1.00  0.00     0.310 C 
HETATM    5  O2  UNL     1     -35.105   7.273  11.622  1.00  0.00    -0.349 OA
HETATM    6  C3  UNL     1     -35.380   6.101  10.900  1.00  0.00     0.159 C 
HETATM    7  C4  UNL     1     -36.602   5.449  11.478  1.00  0.00     0.052 C 
HETATM    8  C8  UNL     1     -35.613   6.877   9.658  1.00  0.00     0.206 C 
HETATM    9  C5  UNL     1     -37.581   5.083  10.389  1.00  0.00     0.113 C 
HETATM   10  C7  UNL     1     -37.865   6.267   9.553  1.00  0.00     0.184 C 
HETATM   11  O5  UNL     1     -36.857   7.094   9.252  1.00  0.00    -0.377 OA
BRANCH   9  12
HETATM   12  C6  UNL     1     -38.816   4.604  11.063  1.00  0.00     0.179 C 
HETATM   13  O3  UNL     1     -39.290   5.263  11.996  1.00  0.00    -0.648 OA
HETATM   14  O4  UNL     1     -39.469   3.439  10.690  1.00  0.00    -0.648 OA
ENDBRANCH   9  12
ENDBRANCH   3   4
TORSDOF 2
ENDMDL
MODEL 3
REMARK VINA RESULT: -5.340501034      4.218      6.232
REMARK  2 active torsions:
REMARK  status: ('A' for Active; 'I' for Inactive)
REMARK    1  A    between atoms: O1_3  and  C2_4 
REMARK    2  A    between atoms: C5_8  and  C6_9 
ROOT
HETATM    1  N1  UNL     1     -34.632   6.097  16.291  1.00  0.00    -0.164 NA
HETATM    2  C1  UNL     1     -34.371   6.368  15.195  1.00  0.00     0.231 C 
HETATM    3  O1  UNL     1     -34.075   6.676  13.882  1.00  0.00    -0.248 OA
ENDROOT
BRANCH   3   4
HETATM    4  C2  UNL     1     -34.374   5.826  12.807  1.00  0.00     0.310 C 
HETATM    5  O2  UNL     1     -34.254   6.536  11.591  1.00  0.00    -0.349 OA
HETATM    6  C3  UNL     1     -35.645   6.719  11.544  1.00  0.00     0.159 C 
HETATM    7  C4  UNL     1     -36.128   6.411  10.157  1.00  0.00     0.052 C 
HETATM    8  C8  UNL     1     -35.857   5.638  12.536  1.00  0.00     0.206 C 
HETATM    9  C5  UNL     1     -37.318   5.484  10.198  1.00  0.00     0.113 C 
HETATM   10  C7  UNL     1     -36.996   4.290  11.005  1.00  0.00     0.184 C 
HETATM   11  O5  UNL     1     -36.273   4.448  12.120  1.00  0.00    -0.377 OA
BRANCH   9  12
HETATM   12  C6  UNL     1     -37.619   5.106   8.792  1.00  0.00     0.179 C 
HETATM   13  O3  UNL     1     -36.876   5.505   7.888  1.00  0.00    -0.648 OA
HETATM   14  O4  UNL     1     -38.704   4.318   8.444  1.00  0.00    -0.648 OA
ENDBRANCH   9  12
ENDBRANCH   3   4
TORSDOF 2
ENDMDL
MODEL 4
REMARK VINA RESULT: -5.283114914      3.560      4.525
REMARK  2 active torsions:
REMARK  status: ('A' for Active; 'I' for Inactive)
REMARK    1  A    between atoms: O1_3  and  C2_4 
REMARK    2  A    between atoms: C5_8  and  C6_9 
ROOT
HETATM    1  N1  UNL     1     -34.264   6.093  15.244  1.00  0.00    -0.164 NA
HETATM    2  C1  UNL     1     -35.012   6.232  14.371  1.00  0.00     0.231 C 
HETATM    3  O1  UNL     1     -35.891   6.386  13.316  1.00  0.00    -0.248 OA
ENDROOT
BRANCH   3   4
HETATM    4  C2  UNL     1     -35.551   6.106  11.985  1.00  0.00     0.310 C 
HETATM    5  O2  UNL     1     -34.234   6.548  11.727  1.00  0.00    -0.349 OA
HETATM    6  C3  UNL     1     -34.729   7.714  11.121  1.00  0.00     0.159 C 
HETATM    7  C4  UNL     1     -33.989   7.946   9.837  1.00  0.00     0.052 C 
HETATM    8  C8  UNL     1     -36.074   7.108  10.969  1.00  0.00     0.206 C 
HETATM    9  C5  UNL     1     -34.950   8.225   8.707  1.00  0.00     0.113 C 
HETATM   10  C7  UNL     1     -35.963   7.153   8.636  1.00  0.00     0.184 C 
HETATM   11  O5  UNL     1     -36.451   6.658   9.779  1.00  0.00    -0.377 OA
BRANCH   9  12
HETATM   12  C6  UNL     1     -34.144   8.274   7.458  1.00  0.00     0.179 C 
HETATM   13  O3  UNL     1     -34.662   7.924   6.392  1.00  0.00    -0.648 OA
HETATM   14  O4  UNL     1     -32.825   8.700   7.434  1.00  0.00    -0.648 OA
ENDBRANCH   9  12
ENDBRANCH   3   4
TORSDOF 2
ENDMDL
MODEL 5
REMARK VINA RESULT: -5.260095829      2.668      3.695
REMARK  2 active torsions:
REMARK  status: ('A' for Active; 'I' for Inactive)
REMARK    1  A    between atoms: O1_3  and  C2_4 
REMARK    2  A    between atoms: C5_8  and  C6_9 
ROOT
HETATM    1  N1  UNL     1     -41.171   3.511   8.301  1.00  0.00    -0.164 NA
HETATM    2  C1  UNL     1     -40.505   3.473   9.247  1.00  0.00     0.231 C 
HETATM    3  O1  UNL     1     -39.712   3.450  10.379  1.00  0.00    -0.248 OA
ENDROOT
BRANCH   3   4
HETATM    4  C2  UNL     1     -39.128   4.599  10.932  1.00  0.00     0.310 C 
HETATM    5  O2  UNL     1     -38.661   5.440   9.897  1.00  0.00    -0.349 OA
HETATM    6  C3  UNL     1     -37.355   4.960  10.076  1.00  0.00     0.159 C 
HETATM    7  C4  UNL     1     -36.407   6.124  10.088  1.00  0.00     0.052 C 
HETATM    8  C8  UNL     1     -37.698   4.419  11.413  1.00  0.00     0.206 C 
HETATM    9  C5  UNL     1     -35.465   6.036  11.264  1.00  0.00     0.113 C 
HETATM   10  C7  UNL     1     -36.236   5.872  12.512  1.00  0.00     0.184 C 
HETATM   11  O5  UNL     1     -37.313   5.078  12.499  1.00  0.00    -0.377 OA
BRANCH   9  12
HETATM   12  C6  UNL     1     -34.685   7.302  11.287  1.00  0.00     0.179 C 
HETATM   13  O3  UNL     1     -34.764   8.041  12.275  1.00  0.00    -0.648 OA
HETATM   14  O4  UNL     1     -33.865   7.696  10.242  1.00  0.00    -0.648 OA
ENDBRANCH   9  12
ENDBRANCH   3   4
TORSDOF 2
ENDMDL
