MODEL 1
REMARK VINA RESULT: -5.865012292      0.000      0.000
REMARK  2 active torsions:
REMARK  status: ('A' for Active; 'I' for Inactive)
REMARK    1  A    between atoms: N2_9  and  N3_11 
REMARK    2  A    between atoms: C8_13  and  C9_15 
ROOT
HETATM    1  N1  UNL     1     -39.277   7.582  10.179  1.00  0.00    -0.197 NA
HETATM    2  C1  UNL     1     -38.470   7.109   9.472  1.00  0.00     0.070 C 
HETATM    3  C2  UNL     1     -37.463   6.515   8.601  1.00  0.00     0.140 C 
HETATM    4  C3  UNL     1     -37.478   5.011   8.853  1.00  0.00     0.025 C 
HETATM    5  C4  UNL     1     -37.258   4.684  10.280  1.00  0.00     0.002 C 
HETATM    6  C5  UNL     1     -36.192   5.412  10.979  1.00  0.00     0.006 C 
HETATM    7  C6  UNL     1     -35.701   6.677  10.391  1.00  0.00     0.055 C 
HETATM    8  C7  UNL     1     -36.098   6.941   9.008  1.00  0.00     0.021 C 
HETATM    9  N2  UNL     1     -35.367   7.513   8.110  1.00  0.00    -0.306 N 
ATOM     10  H2  UNL     1     -35.713   7.664   7.163  1.00  0.00     0.186 HD
ENDROOT
BRANCH   9  11
HETATM   11  N3  UNL     1     -34.092   7.914   8.485  1.00  0.00    -0.285 N 
HETATM   12  C8  UNL     1     -33.176   8.231   7.608  1.00  0.00     0.168 C 
HETATM   13  N4  UNL     1     -31.929   8.618   8.145  1.00  0.00    -0.078 NA
ATOM     14  H3  UNL     1     -33.862   7.962   9.477  1.00  0.00     0.188 HD
BRANCH  12  15
HETATM   15  C9  UNL     1     -33.406   8.192   6.191  1.00  0.00     0.304 C 
HETATM   16  O1  UNL     1     -33.458   7.116   5.561  1.00  0.00    -0.299 OA
ENDBRANCH  12  15
ENDBRANCH   9  11
TORSDOF 2
ENDMDL
MODEL 2
REMARK VINA RESULT: -5.829291299      1.324      1.463
REMARK  2 active torsions:
REMARK  status: ('A' for Active; 'I' for Inactive)
REMARK    1  A    between atoms: N2_9  and  N3_11 
REMARK    2  A    between atoms: C8_13  and  C9_15 
ROOT
HETATM    1  N1  UNL     1     -38.868   7.015  12.092  1.00  0.00    -0.197 NA
HETATM    2  C1  UNL     1     -38.234   6.526  11.236  1.00  0.00     0.070 C 
HETATM    3  C2  UNL     1     -37.438   5.912  10.179  1.00  0.00     0.140 C 
HETATM    4  C3  UNL     1     -37.176   4.468  10.591  1.00  0.00     0.025 C 
HETATM    5  C4  UNL     1     -36.523   4.378  11.917  1.00  0.00     0.002 C 
HETATM    6  C5  UNL     1     -35.415   5.302  12.183  1.00  0.00     0.006 C 
HETATM    7  C6  UNL     1     -35.286   6.509  11.339  1.00  0.00     0.055 C 
HETATM    8  C7  UNL     1     -36.087   6.526  10.114  1.00  0.00     0.021 C 
HETATM    9  N2  UNL     1     -35.721   7.029   8.983  1.00  0.00    -0.306 N 
ATOM     10  H2  UNL     1     -36.336   7.004   8.169  1.00  0.00     0.186 HD
ENDROOT
BRANCH   9  11
HETATM   11  N3  UNL     1     -34.460   7.604   8.916  1.00  0.00    -0.285 N 
HETATM   12  C8  UNL     1     -34.018   8.190   7.834  1.00  0.00     0.168 C 
HETATM   13  N4  UNL     1     -32.715   8.726   7.924  1.00  0.00    -0.078 NA
ATOM     14  H3  UNL     1     -33.858   7.569   9.738  1.00  0.00     0.188 HD
BRANCH  12  15
HETATM   15  C9  UNL     1     -34.791   8.288   6.629  1.00  0.00     0.304 C 
HETATM   16  O1  UNL     1     -35.152   7.277   5.994  1.00  0.00    -0.299 OA
ENDBRANCH  12  15
ENDBRANCH   9  11
TORSDOF 2
ENDMDL
MODEL 3
REMARK VINA RESULT: -5.772142654      8.261      9.499
REMARK  2 active torsions:
REMARK  status: ('A' for Active; 'I' for Inactive)
REMARK    1  A    between atoms: N2_9  and  N3_11 
REMARK    2  A    between atoms: C8_13  and  C9_15 
ROOT
HETATM    1  N1  UNL     1     -35.738   5.384  20.584  1.00  0.00    -0.197 NA
HETATM    2  C1  UNL     1     -34.828   5.573  19.870  1.00  0.00     0.070 C 
HETATM    3  C2  UNL     1     -33.694   5.818  18.987  1.00  0.00     0.140 C 
HETATM    4  C3  UNL     1     -32.566   6.382  19.843  1.00  0.00     0.025 C 
HETATM    5  C4  UNL     1     -32.983   7.597  20.581  1.00  0.00     0.002 C 
HETATM    6  C5  UNL     1     -33.750   8.602  19.838  1.00  0.00     0.006 C 
HETATM    7  C6  UNL     1     -34.416   8.194  18.582  1.00  0.00     0.055 C 
HETATM    8  C7  UNL     1     -34.003   6.907  18.023  1.00  0.00     0.021 C 
HETATM    9  N2  UNL     1     -33.884   6.634  16.767  1.00  0.00    -0.306 N 
ATOM     10  H2  UNL     1     -33.590   5.710  16.451  1.00  0.00     0.186 HD
ENDROOT
BRANCH   9  11
HETATM   11  N3  UNL     1     -34.172   7.648  15.864  1.00  0.00    -0.285 N 
HETATM   12  C8  UNL     1     -34.349   7.415  14.589  1.00  0.00     0.168 C 
HETATM   13  N4  UNL     1     -34.635   8.550  13.799  1.00  0.00    -0.078 NA
ATOM     14  H3  UNL     1     -34.247   8.606  16.204  1.00  0.00     0.188 HD
BRANCH  12  15
HETATM   15  C9  UNL     1     -34.263   6.101  14.017  1.00  0.00     0.304 C 
HETATM   16  O1  UNL     1     -33.168   5.527  13.849  1.00  0.00    -0.299 OA
ENDBRANCH  12  15
ENDBRANCH   9  11
TORSDOF 2
ENDMDL
MODEL 4
REMARK VINA RESULT: -5.709328631      5.342      6.637
REMARK  2 active torsions:
REMARK  status: ('A' for Active; 'I' for Inactive)
REMARK    1  A    between atoms: N2_9  and  N3_11 
REMARK    2  A    between atoms: C8_13  and  C9_15 
ROOT
HETATM    1  N1  UNL     1     -35.101   7.308  10.864  1.00  0.00    -0.197 NA
HETATM    2  C1  UNL     1     -35.089   6.382  11.582  1.00  0.00     0.070 C 
HETATM    3  C2  UNL     1     -35.085   5.230  12.477  1.00  0.00     0.140 C 
HETATM    4  C3  UNL     1     -36.239   4.327  12.057  1.00  0.00     0.025 C 
HETATM    5  C4  UNL     1     -37.535   5.043  12.060  1.00  0.00     0.002 C 
HETATM    6  C5  UNL     1     -37.821   5.909  13.210  1.00  0.00     0.006 C 
HETATM    7  C6  UNL     1     -36.693   6.350  14.057  1.00  0.00     0.055 C 
HETATM    8  C7  UNL     1     -35.427   5.641  13.864  1.00  0.00     0.021 C 
HETATM    9  N2  UNL     1     -34.582   5.343  14.793  1.00  0.00    -0.306 N 
ATOM     10  H2  UNL     1     -33.717   4.846  14.582  1.00  0.00     0.186 HD
ENDROOT
BRANCH   9  11
HETATM   11  N3  UNL     1     -34.896   5.725  16.090  1.00  0.00    -0.285 N 
HETATM   12  C8  UNL     1     -34.390   6.796  16.643  1.00  0.00     0.168 C 
HETATM   13  N4  UNL     1     -34.807   7.050  17.968  1.00  0.00    -0.078 NA
ATOM     14  H3  UNL     1     -35.543   5.150  16.630  1.00  0.00     0.188 HD
BRANCH  12  15
HETATM   15  C9  UNL     1     -33.472   7.665  15.962  1.00  0.00     0.304 C 
HETATM   16  O1  UNL     1     -32.543   7.220  15.258  1.00  0.00    -0.299 OA
ENDBRANCH  12  15
ENDBRANCH   9  11
TORSDOF 2
ENDMDL
MODEL 5
REMARK VINA RESULT: -5.639874822      1.314      1.485
REMARK  2 active torsions:
REMARK  status: ('A' for Active; 'I' for Inactive)
REMARK    1  A    between atoms: N2_9  and  N3_11 
REMARK    2  A    between atoms: C8_13  and  C9_15 
ROOT
HETATM    1  N1  UNL     1     -37.620   9.248  11.417  1.00  0.00    -0.197 NA
HETATM    2  C1  UNL     1     -37.178   8.701  10.480  1.00  0.00     0.070 C 
HETATM    3  C2  UNL     1     -36.624   8.012   9.320  1.00  0.00     0.140 C 
HETATM    4  C3  UNL     1     -37.127   6.573   9.367  1.00  0.00     0.025 C 
HETATM    5  C4  UNL     1     -36.781   5.904  10.642  1.00  0.00     0.002 C 
HETATM    6  C5  UNL     1     -35.418   6.095  11.151  1.00  0.00     0.006 C 
HETATM    7  C6  UNL     1     -34.625   7.231  10.634  1.00  0.00     0.055 C 
HETATM    8  C7  UNL     1     -35.148   7.889   9.436  1.00  0.00     0.021 C 
HETATM    9  N2  UNL     1     -34.438   8.371   8.472  1.00  0.00    -0.306 N 
ATOM     10  H2  UNL     1     -34.874   8.818   7.665  1.00  0.00     0.186 HD
ENDROOT
BRANCH   9  11
HETATM   11  N3  UNL     1     -33.059   8.260   8.575  1.00  0.00    -0.285 N 
HETATM   12  C8  UNL     1     -32.292   8.109   7.527  1.00  0.00     0.168 C 
HETATM   13  N4  UNL     1     -30.909   8.010   7.796  1.00  0.00    -0.078 NA
ATOM     14  H3  UNL     1     -32.629   8.296   9.499  1.00  0.00     0.188 HD
BRANCH  12  15
HETATM   15  C9  UNL     1     -32.805   8.046   6.188  1.00  0.00     0.304 C 
HETATM   16  O1  UNL     1     -33.762   7.306   5.884  1.00  0.00    -0.299 OA
ENDBRANCH  12  15
ENDBRANCH   9  11
TORSDOF 2
ENDMDL
