MODEL 1
REMARK VINA RESULT: -7.080715769      0.000      0.000
REMARK  6 active torsions:
REMARK  status: ('A' for Active; 'I' for Inactive)
REMARK    1  A    between atoms: C6_9  and  S1_10 
REMARK    2  A    between atoms: S1_10  and  C7_11 
REMARK    3  A    between atoms: C7_11  and  C8_12 
REMARK    4  A    between atoms: C8_12  and  N3_13 
REMARK    5  A    between atoms: C9_15  and  C10_16 
REMARK    6  A    between atoms: C11_17  and  O1_18 
ROOT
HETATM    1  C7  UNL     1     -12.163 -11.803   4.781  1.00  0.00     0.102 C 
ENDROOT
BRANCH   1   2
HETATM    2  S1  UNL     1     -11.683 -10.162   4.121  1.00  0.00    -0.092 SA
BRANCH   2   3
HETATM    3  C6  UNL     1     -13.174  -9.203   3.779  1.00  0.00     0.147 A 
HETATM    4  N2  UNL     1     -14.364  -9.756   4.105  1.00  0.00    -0.338 N 
HETATM    5  C5  UNL     1     -15.469  -9.063   3.861  1.00  0.00     0.043 A 
ATOM      6  H2  UNL     1     -14.411 -10.683   4.529  1.00  0.00     0.168 HD
HETATM    7  C4  UNL     1     -16.849  -9.528   4.160  1.00  0.00     0.061 C 
HETATM    8  C15 UNL     1     -15.383  -7.793   3.276  1.00  0.00     0.121 A 
HETATM    9  C3  UNL     1     -17.557  -8.363   4.816  1.00  0.00     0.026 C 
HETATM   10  C2  UNL     1     -17.759  -7.210   3.888  1.00  0.00     0.123 C 
HETATM   11  N1  UNL     1     -16.588  -7.046   3.011  1.00  0.00    -0.379 N 
HETATM   12  C1  UNL     1     -16.581  -6.161   1.882  1.00  0.00     0.150 C 
HETATM   13  C14 UNL     1     -14.167  -7.243   2.949  1.00  0.00     0.276 A 
HETATM   14  N6  UNL     1     -13.067  -7.981   3.215  1.00  0.00    -0.302 N 
HETATM   15  O4  UNL     1     -14.113  -6.101   2.425  1.00  0.00    -0.266 OA
ATOM     16  H6  UNL     1     -12.144  -7.610   2.987  1.00  0.00     0.171 HD
ENDBRANCH   2   3
ENDBRANCH   1   2
BRANCH   1  17
HETATM   17  C8  UNL     1     -12.428 -11.663   6.263  1.00  0.00     0.129 C 
BRANCH  17  18
HETATM   18  N3  UNL     1     -13.767 -12.067   6.616  1.00  0.00    -0.397 N 
HETATM   19  C9  UNL     1     -14.734 -11.253   6.797  1.00  0.00     0.104 C 
ATOM     20  H3  UNL     1     -13.953 -13.064   6.729  1.00  0.00     0.158 HD
BRANCH  19  21
HETATM   21  C10 UNL     1     -16.048 -11.754   7.150  1.00  0.00     0.098 A 
HETATM   22  C11 UNL     1     -16.603 -11.421   8.368  1.00  0.00     0.161 A 
HETATM   23  N4  UNL     1     -17.831 -11.881   8.718  1.00  0.00    -0.288 N 
HETATM   24  C12 UNL     1     -18.508 -12.663   7.876  1.00  0.00     0.329 A 
ATOM     25  H4  UNL     1     -18.234 -11.630   9.621  1.00  0.00     0.172 HD
HETATM   26  O2  UNL     1     -19.654 -13.099   8.189  1.00  0.00    -0.247 OA
HETATM   27  N5  UNL     1     -17.997 -13.009   6.679  1.00  0.00    -0.275 N 
HETATM   28  C13 UNL     1     -16.787 -12.565   6.315  1.00  0.00     0.265 A 
ATOM     29  H5  UNL     1     -18.532 -13.608   6.050  1.00  0.00     0.173 HD
HETATM   30  O3  UNL     1     -16.268 -12.861   5.205  1.00  0.00    -0.267 OA
BRANCH  22  31
HETATM   31  O1  UNL     1     -15.897 -10.612   9.237  1.00  0.00    -0.345 OA
ATOM     32  H1  UNL     1     -14.951 -10.559   9.161  1.00  0.00     0.219 HD
ENDBRANCH  22  31
ENDBRANCH  19  21
ENDBRANCH  17  18
ENDBRANCH   1  17
TORSDOF 6
ENDMDL
MODEL 2
REMARK VINA RESULT: -6.934219974      1.295      1.566
REMARK  6 active torsions:
REMARK  status: ('A' for Active; 'I' for Inactive)
REMARK    1  A    between atoms: C6_9  and  S1_10 
REMARK    2  A    between atoms: S1_10  and  C7_11 
REMARK    3  A    between atoms: C7_11  and  C8_12 
REMARK    4  A    between atoms: C8_12  and  N3_13 
REMARK    5  A    between atoms: C9_15  and  C10_16 
REMARK    6  A    between atoms: C11_17  and  O1_18 
ROOT
HETATM    1  C7  UNL     1     -12.155 -11.808   4.806  1.00  0.00     0.102 C 
ENDROOT
BRANCH   1   2
HETATM    2  S1  UNL     1     -11.639 -10.179   4.141  1.00  0.00    -0.092 SA
BRANCH   2   3
HETATM    3  C6  UNL     1     -13.039  -9.417   3.293  1.00  0.00     0.147 A 
HETATM    4  N2  UNL     1     -13.876  -8.650   4.029  1.00  0.00    -0.338 N 
HETATM    5  C5  UNL     1     -14.909  -8.082   3.420  1.00  0.00     0.043 A 
ATOM      6  H2  UNL     1     -13.716  -8.512   5.027  1.00  0.00     0.168 HD
HETATM    7  C4  UNL     1     -15.917  -7.213   4.084  1.00  0.00     0.061 C 
HETATM    8  C15 UNL     1     -15.111  -8.286   2.049  1.00  0.00     0.121 A 
HETATM    9  C3  UNL     1     -16.108  -6.016   3.179  1.00  0.00     0.026 C 
HETATM   10  C2  UNL     1     -16.743  -6.372   1.874  1.00  0.00     0.123 C 
HETATM   11  N1  UNL     1     -16.238  -7.667   1.393  1.00  0.00    -0.379 N 
HETATM   12  C1  UNL     1     -16.818  -8.364   0.281  1.00  0.00     0.150 C 
HETATM   13  C14 UNL     1     -14.254  -9.068   1.314  1.00  0.00     0.276 A 
HETATM   14  N6  UNL     1     -13.215  -9.628   1.971  1.00  0.00    -0.302 N 
HETATM   15  O4  UNL     1     -14.455  -9.238   0.084  1.00  0.00    -0.266 OA
ATOM     16  H6  UNL     1     -12.554 -10.216   1.462  1.00  0.00     0.171 HD
ENDBRANCH   2   3
ENDBRANCH   1   2
BRANCH   1  17
HETATM   17  C8  UNL     1     -12.405 -11.661   6.290  1.00  0.00     0.129 C 
BRANCH  17  18
HETATM   18  N3  UNL     1     -13.744 -12.054   6.657  1.00  0.00    -0.397 N 
HETATM   19  C9  UNL     1     -14.743 -11.258   6.667  1.00  0.00     0.104 C 
ATOM     20  H3  UNL     1     -13.902 -13.025   6.925  1.00  0.00     0.158 HD
BRANCH  19  21
HETATM   21  C10 UNL     1     -16.053 -11.745   7.051  1.00  0.00     0.098 A 
HETATM   22  C11 UNL     1     -16.585 -11.392   8.274  1.00  0.00     0.161 A 
HETATM   23  N4  UNL     1     -17.809 -11.839   8.652  1.00  0.00    -0.288 N 
HETATM   24  C12 UNL     1     -18.506 -12.628   7.833  1.00  0.00     0.329 A 
ATOM     25  H4  UNL     1     -18.194 -11.573   9.558  1.00  0.00     0.172 HD
HETATM   26  O2  UNL     1     -19.649 -13.052   8.174  1.00  0.00    -0.247 OA
HETATM   27  N5  UNL     1     -18.020 -12.993   6.632  1.00  0.00    -0.275 N 
HETATM   28  C13 UNL     1     -16.814 -12.563   6.240  1.00  0.00     0.265 A 
ATOM     29  H5  UNL     1     -18.570 -13.598   6.021  1.00  0.00     0.173 HD
HETATM   30  O3  UNL     1     -16.317 -12.878   5.125  1.00  0.00    -0.267 OA
BRANCH  22  31
HETATM   31  O1  UNL     1     -15.857 -10.576   9.118  1.00  0.00    -0.345 OA
ATOM     32  H1  UNL     1     -14.924 -10.469   8.974  1.00  0.00     0.219 HD
ENDBRANCH  22  31
ENDBRANCH  19  21
ENDBRANCH  17  18
ENDBRANCH   1  17
TORSDOF 6
ENDMDL
MODEL 3
REMARK VINA RESULT: -6.929839631      1.684      5.927
REMARK  6 active torsions:
REMARK  status: ('A' for Active; 'I' for Inactive)
REMARK    1  A    between atoms: C6_9  and  S1_10 
REMARK    2  A    between atoms: S1_10  and  C7_11 
REMARK    3  A    between atoms: C7_11  and  C8_12 
REMARK    4  A    between atoms: C8_12  and  N3_13 
REMARK    5  A    between atoms: C9_15  and  C10_16 
REMARK    6  A    between atoms: C11_17  and  O1_18 
ROOT
HETATM    1  C7  UNL     1     -11.723 -11.277   4.389  1.00  0.00     0.102 C 
ENDROOT
BRANCH   1   2
HETATM    2  S1  UNL     1     -12.152 -11.355   6.170  1.00  0.00    -0.092 SA
BRANCH   2   3
HETATM    3  C6  UNL     1     -13.921 -11.670   6.339  1.00  0.00     0.147 A 
HETATM    4  N2  UNL     1     -14.515 -12.437   5.396  1.00  0.00    -0.338 N 
HETATM    5  C5  UNL     1     -15.815 -12.678   5.507  1.00  0.00     0.043 A 
ATOM      6  H2  UNL     1     -13.976 -12.821   4.619  1.00  0.00     0.168 HD
HETATM    7  C4  UNL     1     -16.612 -13.499   4.557  1.00  0.00     0.061 C 
HETATM    8  C15 UNL     1     -16.537 -12.140   6.580  1.00  0.00     0.121 A 
HETATM    9  C3  UNL     1     -17.470 -14.415   5.404  1.00  0.00     0.026 C 
HETATM   10  C2  UNL     1     -18.500 -13.676   6.195  1.00  0.00     0.123 C 
HETATM   11  N1  UNL     1     -17.951 -12.405   6.693  1.00  0.00    -0.379 N 
HETATM   12  C1  UNL     1     -18.765 -11.392   7.300  1.00  0.00     0.150 C 
HETATM   13  C14 UNL     1     -15.922 -11.363   7.530  1.00  0.00     0.276 A 
HETATM   14  N6  UNL     1     -14.598 -11.142   7.382  1.00  0.00    -0.302 N 
HETATM   15  O4  UNL     1     -16.590 -10.890   8.485  1.00  0.00    -0.266 OA
ATOM     16  H6  UNL     1     -14.102 -10.569   8.065  1.00  0.00     0.171 HD
ENDBRANCH   2   3
ENDBRANCH   1   2
BRANCH   1  17
HETATM   17  C8  UNL     1     -11.666  -9.824   3.976  1.00  0.00     0.129 C 
BRANCH  17  18
HETATM   18  N3  UNL     1     -12.970  -9.302   3.645  1.00  0.00    -0.397 N 
HETATM   19  C9  UNL     1     -13.386  -8.147   3.998  1.00  0.00     0.104 C 
ATOM     20  H3  UNL     1     -13.597  -9.890   3.096  1.00  0.00     0.158 HD
BRANCH  19  21
HETATM   21  C10 UNL     1     -14.715  -7.709   3.618  1.00  0.00     0.098 A 
HETATM   22  C11 UNL     1     -14.864  -6.637   2.763  1.00  0.00     0.161 A 
HETATM   23  N4  UNL     1     -16.099  -6.210   2.396  1.00  0.00    -0.288 N 
HETATM   24  C12 UNL     1     -17.180  -6.834   2.867  1.00  0.00     0.329 A 
ATOM     25  H4  UNL     1     -16.200  -5.416   1.764  1.00  0.00     0.172 HD
HETATM   26  O2  UNL     1     -18.338  -6.446   2.533  1.00  0.00    -0.247 OA
HETATM   27  N5  UNL     1     -17.073  -7.884   3.703  1.00  0.00    -0.275 N 
HETATM   28  C13 UNL     1     -15.863  -8.320   4.077  1.00  0.00     0.265 A 
ATOM     29  H5  UNL     1     -17.913  -8.346   4.052  1.00  0.00     0.173 HD
HETATM   30  O3  UNL     1     -15.713  -9.299   4.857  1.00  0.00    -0.267 OA
BRANCH  22  31
HETATM   31  O1  UNL     1     -13.741  -5.994   2.279  1.00  0.00    -0.345 OA
ATOM     32  H1  UNL     1     -13.563  -6.005   1.346  1.00  0.00     0.219 HD
ENDBRANCH  22  31
ENDBRANCH  19  21
ENDBRANCH  17  18
ENDBRANCH   1  17
TORSDOF 6
ENDMDL
MODEL 4
REMARK VINA RESULT: -6.900559534      1.404      1.811
REMARK  6 active torsions:
REMARK  status: ('A' for Active; 'I' for Inactive)
REMARK    1  A    between atoms: C6_9  and  S1_10 
REMARK    2  A    between atoms: S1_10  and  C7_11 
REMARK    3  A    between atoms: C7_11  and  C8_12 
REMARK    4  A    between atoms: C8_12  and  N3_13 
REMARK    5  A    between atoms: C9_15  and  C10_16 
REMARK    6  A    between atoms: C11_17  and  O1_18 
ROOT
HETATM    1  C7  UNL     1     -12.084 -11.933   4.870  1.00  0.00     0.102 C 
ENDROOT
BRANCH   1   2
HETATM    2  S1  UNL     1     -11.610 -10.338   4.102  1.00  0.00    -0.092 SA
BRANCH   2   3
HETATM    3  C6  UNL     1     -13.095  -9.510   3.494  1.00  0.00     0.147 A 
HETATM    4  N2  UNL     1     -13.311  -9.509   2.159  1.00  0.00    -0.338 N 
HETATM    5  C5  UNL     1     -14.399  -8.906   1.697  1.00  0.00     0.043 A 
ATOM      6  H2  UNL     1     -12.654  -9.961   1.523  1.00  0.00     0.168 HD
HETATM    7  C4  UNL     1     -14.779  -8.817   0.262  1.00  0.00     0.061 C 
HETATM    8  C15 UNL     1     -15.288  -8.289   2.587  1.00  0.00     0.121 A 
HETATM    9  C3  UNL     1     -16.251  -9.157   0.191  1.00  0.00     0.026 C 
HETATM   10  C2  UNL     1     -17.115  -8.136   0.856  1.00  0.00     0.123 C 
HETATM   11  N1  UNL     1     -16.468  -7.633   2.078  1.00  0.00    -0.379 N 
HETATM   12  C1  UNL     1     -16.958  -6.500   2.808  1.00  0.00     0.150 C 
HETATM   13  C14 UNL     1     -15.056  -8.297   3.941  1.00  0.00     0.276 A 
HETATM   14  N6  UNL     1     -13.938  -8.922   4.371  1.00  0.00    -0.302 N 
HETATM   15  O4  UNL     1     -15.868  -7.738   4.722  1.00  0.00    -0.266 OA
ATOM     16  H6  UNL     1     -13.728  -8.951   5.369  1.00  0.00     0.171 HD
ENDBRANCH   2   3
ENDBRANCH   1   2
BRANCH   1  17
HETATM   17  C8  UNL     1     -12.401 -11.685   6.328  1.00  0.00     0.129 C 
BRANCH  17  18
HETATM   18  N3  UNL     1     -13.749 -12.078   6.664  1.00  0.00    -0.397 N 
HETATM   19  C9  UNL     1     -14.728 -11.263   6.755  1.00  0.00     0.104 C 
ATOM     20  H3  UNL     1     -13.930 -13.066   6.841  1.00  0.00     0.158 HD
BRANCH  19  21
HETATM   21  C10 UNL     1     -16.048 -11.752   7.100  1.00  0.00     0.098 A 
HETATM   22  C11 UNL     1     -16.612 -11.407   8.310  1.00  0.00     0.161 A 
HETATM   23  N4  UNL     1     -17.847 -11.856   8.652  1.00  0.00    -0.288 N 
HETATM   24  C12 UNL     1     -18.521 -12.638   7.808  1.00  0.00     0.329 A 
ATOM     25  H4  UNL     1     -18.256 -11.596   9.549  1.00  0.00     0.172 HD
HETATM   26  O2  UNL     1     -19.673 -13.064   8.113  1.00  0.00    -0.247 OA
HETATM   27  N5  UNL     1     -18.003 -12.995   6.618  1.00  0.00    -0.275 N 
HETATM   28  C13 UNL     1     -16.786 -12.563   6.262  1.00  0.00     0.265 A 
ATOM     29  H5  UNL     1     -18.536 -13.595   5.988  1.00  0.00     0.173 HD
HETATM   30  O3  UNL     1     -16.259 -12.870   5.159  1.00  0.00    -0.267 OA
BRANCH  22  31
HETATM   31  O1  UNL     1     -15.908 -10.597   9.180  1.00  0.00    -0.345 OA
ATOM     32  H1  UNL     1     -16.378  -9.967   9.714  1.00  0.00     0.219 HD
ENDBRANCH  22  31
ENDBRANCH  19  21
ENDBRANCH  17  18
ENDBRANCH   1  17
TORSDOF 6
ENDMDL
MODEL 5
REMARK VINA RESULT: -6.900445360      1.831      5.881
REMARK  6 active torsions:
REMARK  status: ('A' for Active; 'I' for Inactive)
REMARK    1  A    between atoms: C6_9  and  S1_10 
REMARK    2  A    between atoms: S1_10  and  C7_11 
REMARK    3  A    between atoms: C7_11  and  C8_12 
REMARK    4  A    between atoms: C8_12  and  N3_13 
REMARK    5  A    between atoms: C9_15  and  C10_16 
REMARK    6  A    between atoms: C11_17  and  O1_18 
ROOT
HETATM    1  C7  UNL     1     -12.286 -12.072   4.930  1.00  0.00     0.102 C 
ENDROOT
BRANCH   1   2
HETATM    2  S1  UNL     1     -12.824 -11.230   6.467  1.00  0.00    -0.092 SA
BRANCH   2   3
HETATM    3  C6  UNL     1     -14.626 -11.118   6.479  1.00  0.00     0.147 A 
HETATM    4  N2  UNL     1     -15.185  -9.956   6.071  1.00  0.00    -0.338 N 
HETATM    5  C5  UNL     1     -16.508  -9.859   6.074  1.00  0.00     0.043 A 
ATOM      6  H2  UNL     1     -14.604  -9.175   5.768  1.00  0.00     0.168 HD
HETATM    7  C4  UNL     1     -17.274  -8.655   5.655  1.00  0.00     0.061 C 
HETATM    8  C15 UNL     1     -17.289 -10.943   6.495  1.00  0.00     0.121 A 
HETATM    9  C3  UNL     1     -18.393  -9.151   4.765  1.00  0.00     0.026 C 
HETATM   10  C2  UNL     1     -19.396  -9.978   5.501  1.00  0.00     0.123 C 
HETATM   11  N1  UNL     1     -18.727 -10.830   6.497  1.00  0.00    -0.379 N 
HETATM   12  C1  UNL     1     -19.445 -11.571   7.494  1.00  0.00     0.150 C 
HETATM   13  C14 UNL     1     -16.707 -12.118   6.908  1.00  0.00     0.276 A 
HETATM   14  N6  UNL     1     -15.358 -12.176   6.890  1.00  0.00    -0.302 N 
HETATM   15  O4  UNL     1     -17.427 -13.078   7.282  1.00  0.00    -0.266 OA
ATOM     16  H6  UNL     1     -14.886 -13.030   7.189  1.00  0.00     0.171 HD
ENDBRANCH   2   3
ENDBRANCH   1   2
BRANCH   1  17
HETATM   17  C8  UNL     1     -11.694 -11.036   4.000  1.00  0.00     0.129 C 
BRANCH  17  18
HETATM   18  N3  UNL     1     -12.528  -9.863   3.894  1.00  0.00    -0.397 N 
HETATM   19  C9  UNL     1     -13.210  -9.565   2.856  1.00  0.00     0.104 C 
ATOM     20  H3  UNL     1     -12.576  -9.234   4.695  1.00  0.00     0.158 HD
BRANCH  19  21
HETATM   21  C10 UNL     1     -14.020  -8.363   2.842  1.00  0.00     0.098 A 
HETATM   22  C11 UNL     1     -13.461  -7.155   3.204  1.00  0.00     0.161 A 
HETATM   23  N4  UNL     1     -14.203  -6.019   3.199  1.00  0.00    -0.288 N 
HETATM   24  C12 UNL     1     -15.487  -6.070   2.840  1.00  0.00     0.329 A 
ATOM     25  H4  UNL     1     -13.781  -5.130   3.468  1.00  0.00     0.172 HD
HETATM   26  O2  UNL     1     -16.190  -5.018   2.830  1.00  0.00    -0.247 OA
HETATM   27  N5  UNL     1     -16.067  -7.231   2.480  1.00  0.00    -0.275 N 
HETATM   28  C13 UNL     1     -15.351  -8.363   2.479  1.00  0.00     0.265 A 
ATOM     29  H5  UNL     1     -17.050  -7.248   2.210  1.00  0.00     0.173 HD
HETATM   30  O3  UNL     1     -15.850  -9.473   2.150  1.00  0.00    -0.267 OA
BRANCH  22  31
HETATM   31  O1  UNL     1     -12.131  -7.108   3.575  1.00  0.00    -0.345 OA
ATOM     32  H1  UNL     1     -11.713  -6.265   3.707  1.00  0.00     0.219 HD
ENDBRANCH  22  31
ENDBRANCH  19  21
ENDBRANCH  17  18
ENDBRANCH   1  17
TORSDOF 6
ENDMDL
