MODEL 1
REMARK VINA RESULT: -6.838451254      0.000      0.000
REMARK  7 active torsions:
REMARK  status: ('A' for Active; 'I' for Inactive)
REMARK    1  A    between atoms: N1_1  and  C1_4 
REMARK    2  A    between atoms: C4_12  and  C5_13 
REMARK    3  A    between atoms: C5_13  and  N4_14 
REMARK    4  A    between atoms: N4_14  and  C6_16 
REMARK    5  A    between atoms: C6_16  and  C7_17 
REMARK    6  A    between atoms: N5_20  and  C10_21 
REMARK    7  A    between atoms: C10_21  and  C11_22 
ROOT
HETATM    1  C1  UNL     1     -11.990 -11.817   6.575  1.00  0.00     0.678 A 
HETATM    2  N2  UNL     1     -12.905 -12.788   6.484  1.00  0.00    -0.176 N 
ATOM      3  H2  UNL     1     -13.108 -13.364   7.301  1.00  0.00     0.186 HD
HETATM    4  C2  UNL     1     -13.560 -13.019   5.339  1.00  0.00     0.137 A 
HETATM    5  N3  UNL     1     -14.459 -13.994   5.313  1.00  0.00    -0.308 N 
ATOM      6  H3  UNL     1     -14.633 -14.553   6.149  1.00  0.00     0.170 HD
HETATM    7  C3  UNL     1     -15.138 -14.242   4.177  1.00  0.00     0.254 A 
HETATM    8  O1  UNL     1     -16.012 -15.158   4.104  1.00  0.00    -0.268 OA
HETATM    9  C4  UNL     1     -14.908 -13.496   3.042  1.00  0.00     0.028 A 
HETATM   10  C16 UNL     1     -13.976 -12.477   3.050  1.00  0.00     0.033 A 
HETATM   11  C17 UNL     1     -13.305 -12.248   4.228  1.00  0.00     0.051 A 
HETATM   12  C18 UNL     1     -12.338 -11.222   4.322  1.00  0.00     0.145 A 
HETATM   13  N8  UNL     1     -12.093 -10.454   3.150  1.00  0.00    -0.081 NA
HETATM   14  N9  UNL     1     -11.722 -11.045   5.482  1.00  0.00    -0.178 N 
ATOM     15  H9  UNL     1     -11.024 -10.307   5.560  1.00  0.00     0.185 HD
ENDROOT
BRANCH   9  16
HETATM   16  C5  UNL     1     -15.673 -13.783   1.777  1.00  0.00     0.163 C 
BRANCH  16  17
HETATM   17  N4  UNL     1     -15.096 -12.940   0.746  1.00  0.00    -0.397 N 
ATOM     18  H4  UNL     1     -14.131 -12.612   0.797  1.00  0.00     0.158 HD
BRANCH  17  19
HETATM   19  C6  UNL     1     -15.939 -12.599  -0.329  1.00  0.00     0.062 C 
BRANCH  19  20
HETATM   20  C7  UNL     1     -15.844 -11.149  -0.593  1.00  0.00     0.043 C 
HETATM   21  C8  UNL     1     -14.482 -10.575  -0.719  1.00  0.00     0.031 C 
HETATM   22  C9  UNL     1     -14.682  -9.093  -0.373  1.00  0.00     0.123 C 
HETATM   23  N5  UNL     1     -15.917  -8.975   0.280  1.00  0.00    -0.388 N 
HETATM   24  C15 UNL     1     -16.550 -10.241   0.407  1.00  0.00     0.132 C 
BRANCH  23  25
HETATM   25  C10 UNL     1     -16.176  -7.978   1.217  1.00  0.00     0.099 C 
BRANCH  25  26
HETATM   26  C11 UNL     1     -15.207  -7.748   2.284  1.00  0.00     0.010 A 
HETATM   27  C12 UNL     1     -15.183  -8.582   3.414  1.00  0.00     0.103 A 
HETATM   28  N6  UNL     1     -14.290  -8.385   4.408  1.00  0.00    -0.361 N 
HETATM   29  C13 UNL     1     -13.412  -7.396   4.349  1.00  0.00     0.180 A 
ATOM     30  H6  UNL     1     -14.292  -9.008   5.216  1.00  0.00     0.166 HD
HETATM   31  N7  UNL     1     -13.423  -6.583   3.266  1.00  0.00    -0.361 N 
HETATM   32  C14 UNL     1     -14.281  -6.730   2.251  1.00  0.00     0.103 A 
ATOM     33  H7  UNL     1     -12.745  -5.822   3.223  1.00  0.00     0.166 HD
ENDBRANCH  25  26
ENDBRANCH  23  25
ENDBRANCH  19  20
ENDBRANCH  17  19
ENDBRANCH  16  17
ENDBRANCH   9  16
BRANCH   1  34
HETATM   34  N1  UNL     1     -11.365 -11.556   7.645  1.00  0.00    -0.234 N 
ATOM     35  H12 UNL     1     -10.874 -10.663   7.702  1.00  0.00     0.174 HD
ATOM     36  H11 UNL     1     -11.351 -12.188   8.447  1.00  0.00     0.174 HD
ENDBRANCH   1  34
TORSDOF 7
ENDMDL
MODEL 2
REMARK VINA RESULT: -6.696403368      3.539      6.115
REMARK  7 active torsions:
REMARK  status: ('A' for Active; 'I' for Inactive)
REMARK    1  A    between atoms: N1_1  and  C1_4 
REMARK    2  A    between atoms: C4_12  and  C5_13 
REMARK    3  A    between atoms: C5_13  and  N4_14 
REMARK    4  A    between atoms: N4_14  and  C6_16 
REMARK    5  A    between atoms: C6_16  and  C7_17 
REMARK    6  A    between atoms: N5_20  and  C10_21 
REMARK    7  A    between atoms: C10_21  and  C11_22 
ROOT
HETATM    1  C1  UNL     1     -11.649  -9.385   3.757  1.00  0.00     0.678 A 
HETATM    2  N2  UNL     1     -12.120  -8.133   3.748  1.00  0.00    -0.176 N 
ATOM      3  H2  UNL     1     -11.482  -7.356   3.919  1.00  0.00     0.186 HD
HETATM    4  C2  UNL     1     -13.416  -7.882   3.519  1.00  0.00     0.137 A 
HETATM    5  N3  UNL     1     -13.821  -6.619   3.520  1.00  0.00    -0.308 N 
ATOM      6  H3  UNL     1     -13.156  -5.867   3.699  1.00  0.00     0.170 HD
HETATM    7  C3  UNL     1     -15.117  -6.338   3.283  1.00  0.00     0.254 A 
HETATM    8  O1  UNL     1     -15.553  -5.147   3.266  1.00  0.00    -0.268 OA
HETATM    9  C4  UNL     1     -16.024  -7.347   3.044  1.00  0.00     0.028 A 
HETATM   10  C16 UNL     1     -15.620  -8.667   3.040  1.00  0.00     0.033 A 
HETATM   11  C17 UNL     1     -14.289  -8.917   3.279  1.00  0.00     0.051 A 
HETATM   12  C18 UNL     1     -13.793 -10.240   3.288  1.00  0.00     0.145 A 
HETATM   13  N8  UNL     1     -14.729 -11.284   3.047  1.00  0.00    -0.081 NA
HETATM   14  N9  UNL     1     -12.502 -10.424   3.524  1.00  0.00    -0.178 N 
ATOM     15  H9  UNL     1     -12.134 -11.375   3.532  1.00  0.00     0.185 HD
ENDROOT
BRANCH   9  16
HETATM   16  C5  UNL     1     -17.471  -7.020   2.781  1.00  0.00     0.163 C 
BRANCH  16  17
HETATM   17  N4  UNL     1     -18.077  -6.764   4.076  1.00  0.00    -0.397 N 
ATOM     18  H4  UNL     1     -17.628  -6.168   4.771  1.00  0.00     0.158 HD
BRANCH  17  19
HETATM   19  C6  UNL     1     -19.317  -7.385   4.319  1.00  0.00     0.062 C 
BRANCH  19  20
HETATM   20  C7  UNL     1     -19.104  -8.813   4.631  1.00  0.00     0.043 C 
HETATM   21  C8  UNL     1     -20.254  -9.556   5.203  1.00  0.00     0.031 C 
HETATM   22  C9  UNL     1     -19.592 -10.722   5.950  1.00  0.00     0.123 C 
HETATM   23  N5  UNL     1     -18.239 -10.400   6.123  1.00  0.00    -0.388 N 
HETATM   24  C15 UNL     1     -17.943  -9.125   5.567  1.00  0.00     0.132 C 
BRANCH  23  25
HETATM   25  C10 UNL     1     -17.487 -10.876   7.194  1.00  0.00     0.099 C 
BRANCH  25  26
HETATM   26  C11 UNL     1     -16.067 -11.147   6.990  1.00  0.00     0.010 A 
HETATM   27  C12 UNL     1     -15.097 -10.258   7.481  1.00  0.00     0.103 A 
HETATM   28  N6  UNL     1     -13.779 -10.497   7.303  1.00  0.00    -0.361 N 
HETATM   29  C13 UNL     1     -13.363 -11.575   6.656  1.00  0.00     0.180 A 
ATOM     30  H6  UNL     1     -13.094  -9.837   7.673  1.00  0.00     0.166 HD
HETATM   31  N7  UNL     1     -14.287 -12.440   6.176  1.00  0.00    -0.361 N 
HETATM   32  C14 UNL     1     -15.604 -12.259   6.323  1.00  0.00     0.103 A 
ATOM     33  H7  UNL     1     -13.963 -13.270   5.679  1.00  0.00     0.166 HD
ENDBRANCH  25  26
ENDBRANCH  23  25
ENDBRANCH  19  20
ENDBRANCH  17  19
ENDBRANCH  16  17
ENDBRANCH   9  16
BRANCH   1  34
HETATM   34  N1  UNL     1     -10.427  -9.660   3.950  1.00  0.00    -0.234 N 
ATOM     35  H12 UNL     1      -9.755  -8.894   3.899  1.00  0.00     0.174 HD
ATOM     36  H11 UNL     1     -10.098 -10.601   4.171  1.00  0.00     0.174 HD
ENDBRANCH   1  34
TORSDOF 7
ENDMDL
MODEL 3
REMARK VINA RESULT: -6.690602169      2.821      4.066
REMARK  7 active torsions:
REMARK  status: ('A' for Active; 'I' for Inactive)
REMARK    1  A    between atoms: N1_1  and  C1_4 
REMARK    2  A    between atoms: C4_12  and  C5_13 
REMARK    3  A    between atoms: C5_13  and  N4_14 
REMARK    4  A    between atoms: N4_14  and  C6_16 
REMARK    5  A    between atoms: C6_16  and  C7_17 
REMARK    6  A    between atoms: N5_20  and  C10_21 
REMARK    7  A    between atoms: C10_21  and  C11_22 
ROOT
HETATM    1  C1  UNL     1     -12.659 -11.654   6.721  1.00  0.00     0.678 A 
HETATM    2  N2  UNL     1     -13.483 -10.660   7.072  1.00  0.00    -0.176 N 
ATOM      3  H2  UNL     1     -13.157  -9.944   7.721  1.00  0.00     0.186 HD
HETATM    4  C2  UNL     1     -14.730 -10.589   6.587  1.00  0.00     0.137 A 
HETATM    5  N3  UNL     1     -15.497  -9.578   6.970  1.00  0.00    -0.308 N 
ATOM      6  H3  UNL     1     -15.140  -8.882   7.624  1.00  0.00     0.170 HD
HETATM    7  C3  UNL     1     -16.752  -9.477   6.490  1.00  0.00     0.254 A 
HETATM    8  O1  UNL     1     -17.523  -8.526   6.821  1.00  0.00    -0.268 OA
HETATM    9  C4  UNL     1     -17.246 -10.414   5.609  1.00  0.00     0.028 A 
HETATM   10  C16 UNL     1     -16.462 -11.474   5.200  1.00  0.00     0.033 A 
HETATM   11  C17 UNL     1     -15.184 -11.542   5.705  1.00  0.00     0.051 A 
HETATM   12  C18 UNL     1     -14.315 -12.592   5.334  1.00  0.00     0.145 A 
HETATM   13  N8  UNL     1     -14.824 -13.565   4.429  1.00  0.00    -0.081 NA
HETATM   14  N9  UNL     1     -13.095 -12.609   5.850  1.00  0.00    -0.178 N 
ATOM     15  H9  UNL     1     -12.460 -13.362   5.587  1.00  0.00     0.185 HD
ENDROOT
BRANCH   9  16
HETATM   16  C5  UNL     1     -18.651 -10.292   5.080  1.00  0.00     0.163 C 
BRANCH  16  17
HETATM   17  N4  UNL     1     -18.568  -9.491   3.872  1.00  0.00    -0.397 N 
ATOM     18  H4  UNL     1     -18.012  -9.785   3.069  1.00  0.00     0.158 HD
BRANCH  17  19
HETATM   19  C6  UNL     1     -19.297  -8.286   3.869  1.00  0.00     0.062 C 
BRANCH  19  20
HETATM   20  C7  UNL     1     -18.487  -7.219   3.245  1.00  0.00     0.043 C 
HETATM   21  C8  UNL     1     -18.398  -7.220   1.764  1.00  0.00     0.031 C 
HETATM   22  C9  UNL     1     -17.092  -6.465   1.482  1.00  0.00     0.123 C 
HETATM   23  N5  UNL     1     -16.351  -6.442   2.672  1.00  0.00    -0.388 N 
HETATM   24  C15 UNL     1     -17.041  -7.119   3.715  1.00  0.00     0.132 C 
BRANCH  23  25
HETATM   25  C10 UNL     1     -14.960  -6.389   2.686  1.00  0.00     0.099 C 
BRANCH  25  26
HETATM   26  C11 UNL     1     -14.211  -7.633   2.833  1.00  0.00     0.010 A 
HETATM   27  C12 UNL     1     -13.374  -7.832   3.944  1.00  0.00     0.103 A 
HETATM   28  N6  UNL     1     -12.677  -8.979   4.097  1.00  0.00    -0.361 N 
HETATM   29  C13 UNL     1     -12.760  -9.950   3.200  1.00  0.00     0.180 A 
ATOM     30  H6  UNL     1     -12.080  -9.099   4.914  1.00  0.00     0.166 HD
HETATM   31  N7  UNL     1     -13.561  -9.773   2.123  1.00  0.00    -0.361 N 
HETATM   32  C14 UNL     1     -14.276  -8.662   1.920  1.00  0.00     0.103 A 
ATOM     33  H7  UNL     1     -13.623 -10.523   1.435  1.00  0.00     0.166 HD
ENDBRANCH  25  26
ENDBRANCH  23  25
ENDBRANCH  19  20
ENDBRANCH  17  19
ENDBRANCH  16  17
ENDBRANCH   9  16
BRANCH   1  34
HETATM   34  N1  UNL     1     -11.468 -11.743   7.144  1.00  0.00    -0.234 N 
ATOM     35  H12 UNL     1     -10.810 -11.015   6.863  1.00  0.00     0.174 HD
ATOM     36  H11 UNL     1     -11.153 -12.493   7.760  1.00  0.00     0.174 HD
ENDBRANCH   1  34
TORSDOF 7
ENDMDL
MODEL 4
REMARK VINA RESULT: -6.673158997      2.456      4.903
REMARK  7 active torsions:
REMARK  status: ('A' for Active; 'I' for Inactive)
REMARK    1  A    between atoms: N1_1  and  C1_4 
REMARK    2  A    between atoms: C4_12  and  C5_13 
REMARK    3  A    between atoms: C5_13  and  N4_14 
REMARK    4  A    between atoms: N4_14  and  C6_16 
REMARK    5  A    between atoms: C6_16  and  C7_17 
REMARK    6  A    between atoms: N5_20  and  C10_21 
REMARK    7  A    between atoms: C10_21  and  C11_22 
ROOT
HETATM    1  C1  UNL     1     -14.813 -12.604   5.887  1.00  0.00     0.678 A 
HETATM    2  N2  UNL     1     -14.550 -12.221   4.632  1.00  0.00    -0.176 N 
ATOM      3  H2  UNL     1     -14.640 -12.895   3.873  1.00  0.00     0.186 HD
HETATM    4  C2  UNL     1     -14.169 -10.967   4.357  1.00  0.00     0.137 A 
HETATM    5  N3  UNL     1     -13.925 -10.647   3.093  1.00  0.00    -0.308 N 
ATOM      6  H3  UNL     1     -14.022 -11.348   2.358  1.00  0.00     0.170 HD
HETATM    7  C3  UNL     1     -13.550  -9.390   2.786  1.00  0.00     0.254 A 
HETATM    8  O1  UNL     1     -13.312  -9.033   1.592  1.00  0.00    -0.268 OA
HETATM    9  C4  UNL     1     -13.413  -8.436   3.770  1.00  0.00     0.028 A 
HETATM   10  C16 UNL     1     -13.661  -8.751   5.091  1.00  0.00     0.033 A 
HETATM   11  C17 UNL     1     -14.049 -10.042   5.367  1.00  0.00     0.051 A 
HETATM   12  C18 UNL     1     -14.326 -10.445   6.693  1.00  0.00     0.145 A 
HETATM   13  N8  UNL     1     -14.180  -9.464   7.713  1.00  0.00    -0.081 NA
HETATM   14  N9  UNL     1     -14.696 -11.700   6.902  1.00  0.00    -0.178 N 
ATOM     15  H9  UNL     1     -14.899 -12.001   7.855  1.00  0.00     0.185 HD
ENDROOT
BRANCH   9  16
HETATM   16  C5  UNL     1     -12.991  -7.034   3.415  1.00  0.00     0.163 C 
BRANCH  16  17
HETATM   17  N4  UNL     1     -14.090  -6.450   2.667  1.00  0.00    -0.397 N 
ATOM     18  H4  UNL     1     -14.129  -6.493   1.648  1.00  0.00     0.158 HD
BRANCH  17  19
HETATM   19  C6  UNL     1     -15.098  -5.821   3.423  1.00  0.00     0.062 C 
BRANCH  19  20
HETATM   20  C7  UNL     1     -16.420  -6.335   3.010  1.00  0.00     0.043 C 
HETATM   21  C8  UNL     1     -16.996  -7.437   3.818  1.00  0.00     0.031 C 
HETATM   22  C9  UNL     1     -17.970  -8.122   2.850  1.00  0.00     0.123 C 
HETATM   23  N5  UNL     1     -17.636  -7.709   1.552  1.00  0.00    -0.388 N 
HETATM   24  C15 UNL     1     -16.527  -6.820   1.569  1.00  0.00     0.132 C 
BRANCH  23  25
HETATM   25  C10 UNL     1     -17.866  -8.503   0.431  1.00  0.00     0.099 C 
BRANCH  25  26
HETATM   26  C11 UNL     1     -16.743  -9.221  -0.163  1.00  0.00     0.010 A 
HETATM   27  C12 UNL     1     -16.266 -10.405   0.423  1.00  0.00     0.103 A 
HETATM   28  N6  UNL     1     -15.230 -11.083  -0.117  1.00  0.00    -0.361 N 
HETATM   29  C13 UNL     1     -14.629 -10.648  -1.215  1.00  0.00     0.180 A 
ATOM     30  H6  UNL     1     -14.906 -11.942   0.327  1.00  0.00     0.166 HD
HETATM   31  N7  UNL     1     -15.077  -9.507  -1.790  1.00  0.00    -0.361 N 
HETATM   32  C14 UNL     1     -16.099  -8.795  -1.304  1.00  0.00     0.103 A 
ATOM     33  H7  UNL     1     -14.613  -9.175  -2.636  1.00  0.00     0.166 HD
ENDBRANCH  25  26
ENDBRANCH  23  25
ENDBRANCH  19  20
ENDBRANCH  17  19
ENDBRANCH  16  17
ENDBRANCH   9  16
BRANCH   1  34
HETATM   34  N1  UNL     1     -15.194 -13.775   6.184  1.00  0.00    -0.234 N 
ATOM     35  H12 UNL     1     -14.852 -14.545   5.608  1.00  0.00     0.174 HD
ATOM     36  H11 UNL     1     -15.806 -13.975   6.975  1.00  0.00     0.174 HD
ENDBRANCH   1  34
TORSDOF 7
ENDMDL
MODEL 5
REMARK VINA RESULT: -6.652669828      3.553      5.526
REMARK  7 active torsions:
REMARK  status: ('A' for Active; 'I' for Inactive)
REMARK    1  A    between atoms: N1_1  and  C1_4 
REMARK    2  A    between atoms: C4_12  and  C5_13 
REMARK    3  A    between atoms: C5_13  and  N4_14 
REMARK    4  A    between atoms: N4_14  and  C6_16 
REMARK    5  A    between atoms: C6_16  and  C7_17 
REMARK    6  A    between atoms: N5_20  and  C10_21 
REMARK    7  A    between atoms: C10_21  and  C11_22 
ROOT
HETATM    1  C1  UNL     1     -13.391 -12.696   5.813  1.00  0.00     0.678 A 
HETATM    2  N2  UNL     1     -13.305 -12.300   4.538  1.00  0.00    -0.176 N 
ATOM      3  H2  UNL     1     -13.102 -12.986   3.812  1.00  0.00     0.186 HD
HETATM    4  C2  UNL     1     -13.482 -11.016   4.198  1.00  0.00     0.137 A 
HETATM    5  N3  UNL     1     -13.388 -10.686   2.917  1.00  0.00    -0.308 N 
ATOM      6  H3  UNL     1     -13.178 -11.398   2.218  1.00  0.00     0.170 HD
HETATM    7  C3  UNL     1     -13.570  -9.403   2.546  1.00  0.00     0.254 A 
HETATM    8  O1  UNL     1     -13.497  -9.039   1.334  1.00  0.00    -0.268 OA
HETATM    9  C4  UNL     1     -13.850  -8.433   3.483  1.00  0.00     0.028 A 
HETATM   10  C16 UNL     1     -13.951  -8.758   4.821  1.00  0.00     0.033 A 
HETATM   11  C17 UNL     1     -13.765 -10.077   5.162  1.00  0.00     0.051 A 
HETATM   12  C18 UNL     1     -13.856 -10.495   6.510  1.00  0.00     0.145 A 
HETATM   13  N8  UNL     1     -14.138  -9.493   7.480  1.00  0.00    -0.081 NA
HETATM   14  N9  UNL     1     -13.668 -11.777   6.782  1.00  0.00    -0.178 N 
ATOM     15  H9  UNL     1     -13.732 -12.089   7.751  1.00  0.00     0.185 HD
ENDROOT
BRANCH   9  16
HETATM   16  C5  UNL     1     -14.051  -7.003   3.057  1.00  0.00     0.163 C 
BRANCH  16  17
HETATM   17  N4  UNL     1     -15.451  -6.873   2.695  1.00  0.00    -0.397 N 
ATOM     18  H4  UNL     1     -15.827  -7.289   1.842  1.00  0.00     0.158 HD
BRANCH  17  19
HETATM   19  C6  UNL     1     -16.262  -6.141   3.584  1.00  0.00     0.062 C 
BRANCH  19  20
HETATM   20  C7  UNL     1     -17.578  -6.800   3.711  1.00  0.00     0.043 C 
HETATM   21  C8  UNL     1     -18.329  -6.568   4.969  1.00  0.00     0.031 C 
HETATM   22  C9  UNL     1     -19.260  -7.784   5.062  1.00  0.00     0.123 C 
HETATM   23  N5  UNL     1     -18.764  -8.764   4.191  1.00  0.00    -0.388 N 
HETATM   24  C15 UNL     1     -17.586  -8.314   3.535  1.00  0.00     0.132 C 
BRANCH  23  25
HETATM   25  C10 UNL     1     -18.953 -10.126   4.411  1.00  0.00     0.099 C 
BRANCH  25  26
HETATM   26  C11 UNL     1     -18.712 -10.661   5.748  1.00  0.00     0.010 A 
HETATM   27  C12 UNL     1     -17.416 -10.671   6.287  1.00  0.00     0.103 A 
HETATM   28  N6  UNL     1     -17.177 -11.159   7.523  1.00  0.00    -0.361 N 
HETATM   29  C13 UNL     1     -18.161 -11.649   8.263  1.00  0.00     0.180 A 
ATOM     30  H6  UNL     1     -16.226 -11.151   7.892  1.00  0.00     0.166 HD
HETATM   31  N7  UNL     1     -19.416 -11.648   7.757  1.00  0.00    -0.361 N 
HETATM   32  C14 UNL     1     -19.713 -11.175   6.542  1.00  0.00     0.103 A 
ATOM     33  H7  UNL     1     -20.171 -12.025   8.330  1.00  0.00     0.166 HD
ENDBRANCH  25  26
ENDBRANCH  23  25
ENDBRANCH  19  20
ENDBRANCH  17  19
ENDBRANCH  16  17
ENDBRANCH   9  16
BRANCH   1  34
HETATM   34  N1  UNL     1     -13.250 -13.903   6.169  1.00  0.00    -0.234 N 
ATOM     35  H12 UNL     1     -13.608 -14.627   5.545  1.00  0.00     0.174 HD
ATOM     36  H11 UNL     1     -12.781 -14.175   7.034  1.00  0.00     0.174 HD
ENDBRANCH   1  34
TORSDOF 7
ENDMDL
