MODEL 1
REMARK VINA RESULT: -5.530289667      0.000      0.000
REMARK  9 active torsions:
REMARK  status: ('A' for Active; 'I' for Inactive)
REMARK    1  A    between atoms: C4_6  and  N2_7 
REMARK    2  A    between atoms: N2_7  and  C5_9 
REMARK    3  A    between atoms: C5_9  and  C6_10 
REMARK    4  A    between atoms: C6_10  and  N3_11 
REMARK    5  A    between atoms: N3_11  and  C7_13 
REMARK    6  A    between atoms: C7_13  and  N4_15 
REMARK    7  A    between atoms: N4_15  and  C8_17 
REMARK    8  A    between atoms: N8_29  and  C13_30 
REMARK    9  A    between atoms: C13_30  and  S2_31 
ROOT
HETATM    1  S2  UNL     1     -17.737  -7.015   4.073  1.00  0.00    -0.005 SA
HETATM    2  C14 UNL     1     -17.746  -7.972   5.550  1.00  0.00     0.139 C 
HETATM    3  N9  UNL     1     -17.739  -8.601   6.541  1.00  0.00    -0.184 NA
ENDROOT
BRANCH   1   4
HETATM    4  C13 UNL     1     -17.402  -8.050   2.650  1.00  0.00     0.160 C 
BRANCH   4   5
HETATM    5  N8  UNL     1     -16.444  -9.084   2.859  1.00  0.00    -0.288 N 
HETATM    6  C2  UNL     1     -16.661 -10.403   2.866  1.00  0.00     0.086 A 
HETATM    7  C1  UNL     1     -17.995 -11.020   2.641  1.00  0.00     0.089 C 
HETATM    8  N1  UNL     1     -15.475 -11.012   3.105  1.00  0.00    -0.340 N 
HETATM    9  C3  UNL     1     -14.521 -10.100   3.250  1.00  0.00     0.124 A 
ATOM     10  H1  UNL     1     -15.336 -12.020   3.166  1.00  0.00     0.167 HD
HETATM   11  C4  UNL     1     -13.142 -10.175   3.508  1.00  0.00     0.147 A 
HETATM   12  C12 UNL     1     -15.118  -8.871   3.096  1.00  0.00     0.160 A 
HETATM   13  N5  UNL     1     -12.444  -9.038   3.597  1.00  0.00    -0.175 N 
HETATM   14  C11 UNL     1     -13.038  -7.812   3.444  1.00  0.00     0.679 A 
ATOM     15  H5  UNL     1     -11.443  -9.084   3.785  1.00  0.00     0.186 HD
HETATM   16  N6  UNL     1     -12.318  -6.732   3.541  1.00  0.00    -0.234 N 
HETATM   17  N7  UNL     1     -14.339  -7.780   3.202  1.00  0.00    -0.174 N 
ATOM     18  H62 UNL     1     -11.315  -6.757   3.727  1.00  0.00     0.174 HD
ATOM     19  H61 UNL     1     -12.759  -5.820   3.427  1.00  0.00     0.174 HD
ATOM     20  H7  UNL     1     -14.779  -6.866   3.089  1.00  0.00     0.186 HD
BRANCH  11  21
HETATM   21  N2  UNL     1     -12.586 -11.312   3.652  1.00  0.00    -0.372 N 
ATOM     22  H2  UNL     1     -12.507 -11.914   2.832  1.00  0.00     0.161 HD
BRANCH  21  23
HETATM   23  C5  UNL     1     -12.067 -11.794   4.888  1.00  0.00     0.141 C 
BRANCH  23  24
HETATM   24  C6  UNL     1     -13.084 -12.712   5.618  1.00  0.00     0.141 C 
BRANCH  24  25
HETATM   25  N3  UNL     1     -13.647 -11.968   6.711  1.00  0.00    -0.366 N 
ATOM     26  H3  UNL     1     -13.183 -12.109   7.608  1.00  0.00     0.161 HD
BRANCH  25  27
HETATM   27  C7  UNL     1     -14.719 -11.088   6.744  1.00  0.00     0.167 C 
HETATM   28  S1  UNL     1     -14.313  -9.501   7.127  1.00  0.00    -0.041 SA
BRANCH  27  29
HETATM   29  N4  UNL     1     -16.079 -11.290   6.516  1.00  0.00    -0.363 N 
ATOM     30  H4  UNL     1     -16.497 -10.674   5.821  1.00  0.00     0.162 HD
BRANCH  29  31
HETATM   31  C8  UNL     1     -16.981 -12.236   7.114  1.00  0.00     0.075 C 
HETATM   32  C9  UNL     1     -18.343 -12.161   6.374  1.00  0.00     0.032 C 
HETATM   33  C10 UNL     1     -17.251 -11.818   8.568  1.00  0.00     0.032 C 
ENDBRANCH  29  31
ENDBRANCH  27  29
ENDBRANCH  25  27
ENDBRANCH  24  25
ENDBRANCH  23  24
ENDBRANCH  21  23
ENDBRANCH  11  21
ENDBRANCH   4   5
ENDBRANCH   1   4
TORSDOF 9
ENDMDL
MODEL 2
REMARK VINA RESULT: -5.105674000      1.836      4.481
REMARK  9 active torsions:
REMARK  status: ('A' for Active; 'I' for Inactive)
REMARK    1  A    between atoms: C4_6  and  N2_7 
REMARK    2  A    between atoms: N2_7  and  C5_9 
REMARK    3  A    between atoms: C5_9  and  C6_10 
REMARK    4  A    between atoms: C6_10  and  N3_11 
REMARK    5  A    between atoms: N3_11  and  C7_13 
REMARK    6  A    between atoms: C7_13  and  N4_15 
REMARK    7  A    between atoms: N4_15  and  C8_17 
REMARK    8  A    between atoms: N8_29  and  C13_30 
REMARK    9  A    between atoms: C13_30  and  S2_31 
ROOT
HETATM    1  S2  UNL     1     -17.776 -12.370   7.072  1.00  0.00    -0.005 SA
HETATM    2  C14 UNL     1     -16.788 -11.415   8.173  1.00  0.00     0.139 C 
HETATM    3  N9  UNL     1     -16.138 -10.765   8.902  1.00  0.00    -0.184 NA
ENDROOT
BRANCH   1   4
HETATM    4  C13 UNL     1     -16.756 -13.159   5.829  1.00  0.00     0.160 C 
BRANCH   4   5
HETATM    5  N8  UNL     1     -15.978 -12.276   5.026  1.00  0.00    -0.288 N 
HETATM    6  C2  UNL     1     -16.347 -11.671   3.893  1.00  0.00     0.086 A 
HETATM    7  C1  UNL     1     -17.689 -11.831   3.272  1.00  0.00     0.089 C 
HETATM    8  N1  UNL     1     -15.299 -10.929   3.465  1.00  0.00    -0.340 N 
HETATM    9  C3  UNL     1     -14.280 -11.058   4.307  1.00  0.00     0.124 A 
ATOM     10  H1  UNL     1     -15.292 -10.356   2.621  1.00  0.00     0.167 HD
HETATM   11  C4  UNL     1     -12.982 -10.525   4.345  1.00  0.00     0.147 A 
HETATM   12  C12 UNL     1     -14.695 -11.909   5.304  1.00  0.00     0.160 A 
HETATM   13  N5  UNL     1     -12.178 -10.863   5.359  1.00  0.00    -0.175 N 
HETATM   14  C11 UNL     1     -12.590 -11.711   6.354  1.00  0.00     0.679 A 
ATOM     15  H5  UNL     1     -11.234 -10.480   5.392  1.00  0.00     0.186 HD
HETATM   16  N6  UNL     1     -11.772 -12.013   7.320  1.00  0.00    -0.234 N 
HETATM   17  N7  UNL     1     -13.820 -12.195   6.286  1.00  0.00    -0.174 N 
ATOM     18  H62 UNL     1     -10.824 -11.640   7.373  1.00  0.00     0.174 HD
ATOM     19  H61 UNL     1     -12.078 -12.644   8.061  1.00  0.00     0.174 HD
ATOM     20  H7  UNL     1     -14.125 -12.827   7.027  1.00  0.00     0.186 HD
BRANCH  11  21
HETATM   21  N2  UNL     1     -12.594  -9.736   3.422  1.00  0.00    -0.372 N 
ATOM     22  H2  UNL     1     -12.577 -10.090   2.465  1.00  0.00     0.161 HD
BRANCH  21  23
HETATM   23  C5  UNL     1     -12.184  -8.390   3.644  1.00  0.00     0.141 C 
BRANCH  23  24
HETATM   24  C6  UNL     1     -13.380  -7.484   4.043  1.00  0.00     0.141 C 
BRANCH  24  25
HETATM   25  N3  UNL     1     -14.313  -7.476   2.951  1.00  0.00    -0.366 N 
ATOM     26  H3  UNL     1     -13.889  -7.549   2.026  1.00  0.00     0.161 HD
BRANCH  25  27
HETATM   27  C7  UNL     1     -15.697  -7.385   2.948  1.00  0.00     0.167 C 
HETATM   28  S1  UNL     1     -16.434  -7.935   1.538  1.00  0.00    -0.041 SA
BRANCH  27  29
HETATM   29  N4  UNL     1     -16.588  -6.916   3.911  1.00  0.00    -0.363 N 
ATOM     30  H4  UNL     1     -16.390  -5.979   4.262  1.00  0.00     0.162 HD
BRANCH  29  31
HETATM   31  C8  UNL     1     -17.741  -7.551   4.485  1.00  0.00     0.075 C 
HETATM   32  C9  UNL     1     -18.591  -6.477   5.216  1.00  0.00     0.032 C 
HETATM   33  C10 UNL     1     -17.279  -8.547   5.560  1.00  0.00     0.032 C 
ENDBRANCH  29  31
ENDBRANCH  27  29
ENDBRANCH  25  27
ENDBRANCH  24  25
ENDBRANCH  23  24
ENDBRANCH  21  23
ENDBRANCH  11  21
ENDBRANCH   4   5
ENDBRANCH   1   4
TORSDOF 9
ENDMDL
MODEL 3
REMARK VINA RESULT: -5.095410226      3.305      5.421
REMARK  9 active torsions:
REMARK  status: ('A' for Active; 'I' for Inactive)
REMARK    1  A    between atoms: C4_6  and  N2_7 
REMARK    2  A    between atoms: N2_7  and  C5_9 
REMARK    3  A    between atoms: C5_9  and  C6_10 
REMARK    4  A    between atoms: C6_10  and  N3_11 
REMARK    5  A    between atoms: N3_11  and  C7_13 
REMARK    6  A    between atoms: C7_13  and  N4_15 
REMARK    7  A    between atoms: N4_15  and  C8_17 
REMARK    8  A    between atoms: N8_29  and  C13_30 
REMARK    9  A    between atoms: C13_30  and  S2_31 
ROOT
HETATM    1  S2  UNL     1     -15.335 -10.663   7.267  1.00  0.00    -0.005 SA
HETATM    2  C14 UNL     1     -16.553  -9.475   6.816  1.00  0.00     0.139 C 
HETATM    3  N9  UNL     1     -17.375  -8.695   6.509  1.00  0.00    -0.184 NA
ENDROOT
BRANCH   1   4
HETATM    4  C13 UNL     1     -13.780 -10.316   6.449  1.00  0.00     0.160 C 
BRANCH   4   5
HETATM    5  N8  UNL     1     -13.803 -10.409   5.028  1.00  0.00    -0.288 N 
HETATM    6  C2  UNL     1     -13.707 -11.516   4.285  1.00  0.00     0.086 A 
HETATM    7  C1  UNL     1     -13.560 -12.882   4.855  1.00  0.00     0.089 C 
HETATM    8  N1  UNL     1     -13.770 -11.143   2.984  1.00  0.00    -0.340 N 
HETATM    9  C3  UNL     1     -13.902  -9.825   2.899  1.00  0.00     0.124 A 
ATOM     10  H1  UNL     1     -13.723 -11.780   2.189  1.00  0.00     0.167 HD
HETATM   11  C4  UNL     1     -14.011  -8.931   1.821  1.00  0.00     0.147 A 
HETATM   12  C12 UNL     1     -13.925  -9.343   4.187  1.00  0.00     0.160 A 
HETATM   13  N5  UNL     1     -14.135  -7.625   2.081  1.00  0.00    -0.175 N 
HETATM   14  C11 UNL     1     -14.158  -7.143   3.364  1.00  0.00     0.679 A 
ATOM     15  H5  UNL     1     -14.214  -6.970   1.304  1.00  0.00     0.186 HD
HETATM   16  N6  UNL     1     -14.280  -5.864   3.568  1.00  0.00    -0.234 N 
HETATM   17  N7  UNL     1     -14.053  -8.014   4.355  1.00  0.00    -0.174 N 
ATOM     18  H62 UNL     1     -14.361  -5.192   2.805  1.00  0.00     0.174 HD
ATOM     19  H61 UNL     1     -14.297  -5.505   4.523  1.00  0.00     0.174 HD
ATOM     20  H7  UNL     1     -14.070  -7.654   5.310  1.00  0.00     0.186 HD
BRANCH  11  21
HETATM   21  N2  UNL     1     -13.989  -9.374   0.627  1.00  0.00    -0.372 N 
ATOM     22  H2  UNL     1     -13.245 -10.022   0.370  1.00  0.00     0.161 HD
BRANCH  21  23
HETATM   23  C5  UNL     1     -14.941  -9.018  -0.372  1.00  0.00     0.141 C 
BRANCH  23  24
HETATM   24  C6  UNL     1     -14.665  -9.750  -1.714  1.00  0.00     0.141 C 
BRANCH  24  25
HETATM   25  N3  UNL     1     -14.409 -11.132  -1.419  1.00  0.00    -0.366 N 
ATOM     26  H3  UNL     1     -13.426 -11.363  -1.278  1.00  0.00     0.161 HD
BRANCH  25  27
HETATM   27  C7  UNL     1     -15.280 -12.204  -1.294  1.00  0.00     0.167 C 
HETATM   28  S1  UNL     1     -16.770 -11.988  -2.044  1.00  0.00    -0.041 SA
BRANCH  27  29
HETATM   29  N4  UNL     1     -15.136 -13.433  -0.652  1.00  0.00    -0.363 N 
ATOM     30  H4  UNL     1     -14.251 -13.909  -0.823  1.00  0.00     0.162 HD
BRANCH  29  31
HETATM   31  C8  UNL     1     -16.047 -14.131   0.212  1.00  0.00     0.075 C 
HETATM   32  C9  UNL     1     -15.541 -14.006   1.674  1.00  0.00     0.032 C 
HETATM   33  C10 UNL     1     -16.015 -15.628  -0.134  1.00  0.00     0.032 C 
ENDBRANCH  29  31
ENDBRANCH  27  29
ENDBRANCH  25  27
ENDBRANCH  24  25
ENDBRANCH  23  24
ENDBRANCH  21  23
ENDBRANCH  11  21
ENDBRANCH   4   5
ENDBRANCH   1   4
TORSDOF 9
ENDMDL
MODEL 4
REMARK VINA RESULT: -5.075156717      2.704      4.497
REMARK  9 active torsions:
REMARK  status: ('A' for Active; 'I' for Inactive)
REMARK    1  A    between atoms: C4_6  and  N2_7 
REMARK    2  A    between atoms: N2_7  and  C5_9 
REMARK    3  A    between atoms: C5_9  and  C6_10 
REMARK    4  A    between atoms: C6_10  and  N3_11 
REMARK    5  A    between atoms: N3_11  and  C7_13 
REMARK    6  A    between atoms: C7_13  and  N4_15 
REMARK    7  A    between atoms: N4_15  and  C8_17 
REMARK    8  A    between atoms: N8_29  and  C13_30 
REMARK    9  A    between atoms: C13_30  and  S2_31 
ROOT
HETATM    1  S2  UNL     1     -16.929  -7.255   3.690  1.00  0.00    -0.005 SA
HETATM    2  C14 UNL     1     -17.438  -7.872   5.258  1.00  0.00     0.139 C 
HETATM    3  N9  UNL     1     -17.784  -8.269   6.307  1.00  0.00    -0.184 NA
ENDROOT
BRANCH   1   4
HETATM    4  C13 UNL     1     -15.144  -7.277   3.550  1.00  0.00     0.160 C 
BRANCH   4   5
HETATM    5  N8  UNL     1     -14.564  -8.558   3.320  1.00  0.00    -0.288 N 
HETATM    6  C2  UNL     1     -14.308  -9.133   2.141  1.00  0.00     0.086 A 
HETATM    7  C1  UNL     1     -14.597  -8.493   0.830  1.00  0.00     0.089 C 
HETATM    8  N1  UNL     1     -13.762 -10.348   2.389  1.00  0.00    -0.340 N 
HETATM    9  C3  UNL     1     -13.673 -10.544   3.699  1.00  0.00     0.124 A 
ATOM     10  H1  UNL     1     -13.464 -11.012   1.675  1.00  0.00     0.167 HD
HETATM   11  C4  UNL     1     -13.198 -11.604   4.489  1.00  0.00     0.147 A 
HETATM   12  C12 UNL     1     -14.178  -9.417   4.305  1.00  0.00     0.160 A 
HETATM   13  N5  UNL     1     -13.250 -11.485   5.820  1.00  0.00    -0.175 N 
HETATM   14  C11 UNL     1     -13.753 -10.363   6.426  1.00  0.00     0.679 A 
ATOM     15  H5  UNL     1     -12.908 -12.251   6.400  1.00  0.00     0.186 HD
HETATM   16  N6  UNL     1     -13.784 -10.294   7.725  1.00  0.00    -0.234 N 
HETATM   17  N7  UNL     1     -14.192  -9.384   5.650  1.00  0.00    -0.174 N 
ATOM     18  H62 UNL     1     -13.446 -11.048   8.323  1.00  0.00     0.174 HD
ATOM     19  H61 UNL     1     -14.158  -9.458   8.176  1.00  0.00     0.174 HD
ATOM     20  H7  UNL     1     -14.566  -8.550   6.103  1.00  0.00     0.186 HD
BRANCH  11  21
HETATM   21  N2  UNL     1     -12.731 -12.649   3.930  1.00  0.00    -0.372 N 
ATOM     22  H2  UNL     1     -12.092 -12.528   3.145  1.00  0.00     0.161 HD
BRANCH  21  23
HETATM   23  C5  UNL     1     -13.047 -13.978   4.336  1.00  0.00     0.141 C 
BRANCH  23  24
HETATM   24  C6  UNL     1     -14.456 -14.408   3.844  1.00  0.00     0.141 C 
BRANCH  24  25
HETATM   25  N3  UNL     1     -14.484 -14.277   2.414  1.00  0.00    -0.366 N 
ATOM     26  H3  UNL     1     -13.785 -14.830   1.920  1.00  0.00     0.161 HD
BRANCH  25  27
HETATM   27  C7  UNL     1     -15.307 -13.519   1.594  1.00  0.00     0.167 C 
HETATM   28  S1  UNL     1     -16.593 -12.777   2.386  1.00  0.00    -0.041 SA
BRANCH  27  29
HETATM   29  N4  UNL     1     -15.256 -13.265   0.225  1.00  0.00    -0.363 N 
ATOM     30  H4  UNL     1     -14.684 -13.914  -0.314  1.00  0.00     0.162 HD
BRANCH  29  31
HETATM   31  C8  UNL     1     -15.887 -12.226  -0.541  1.00  0.00     0.075 C 
HETATM   32  C9  UNL     1     -16.818 -12.881  -1.597  1.00  0.00     0.032 C 
HETATM   33  C10 UNL     1     -14.810 -11.460  -1.326  1.00  0.00     0.032 C 
ENDBRANCH  29  31
ENDBRANCH  27  29
ENDBRANCH  25  27
ENDBRANCH  24  25
ENDBRANCH  23  24
ENDBRANCH  21  23
ENDBRANCH  11  21
ENDBRANCH   4   5
ENDBRANCH   1   4
TORSDOF 9
ENDMDL
MODEL 5
REMARK VINA RESULT: -5.062360144      2.828      5.881
REMARK  9 active torsions:
REMARK  status: ('A' for Active; 'I' for Inactive)
REMARK    1  A    between atoms: C4_6  and  N2_7 
REMARK    2  A    between atoms: N2_7  and  C5_9 
REMARK    3  A    between atoms: C5_9  and  C6_10 
REMARK    4  A    between atoms: C6_10  and  N3_11 
REMARK    5  A    between atoms: N3_11  and  C7_13 
REMARK    6  A    between atoms: C7_13  and  N4_15 
REMARK    7  A    between atoms: N4_15  and  C8_17 
REMARK    8  A    between atoms: N8_29  and  C13_30 
REMARK    9  A    between atoms: C13_30  and  S2_31 
ROOT
HETATM    1  S2  UNL     1     -15.414 -10.736   7.378  1.00  0.00    -0.005 SA
HETATM    2  C14 UNL     1     -16.583  -9.518   6.880  1.00  0.00     0.139 C 
HETATM    3  N9  UNL     1     -17.373  -8.718   6.542  1.00  0.00    -0.184 NA
ENDROOT
BRANCH   1   4
HETATM    4  C13 UNL     1     -13.838 -10.467   6.569  1.00  0.00     0.160 C 
BRANCH   4   5
HETATM    5  N8  UNL     1     -13.850 -10.595   5.150  1.00  0.00    -0.288 N 
HETATM    6  C2  UNL     1     -13.798 -11.724   4.436  1.00  0.00     0.086 A 
HETATM    7  C1  UNL     1     -13.723 -13.080   5.041  1.00  0.00     0.089 C 
HETATM    8  N1  UNL     1     -13.829 -11.381   3.126  1.00  0.00    -0.340 N 
HETATM    9  C3  UNL     1     -13.897 -10.060   3.006  1.00  0.00     0.124 A 
ATOM     10  H1  UNL     1     -13.804 -12.039   2.347  1.00  0.00     0.167 HD
HETATM   11  C4  UNL     1     -13.951  -9.190   1.906  1.00  0.00     0.147 A 
HETATM   12  C12 UNL     1     -13.912  -9.546   4.282  1.00  0.00     0.160 A 
HETATM   13  N5  UNL     1     -14.016  -7.873   2.132  1.00  0.00    -0.175 N 
HETATM   14  C11 UNL     1     -14.031  -7.359   3.402  1.00  0.00     0.679 A 
ATOM     15  H5  UNL     1     -14.055  -7.235   1.337  1.00  0.00     0.186 HD
HETATM   16  N6  UNL     1     -14.094  -6.070   3.573  1.00  0.00    -0.234 N 
HETATM   17  N7  UNL     1     -13.978  -8.209   4.415  1.00  0.00    -0.174 N 
ATOM     18  H62 UNL     1     -14.134  -5.415   2.792  1.00  0.00     0.174 HD
ATOM     19  H61 UNL     1     -14.104  -5.687   4.518  1.00  0.00     0.174 HD
ATOM     20  H7  UNL     1     -13.989  -7.824   5.360  1.00  0.00     0.186 HD
BRANCH  11  21
HETATM   21  N2  UNL     1     -13.937  -9.663   0.723  1.00  0.00    -0.372 N 
ATOM     22  H2  UNL     1     -13.472 -10.558   0.571  1.00  0.00     0.161 HD
BRANCH  21  23
HETATM   23  C5  UNL     1     -14.531  -9.018  -0.401  1.00  0.00     0.141 C 
BRANCH  23  24
HETATM   24  C6  UNL     1     -16.032  -9.387  -0.547  1.00  0.00     0.141 C 
BRANCH  24  25
HETATM   25  N3  UNL     1     -16.573  -8.617  -1.633  1.00  0.00    -0.366 N 
ATOM     26  H3  UNL     1     -16.060  -8.697  -2.510  1.00  0.00     0.161 HD
BRANCH  25  27
HETATM   27  C7  UNL     1     -17.681  -7.784  -1.683  1.00  0.00     0.167 C 
HETATM   28  S1  UNL     1     -18.857  -8.245  -2.794  1.00  0.00    -0.041 SA
BRANCH  27  29
HETATM   29  N4  UNL     1     -17.990  -6.626  -0.972  1.00  0.00    -0.363 N 
ATOM     30  H4  UNL     1     -17.879  -5.756  -1.493  1.00  0.00     0.162 HD
BRANCH  29  31
HETATM   31  C8  UNL     1     -18.440  -6.472   0.383  1.00  0.00     0.075 C 
HETATM   32  C9  UNL     1     -17.202  -6.416   1.317  1.00  0.00     0.032 C 
HETATM   33  C10 UNL     1     -19.236  -7.722   0.790  1.00  0.00     0.032 C 
ENDBRANCH  29  31
ENDBRANCH  27  29
ENDBRANCH  25  27
ENDBRANCH  24  25
ENDBRANCH  23  24
ENDBRANCH  21  23
ENDBRANCH  11  21
ENDBRANCH   4   5
ENDBRANCH   1   4
TORSDOF 9
ENDMDL
