MODEL 1
REMARK VINA RESULT: -5.373988987      0.000      0.000
REMARK  10 active torsions:
REMARK  status: ('A' for Active; 'I' for Inactive)
REMARK    1  A    between atoms: O1_1  and  C1_3 
REMARK    2  A    between atoms: N1_7  and  C5_8 
REMARK    3  A    between atoms: C5_8  and  C6_9 
REMARK    4  A    between atoms: C6_9  and  O2_10 
REMARK    5  A    between atoms: C6_9  and  C7_12 
REMARK    6  A    between atoms: C7_12  and  O3_13 
REMARK    7  A    between atoms: C7_12  and  C8_15 
REMARK    8  A    between atoms: C8_15  and  O4_16 
REMARK    9  A    between atoms: C8_15  and  N2_18 
REMARK   10  A    between atoms: N2_18  and  C9_20 
ROOT
HETATM    1  C6  UNL     1      -4.737  15.733  12.674  1.00  0.00     0.169 C 
ENDROOT
BRANCH   1   2
HETATM    2  C5  UNL     1      -4.645  17.237  12.576  1.00  0.00     0.165 C 
BRANCH   2   3
HETATM    3  N1  UNL     1      -3.996  17.818  13.731  1.00  0.00    -0.336 N 
HETATM    4  C1  UNL     1      -4.649  18.097  14.870  1.00  0.00     0.141 A 
HETATM    5  C2  UNL     1      -3.774  18.637  15.781  1.00  0.00     0.057 A 
HETATM    6  C3  UNL     1      -2.542  18.682  15.163  1.00  0.00     0.022 A 
HETATM    7  C4  UNL     1      -2.727  18.168  13.903  1.00  0.00     0.093 A 
BRANCH   4   8
HETATM    8  O1  UNL     1      -6.007  17.896  15.149  1.00  0.00    -0.346 OA
ATOM      9  H1  UNL     1      -6.509  17.182  14.774  1.00  0.00     0.219 HD
ENDBRANCH   4   8
ENDBRANCH   2   3
ENDBRANCH   1   2
BRANCH   1  10
HETATM   10  O2  UNL     1      -5.854  15.374  13.416  1.00  0.00    -0.391 OA
ATOM     11  H2  UNL     1      -5.709  14.532  13.833  1.00  0.00     0.210 HD
ENDBRANCH   1  10
BRANCH   1  12
HETATM   12  C7  UNL     1      -4.814  15.192  11.252  1.00  0.00     0.197 C 
BRANCH  12  13
HETATM   13  O3  UNL     1      -6.094  14.734  10.999  1.00  0.00    -0.389 OA
ATOM     14  H3  UNL     1      -6.277  14.798  10.069  1.00  0.00     0.210 HD
ENDBRANCH  12  13
BRANCH  12  15
HETATM   15  C8  UNL     1      -3.811  14.044  11.074  1.00  0.00     0.249 C 
BRANCH  15  16
HETATM   16  O4  UNL     1      -3.248  13.677  12.270  1.00  0.00    -0.374 OA
ATOM     17  H4  UNL     1      -3.577  12.837  12.567  1.00  0.00     0.212 HD
ENDBRANCH  15  16
BRANCH  15  18
HETATM   18  N2  UNL     1      -2.870  14.437  10.068  1.00  0.00    -0.362 N 
ATOM     19  H2  UNL     1      -3.041  14.118   9.114  1.00  0.00     0.162 HD
BRANCH  18  20
HETATM   20  C9  UNL     1      -1.840  15.152  10.270  1.00  0.00     0.030 A 
HETATM   21  C10 UNL     1      -0.466  15.348  10.078  1.00  0.00     0.031 A 
HETATM   22  C11 UNL     1      -1.234  16.288  10.829  1.00  0.00     0.031 A 
ENDBRANCH  18  20
ENDBRANCH  15  18
ENDBRANCH  12  15
ENDBRANCH   1  12
TORSDOF 10
ENDMDL
MODEL 2
REMARK VINA RESULT: -5.343879870      1.929      2.814
REMARK  10 active torsions:
REMARK  status: ('A' for Active; 'I' for Inactive)
REMARK    1  A    between atoms: O1_1  and  C1_3 
REMARK    2  A    between atoms: N1_7  and  C5_8 
REMARK    3  A    between atoms: C5_8  and  C6_9 
REMARK    4  A    between atoms: C6_9  and  O2_10 
REMARK    5  A    between atoms: C6_9  and  C7_12 
REMARK    6  A    between atoms: C7_12  and  O3_13 
REMARK    7  A    between atoms: C7_12  and  C8_15 
REMARK    8  A    between atoms: C8_15  and  O4_16 
REMARK    9  A    between atoms: C8_15  and  N2_18 
REMARK   10  A    between atoms: N2_18  and  C9_20 
ROOT
HETATM    1  C6  UNL     1      -4.026  15.083  11.942  1.00  0.00     0.169 C 
ENDROOT
BRANCH   1   2
HETATM    2  C5  UNL     1      -3.775  16.548  11.672  1.00  0.00     0.165 C 
BRANCH   2   3
HETATM    3  N1  UNL     1      -3.081  17.190  12.767  1.00  0.00    -0.336 N 
HETATM    4  C1  UNL     1      -1.748  17.337  12.797  1.00  0.00     0.141 A 
HETATM    5  C2  UNL     1      -1.382  17.981  13.955  1.00  0.00     0.057 A 
HETATM    6  C3  UNL     1      -2.548  18.232  14.649  1.00  0.00     0.022 A 
HETATM    7  C4  UNL     1      -3.567  17.727  13.880  1.00  0.00     0.093 A 
BRANCH   4   8
HETATM    8  O1  UNL     1      -0.819  16.922  11.835  1.00  0.00    -0.346 OA
ATOM      9  H1  UNL     1      -0.665  16.007  11.629  1.00  0.00     0.219 HD
ENDBRANCH   4   8
ENDBRANCH   2   3
ENDBRANCH   1   2
BRANCH   1  10
HETATM   10  O2  UNL     1      -5.375  14.796  11.789  1.00  0.00    -0.391 OA
ATOM     11  H2  UNL     1      -5.598  14.014  12.280  1.00  0.00     0.210 HD
ENDBRANCH   1  10
BRANCH   1  12
HETATM   12  C7  UNL     1      -3.173  14.292  10.958  1.00  0.00     0.197 C 
BRANCH  12  13
HETATM   13  O3  UNL     1      -1.956  13.987  11.542  1.00  0.00    -0.389 OA
ATOM     14  H3  UNL     1      -1.386  13.584  10.897  1.00  0.00     0.210 HD
ENDBRANCH  12  13
BRANCH  12  15
HETATM   15  C8  UNL     1      -2.942  15.116   9.685  1.00  0.00     0.249 C 
BRANCH  15  16
HETATM   16  O4  UNL     1      -3.764  14.709   8.665  1.00  0.00    -0.374 OA
ATOM     17  H4  UNL     1      -4.680  14.798   8.898  1.00  0.00     0.212 HD
ENDBRANCH  15  16
BRANCH  15  18
HETATM   18  N2  UNL     1      -1.543  15.066   9.379  1.00  0.00    -0.362 N 
ATOM     19  H2  UNL     1      -1.000  14.303   9.782  1.00  0.00     0.162 HD
BRANCH  18  20
HETATM   20  C9  UNL     1      -0.926  15.899   8.644  1.00  0.00     0.030 A 
HETATM   21  C10 UNL     1       0.226  16.661   8.410  1.00  0.00     0.031 A 
HETATM   22  C11 UNL     1      -0.877  16.718   7.505  1.00  0.00     0.031 A 
ENDBRANCH  18  20
ENDBRANCH  15  18
ENDBRANCH  12  15
ENDBRANCH   1  12
TORSDOF 10
ENDMDL
MODEL 3
REMARK VINA RESULT: -5.274781195      1.259      1.812
REMARK  10 active torsions:
REMARK  status: ('A' for Active; 'I' for Inactive)
REMARK    1  A    between atoms: O1_1  and  C1_3 
REMARK    2  A    between atoms: N1_7  and  C5_8 
REMARK    3  A    between atoms: C5_8  and  C6_9 
REMARK    4  A    between atoms: C6_9  and  O2_10 
REMARK    5  A    between atoms: C6_9  and  C7_12 
REMARK    6  A    between atoms: C7_12  and  O3_13 
REMARK    7  A    between atoms: C7_12  and  C8_15 
REMARK    8  A    between atoms: C8_15  and  O4_16 
REMARK    9  A    between atoms: C8_15  and  N2_18 
REMARK   10  A    between atoms: N2_18  and  C9_20 
ROOT
HETATM    1  C6  UNL     1      -4.369  15.551  12.337  1.00  0.00     0.169 C 
ENDROOT
BRANCH   1   2
HETATM    2  C5  UNL     1      -4.284  17.057  12.257  1.00  0.00     0.165 C 
BRANCH   2   3
HETATM    3  N1  UNL     1      -3.609  17.623  13.403  1.00  0.00    -0.336 N 
HETATM    4  C1  UNL     1      -2.273  17.718  13.489  1.00  0.00     0.141 A 
HETATM    5  C2  UNL     1      -1.928  18.296  14.686  1.00  0.00     0.057 A 
HETATM    6  C3  UNL     1      -3.109  18.561  15.348  1.00  0.00     0.022 A 
HETATM    7  C4  UNL     1      -4.116  18.131  14.521  1.00  0.00     0.093 A 
BRANCH   4   8
HETATM    8  O1  UNL     1      -1.324  17.309  12.543  1.00  0.00    -0.346 OA
ATOM      9  H1  UNL     1      -1.390  17.528  11.621  1.00  0.00     0.219 HD
ENDBRANCH   4   8
ENDBRANCH   2   3
ENDBRANCH   1   2
BRANCH   1  10
HETATM   10  O2  UNL     1      -5.404  15.179  13.183  1.00  0.00    -0.391 OA
ATOM     11  H2  UNL     1      -5.385  15.710  13.971  1.00  0.00     0.210 HD
ENDBRANCH   1  10
BRANCH   1  12
HETATM   12  C7  UNL     1      -4.595  15.037  10.921  1.00  0.00     0.197 C 
BRANCH  12  13
HETATM   13  O3  UNL     1      -5.833  14.424  10.842  1.00  0.00    -0.389 OA
ATOM     14  H3  UNL     1      -5.958  13.861  11.598  1.00  0.00     0.210 HD
ENDBRANCH  12  13
BRANCH  12  15
HETATM   15  C8  UNL     1      -3.498  14.032  10.548  1.00  0.00     0.249 C 
BRANCH  15  16
HETATM   16  O4  UNL     1      -3.761  12.785  11.056  1.00  0.00    -0.374 OA
ATOM     17  H4  UNL     1      -3.048  12.181  10.888  1.00  0.00     0.212 HD
ENDBRANCH  15  16
BRANCH  15  18
HETATM   18  N2  UNL     1      -2.240  14.586  10.953  1.00  0.00    -0.362 N 
ATOM     19  H2  UNL     1      -2.061  14.664  11.954  1.00  0.00     0.162 HD
BRANCH  18  20
HETATM   20  C9  UNL     1      -1.330  14.988  10.163  1.00  0.00     0.030 A 
HETATM   21  C10 UNL     1      -0.979  15.699   9.008  1.00  0.00     0.031 A 
HETATM   22  C11 UNL     1       0.023  15.055   9.795  1.00  0.00     0.031 A 
ENDBRANCH  18  20
ENDBRANCH  15  18
ENDBRANCH  12  15
ENDBRANCH   1  12
TORSDOF 10
ENDMDL
MODEL 4
REMARK VINA RESULT: -5.271785310      1.406      1.734
REMARK  10 active torsions:
REMARK  status: ('A' for Active; 'I' for Inactive)
REMARK    1  A    between atoms: O1_1  and  C1_3 
REMARK    2  A    between atoms: N1_7  and  C5_8 
REMARK    3  A    between atoms: C5_8  and  C6_9 
REMARK    4  A    between atoms: C6_9  and  O2_10 
REMARK    5  A    between atoms: C6_9  and  C7_12 
REMARK    6  A    between atoms: C7_12  and  O3_13 
REMARK    7  A    between atoms: C7_12  and  C8_15 
REMARK    8  A    between atoms: C8_15  and  O4_16 
REMARK    9  A    between atoms: C8_15  and  N2_18 
REMARK   10  A    between atoms: N2_18  and  C9_20 
ROOT
HETATM    1  C6  UNL     1      -4.139  15.253  12.195  1.00  0.00     0.169 C 
ENDROOT
BRANCH   1   2
HETATM    2  C5  UNL     1      -3.799  16.692  11.887  1.00  0.00     0.165 C 
BRANCH   2   3
HETATM    3  N1  UNL     1      -2.950  17.277  12.902  1.00  0.00    -0.336 N 
HETATM    4  C1  UNL     1      -3.430  17.799  14.042  1.00  0.00     0.141 A 
HETATM    5  C2  UNL     1      -2.390  18.275  14.803  1.00  0.00     0.057 A 
HETATM    6  C3  UNL     1      -1.236  18.029  14.089  1.00  0.00     0.022 A 
HETATM    7  C4  UNL     1      -1.629  17.413  12.926  1.00  0.00     0.093 A 
BRANCH   4   8
HETATM    8  O1  UNL     1      -4.767  17.876  14.451  1.00  0.00    -0.346 OA
ATOM      9  H1  UNL     1      -5.486  17.537  13.928  1.00  0.00     0.219 HD
ENDBRANCH   4   8
ENDBRANCH   2   3
ENDBRANCH   1   2
BRANCH   1  10
HETATM   10  O2  UNL     1      -5.359  15.184  12.854  1.00  0.00    -0.391 OA
ATOM     11  H2  UNL     1      -5.755  14.332  12.714  1.00  0.00     0.210 HD
ENDBRANCH   1  10
BRANCH   1  12
HETATM   12  C7  UNL     1      -4.179  14.506  10.868  1.00  0.00     0.197 C 
BRANCH  12  13
HETATM   13  O3  UNL     1      -3.919  13.165  11.083  1.00  0.00    -0.389 OA
ATOM     14  H3  UNL     1      -3.089  12.933  10.683  1.00  0.00     0.210 HD
ENDBRANCH  12  13
BRANCH  12  15
HETATM   15  C8  UNL     1      -3.132  15.087   9.909  1.00  0.00     0.249 C 
BRANCH  15  16
HETATM   16  O4  UNL     1      -3.504  14.925   8.598  1.00  0.00    -0.374 OA
ATOM     17  H4  UNL     1      -2.918  14.336   8.139  1.00  0.00     0.212 HD
ENDBRANCH  15  16
BRANCH  15  18
HETATM   18  N2  UNL     1      -1.864  14.510  10.243  1.00  0.00    -0.362 N 
ATOM     19  H2  UNL     1      -1.869  13.601  10.707  1.00  0.00     0.162 HD
BRANCH  18  20
HETATM   20  C9  UNL     1      -0.735  15.041  10.007  1.00  0.00     0.030 A 
HETATM   21  C10 UNL     1       0.628  14.875   9.729  1.00  0.00     0.031 A 
HETATM   22  C11 UNL     1       0.064  16.183   9.836  1.00  0.00     0.031 A 
ENDBRANCH  18  20
ENDBRANCH  15  18
ENDBRANCH  12  15
ENDBRANCH   1  12
TORSDOF 10
ENDMDL
MODEL 5
REMARK VINA RESULT: -5.253317060      1.659      2.134
REMARK  10 active torsions:
REMARK  status: ('A' for Active; 'I' for Inactive)
REMARK    1  A    between atoms: O1_1  and  C1_3 
REMARK    2  A    between atoms: N1_7  and  C5_8 
REMARK    3  A    between atoms: C5_8  and  C6_9 
REMARK    4  A    between atoms: C6_9  and  O2_10 
REMARK    5  A    between atoms: C6_9  and  C7_12 
REMARK    6  A    between atoms: C7_12  and  O3_13 
REMARK    7  A    between atoms: C7_12  and  C8_15 
REMARK    8  A    between atoms: C8_15  and  O4_16 
REMARK    9  A    between atoms: C8_15  and  N2_18 
REMARK   10  A    between atoms: N2_18  and  C9_20 
ROOT
HETATM    1  C6  UNL     1      -3.568  15.049  12.262  1.00  0.00     0.169 C 
ENDROOT
BRANCH   1   2
HETATM    2  C5  UNL     1      -3.313  16.495  11.910  1.00  0.00     0.165 C 
BRANCH   2   3
HETATM    3  N1  UNL     1      -2.955  17.281  13.070  1.00  0.00    -0.336 N 
HETATM    4  C1  UNL     1      -3.861  17.738  13.949  1.00  0.00     0.141 A 
HETATM    5  C2  UNL     1      -3.225  18.446  14.939  1.00  0.00     0.057 A 
HETATM    6  C3  UNL     1      -1.878  18.413  14.643  1.00  0.00     0.022 A 
HETATM    7  C4  UNL     1      -1.759  17.685  13.484  1.00  0.00     0.093 A 
BRANCH   4   8
HETATM    8  O1  UNL     1      -5.250  17.557  13.918  1.00  0.00    -0.346 OA
ATOM      9  H1  UNL     1      -5.725  17.104  14.605  1.00  0.00     0.219 HD
ENDBRANCH   4   8
ENDBRANCH   2   3
ENDBRANCH   1   2
BRANCH   1  10
HETATM   10  O2  UNL     1      -4.930  14.831  12.413  1.00  0.00    -0.391 OA
ATOM     11  H2  UNL     1      -5.093  13.913  12.596  1.00  0.00     0.210 HD
ENDBRANCH   1  10
BRANCH   1  12
HETATM   12  C7  UNL     1      -2.988  14.202  11.136  1.00  0.00     0.197 C 
BRANCH  12  13
HETATM   13  O3  UNL     1      -1.760  13.696  11.522  1.00  0.00    -0.389 OA
ATOM     14  H3  UNL     1      -1.843  12.769  11.710  1.00  0.00     0.210 HD
ENDBRANCH  12  13
BRANCH  12  15
HETATM   15  C8  UNL     1      -2.820  15.056   9.873  1.00  0.00     0.249 C 
BRANCH  15  16
HETATM   16  O4  UNL     1      -3.725  14.706   8.902  1.00  0.00    -0.374 OA
ATOM     17  H4  UNL     1      -3.420  13.965   8.392  1.00  0.00     0.212 HD
ENDBRANCH  15  16
BRANCH  15  18
HETATM   18  N2  UNL     1      -1.448  14.972   9.466  1.00  0.00    -0.362 N 
ATOM     19  H2  UNL     1      -0.925  14.144   9.749  1.00  0.00     0.162 HD
BRANCH  18  20
HETATM   20  C9  UNL     1      -0.834  15.848   8.782  1.00  0.00     0.030 A 
HETATM   21  C10 UNL     1      -0.714  16.556   7.580  1.00  0.00     0.031 A 
HETATM   22  C11 UNL     1       0.192  16.798   8.656  1.00  0.00     0.031 A 
ENDBRANCH  18  20
ENDBRANCH  15  18
ENDBRANCH  12  15
ENDBRANCH   1  12
TORSDOF 10
ENDMDL
