MODEL 1
REMARK VINA RESULT: -4.974418677      0.000      0.000
REMARK  10 active torsions:
REMARK  status: ('A' for Active; 'I' for Inactive)
REMARK    1  A    between atoms: N1_1  and  N2_4 
REMARK    2  A    between atoms: N2_4  and  C1_5 
REMARK    3  A    between atoms: C1_5  and  C2_6 
REMARK    4  A    between atoms: C2_6  and  O1_7 
REMARK    5  A    between atoms: O1_7  and  C3_8 
REMARK    6  A    between atoms: C3_8  and  C4_9 
REMARK    7  A    between atoms: C4_9  and  N3_10 
REMARK    8  A    between atoms: N3_10  and  C5_12 
REMARK    9  A    between atoms: C6_15  and  N5_16 
REMARK   10  A    between atoms: C9_27  and  N9_28 
ROOT
HETATM    1  C5  UNL     1      -3.083  16.703  11.893  1.00  0.00     0.134 A 
HETATM    2  N4  UNL     1      -3.085  17.982  12.290  1.00  0.00    -0.176 N 
ATOM      3  H4  UNL     1      -3.886  18.332  12.816  1.00  0.00     0.186 HD
HETATM    4  C6  UNL     1      -2.056  18.832  12.018  1.00  0.00     0.679 A 
HETATM    5  N6  UNL     1      -1.012  18.365  11.330  1.00  0.00    -0.176 N 
ATOM      6  H6  UNL     1      -0.242  19.003  11.128  1.00  0.00     0.186 HD
HETATM    7  C7  UNL     1      -0.923  17.111  10.896  1.00  0.00     0.139 A 
HETATM    8  N7  UNL     1       0.137  16.663  10.207  1.00  0.00    -0.337 N 
ATOM      9  H7  UNL     1       0.907  17.300  10.003  1.00  0.00     0.168 HD
HETATM   10  C8  UNL     1       0.204  15.371   9.772  1.00  0.00     0.183 A 
HETATM   11  N8  UNL     1      -0.801  14.526  10.033  1.00  0.00    -0.338 N 
ATOM     12  H8  UNL     1      -0.754  13.560   9.709  1.00  0.00     0.168 HD
HETATM   13  C9  UNL     1      -1.873  14.952  10.723  1.00  0.00     0.117 A 
HETATM   14  C10 UNL     1      -1.968  16.256  11.175  1.00  0.00     0.096 A 
ENDROOT
BRANCH   1  15
HETATM   15  N3  UNL     1      -4.007  15.842  12.107  1.00  0.00    -0.373 N 
ATOM     16  H3  UNL     1      -3.773  14.849  12.136  1.00  0.00     0.161 HD
BRANCH  15  17
HETATM   17  C4  UNL     1      -5.373  16.256  12.310  1.00  0.00     0.147 C 
BRANCH  17  18
HETATM   18  C3  UNL     1      -5.776  16.250  13.758  1.00  0.00     0.187 C 
BRANCH  18  19
HETATM   19  O1  UNL     1      -5.020  17.133  14.484  1.00  0.00    -0.383 OA
BRANCH  19  20
HETATM   20  C2  UNL     1      -5.601  18.348  14.735  1.00  0.00     0.229 C 
BRANCH  20  21
HETATM   21  C1  UNL     1      -4.583  19.320  15.247  1.00  0.00     0.207 C 
BRANCH  21  22
HETATM   22  N2  UNL     1      -3.397  18.977  15.411  1.00  0.00    -0.348 NA
BRANCH  22  23
HETATM   23  N1  UNL     1      -2.319  18.397  15.654  1.00  0.00    -0.281 N 
ATOM     24  H12 UNL     1      -2.728  17.937  16.468  1.00  0.00     0.191 HD
ATOM     25  H11 UNL     1      -1.367  18.033  15.673  1.00  0.00     0.191 HD
ENDBRANCH  22  23
ENDBRANCH  21  22
ENDBRANCH  20  21
ENDBRANCH  19  20
ENDBRANCH  18  19
ENDBRANCH  17  18
ENDBRANCH  15  17
ENDBRANCH   1  15
BRANCH   4  26
HETATM   26  N5  UNL     1      -2.096  20.066  12.420  1.00  0.00    -0.234 N 
ATOM     27  H52 UNL     1      -2.917  20.649  12.251  1.00  0.00     0.174 HD
ATOM     28  H51 UNL     1      -1.303  20.476  12.912  1.00  0.00     0.174 HD
ENDBRANCH   4  26
BRANCH  13  29
HETATM   29  N9  UNL     1      -2.873  14.159  10.997  1.00  0.00    -0.385 N 
ATOM     30  H92 UNL     1      -2.646  13.188  11.214  1.00  0.00     0.157 HD
ATOM     31  H91 UNL     1      -3.838  14.491  10.995  1.00  0.00     0.157 HD
ENDBRANCH  13  29
TORSDOF 10
ENDMDL
MODEL 2
REMARK VINA RESULT: -4.827983116      2.247      5.257
REMARK  10 active torsions:
REMARK  status: ('A' for Active; 'I' for Inactive)
REMARK    1  A    between atoms: N1_1  and  N2_4 
REMARK    2  A    between atoms: N2_4  and  C1_5 
REMARK    3  A    between atoms: C1_5  and  C2_6 
REMARK    4  A    between atoms: C2_6  and  O1_7 
REMARK    5  A    between atoms: O1_7  and  C3_8 
REMARK    6  A    between atoms: C3_8  and  C4_9 
REMARK    7  A    between atoms: C4_9  and  N3_10 
REMARK    8  A    between atoms: N3_10  and  C5_12 
REMARK    9  A    between atoms: C6_15  and  N5_16 
REMARK   10  A    between atoms: C9_27  and  N9_28 
ROOT
HETATM    1  C5  UNL     1      -3.103  17.207  11.875  1.00  0.00     0.134 A 
HETATM    2  N4  UNL     1      -1.912  17.208  11.262  1.00  0.00    -0.176 N 
ATOM      3  H4  UNL     1      -1.859  16.906  10.290  1.00  0.00     0.186 HD
HETATM    4  C6  UNL     1      -0.769  17.599  11.891  1.00  0.00     0.679 A 
HETATM    5  N6  UNL     1      -0.847  17.995  13.164  1.00  0.00    -0.176 N 
ATOM      6  H6  UNL     1       0.010  18.288  13.633  1.00  0.00     0.186 HD
HETATM    7  C7  UNL     1      -1.985  18.026  13.851  1.00  0.00     0.139 A 
HETATM    8  N7  UNL     1      -2.041  18.427  15.130  1.00  0.00    -0.337 N 
ATOM      9  H7  UNL     1      -1.184  18.720  15.600  1.00  0.00     0.168 HD
HETATM   10  C8  UNL     1      -3.222  18.451  15.814  1.00  0.00     0.183 A 
HETATM   11  N8  UNL     1      -4.353  18.068  15.207  1.00  0.00    -0.338 N 
ATOM     12  H8  UNL     1      -5.236  18.085  15.716  1.00  0.00     0.168 HD
HETATM   13  C9  UNL     1      -4.321  17.663  13.926  1.00  0.00     0.117 A 
HETATM   14  C10 UNL     1      -3.139  17.629  13.209  1.00  0.00     0.096 A 
ENDROOT
BRANCH   1  15
HETATM   15  N3  UNL     1      -4.221  16.855  11.357  1.00  0.00    -0.373 N 
ATOM     16  H3  UNL     1      -4.955  16.477  11.955  1.00  0.00     0.161 HD
BRANCH  15  17
HETATM   17  C4  UNL     1      -4.455  16.987   9.941  1.00  0.00     0.147 C 
BRANCH  17  18
HETATM   18  C3  UNL     1      -4.370  15.676   9.211  1.00  0.00     0.187 C 
BRANCH  18  19
HETATM   19  O1  UNL     1      -3.071  15.359   8.913  1.00  0.00    -0.383 OA
BRANCH  19  20
HETATM   20  C2  UNL     1      -2.491  16.100   7.917  1.00  0.00     0.229 C 
BRANCH  20  21
HETATM   21  C1  UNL     1      -0.999  16.070   8.041  1.00  0.00     0.207 C 
BRANCH  21  22
HETATM   22  N2  UNL     1      -0.446  15.411   8.942  1.00  0.00    -0.348 NA
BRANCH  22  23
HETATM   23  N1  UNL     1      -0.044  14.548   9.749  1.00  0.00    -0.281 N 
ATOM     24  H12 UNL     1       0.562  14.138   9.038  1.00  0.00     0.191 HD
ATOM     25  H11 UNL     1       0.146  13.945  10.549  1.00  0.00     0.191 HD
ENDBRANCH  22  23
ENDBRANCH  21  22
ENDBRANCH  20  21
ENDBRANCH  19  20
ENDBRANCH  18  19
ENDBRANCH  17  18
ENDBRANCH  15  17
ENDBRANCH   1  15
BRANCH   4  26
HETATM   26  N5  UNL     1       0.367  17.586  11.263  1.00  0.00    -0.234 N 
ATOM     27  H52 UNL     1       0.828  18.455  10.990  1.00  0.00     0.174 HD
ATOM     28  H51 UNL     1       0.820  16.703  11.030  1.00  0.00     0.174 HD
ENDBRANCH   4  26
BRANCH  13  29
HETATM   29  N9  UNL     1      -5.402  17.282  13.300  1.00  0.00    -0.385 N 
ATOM     30  H92 UNL     1      -6.288  17.650  13.646  1.00  0.00     0.157 HD
ATOM     31  H91 UNL     1      -5.364  16.647  12.503  1.00  0.00     0.157 HD
ENDBRANCH  13  29
TORSDOF 10
ENDMDL
MODEL 3
REMARK VINA RESULT: -4.780824450      2.546      4.131
REMARK  10 active torsions:
REMARK  status: ('A' for Active; 'I' for Inactive)
REMARK    1  A    between atoms: N1_1  and  N2_4 
REMARK    2  A    between atoms: N2_4  and  C1_5 
REMARK    3  A    between atoms: C1_5  and  C2_6 
REMARK    4  A    between atoms: C2_6  and  O1_7 
REMARK    5  A    between atoms: O1_7  and  C3_8 
REMARK    6  A    between atoms: C3_8  and  C4_9 
REMARK    7  A    between atoms: C4_9  and  N3_10 
REMARK    8  A    between atoms: N3_10  and  C5_12 
REMARK    9  A    between atoms: C6_15  and  N5_16 
REMARK   10  A    between atoms: C9_27  and  N9_28 
ROOT
HETATM    1  C5  UNL     1      -1.188  17.159  10.507  1.00  0.00     0.134 A 
HETATM    2  N4  UNL     1      -0.229  16.228  10.582  1.00  0.00    -0.176 N 
ATOM      3  H4  UNL     1       0.471  16.300  11.320  1.00  0.00     0.186 HD
HETATM    4  C6  UNL     1      -0.154  15.186   9.707  1.00  0.00     0.679 A 
HETATM    5  N6  UNL     1      -1.074  15.099   8.744  1.00  0.00    -0.176 N 
ATOM      6  H6  UNL     1      -1.017  14.318   8.090  1.00  0.00     0.186 HD
HETATM    7  C7  UNL     1      -2.062  15.977   8.594  1.00  0.00     0.139 A 
HETATM    8  N7  UNL     1      -2.976  15.869   7.618  1.00  0.00    -0.337 N 
ATOM      9  H7  UNL     1      -2.919  15.089   6.963  1.00  0.00     0.168 HD
HETATM   10  C8  UNL     1      -3.981  16.783   7.485  1.00  0.00     0.183 A 
HETATM   11  N8  UNL     1      -4.065  17.811   8.338  1.00  0.00    -0.338 N 
ATOM     12  H8  UNL     1      -4.815  18.496   8.241  1.00  0.00     0.168 HD
HETATM   13  C9  UNL     1      -3.161  17.940   9.324  1.00  0.00     0.117 A 
HETATM   14  C10 UNL     1      -2.132  17.028   9.482  1.00  0.00     0.096 A 
ENDROOT
BRANCH   1  15
HETATM   15  N3  UNL     1      -1.329  18.166  11.288  1.00  0.00    -0.373 N 
ATOM     16  H3  UNL     1      -1.751  19.023  10.931  1.00  0.00     0.161 HD
BRANCH  15  17
HETATM   17  C4  UNL     1      -0.899  18.103  12.662  1.00  0.00     0.147 C 
BRANCH  17  18
HETATM   18  C3  UNL     1      -2.023  17.791  13.611  1.00  0.00     0.187 C 
BRANCH  18  19
HETATM   19  O1  UNL     1      -3.132  18.544  13.328  1.00  0.00    -0.383 OA
BRANCH  19  20
HETATM   20  C2  UNL     1      -3.263  19.706  14.042  1.00  0.00     0.229 C 
BRANCH  20  21
HETATM   21  C1  UNL     1      -3.584  20.849  13.131  1.00  0.00     0.207 C 
BRANCH  21  22
HETATM   22  N2  UNL     1      -2.758  21.245  12.286  1.00  0.00    -0.348 NA
BRANCH  22  23
HETATM   23  N1  UNL     1      -1.937  21.871  11.585  1.00  0.00    -0.281 N 
ATOM     24  H12 UNL     1      -1.499  22.266  12.417  1.00  0.00     0.191 HD
ATOM     25  H11 UNL     1      -1.374  22.287  10.844  1.00  0.00     0.191 HD
ENDBRANCH  22  23
ENDBRANCH  21  22
ENDBRANCH  20  21
ENDBRANCH  19  20
ENDBRANCH  18  19
ENDBRANCH  17  18
ENDBRANCH  15  17
ENDBRANCH   1  15
BRANCH   4  26
HETATM   26  N5  UNL     1       0.792  14.304   9.811  1.00  0.00    -0.234 N 
ATOM     27  H52 UNL     1       0.579  13.323   9.996  1.00  0.00     0.174 HD
ATOM     28  H51 UNL     1       1.769  14.576   9.711  1.00  0.00     0.174 HD
ENDBRANCH   4  26
BRANCH  13  29
HETATM   29  N9  UNL     1      -3.208  18.928  10.176  1.00  0.00    -0.385 N 
ATOM     30  H92 UNL     1      -4.072  19.036  10.708  1.00  0.00     0.157 HD
ATOM     31  H91 UNL     1      -2.421  19.564  10.304  1.00  0.00     0.157 HD
ENDBRANCH  13  29
TORSDOF 10
ENDMDL
MODEL 4
REMARK VINA RESULT: -4.756332380      2.142      3.908
REMARK  10 active torsions:
REMARK  status: ('A' for Active; 'I' for Inactive)
REMARK    1  A    between atoms: N1_1  and  N2_4 
REMARK    2  A    between atoms: N2_4  and  C1_5 
REMARK    3  A    between atoms: C1_5  and  C2_6 
REMARK    4  A    between atoms: C2_6  and  O1_7 
REMARK    5  A    between atoms: O1_7  and  C3_8 
REMARK    6  A    between atoms: C3_8  and  C4_9 
REMARK    7  A    between atoms: C4_9  and  N3_10 
REMARK    8  A    between atoms: N3_10  and  C5_12 
REMARK    9  A    between atoms: C6_15  and  N5_16 
REMARK   10  A    between atoms: C9_27  and  N9_28 
ROOT
HETATM    1  C5  UNL     1      -2.709  16.208  11.943  1.00  0.00     0.134 A 
HETATM    2  N4  UNL     1      -2.501  16.788  13.133  1.00  0.00    -0.176 N 
ATOM      3  H4  UNL     1      -3.177  16.632  13.880  1.00  0.00     0.186 HD
HETATM    4  C6  UNL     1      -1.419  17.578  13.380  1.00  0.00     0.679 A 
HETATM    5  N6  UNL     1      -0.539  17.776  12.396  1.00  0.00    -0.176 N 
ATOM      6  H6  UNL     1       0.271  18.367  12.584  1.00  0.00     0.186 HD
HETATM    7  C7  UNL     1      -0.664  17.242  11.185  1.00  0.00     0.139 A 
HETATM    8  N7  UNL     1       0.233  17.454  10.210  1.00  0.00    -0.337 N 
ATOM      9  H7  UNL     1       1.043  18.046  10.397  1.00  0.00     0.168 HD
HETATM   10  C8  UNL     1       0.083  16.895   8.974  1.00  0.00     0.183 A 
HETATM   11  N8  UNL     1      -0.976  16.117   8.719  1.00  0.00    -0.338 N 
ATOM     12  H8  UNL     1      -1.091  15.697   7.796  1.00  0.00     0.168 HD
HETATM   13  C9  UNL     1      -1.888  15.889   9.679  1.00  0.00     0.117 A 
HETATM   14  C10 UNL     1      -1.761  16.443  10.941  1.00  0.00     0.096 A 
ENDROOT
BRANCH   1  15
HETATM   15  N3  UNL     1      -3.697  15.455  11.630  1.00  0.00    -0.373 N 
ATOM     16  H3  UNL     1      -3.591  14.774  10.877  1.00  0.00     0.161 HD
BRANCH  15  17
HETATM   17  C4  UNL     1      -4.955  15.555  12.326  1.00  0.00     0.147 C 
BRANCH  17  18
HETATM   18  C3  UNL     1      -6.034  16.190  11.492  1.00  0.00     0.187 C 
BRANCH  18  19
HETATM   19  O1  UNL     1      -6.873  15.243  10.967  1.00  0.00    -0.383 OA
BRANCH  19  20
HETATM   20  C2  UNL     1      -6.625  14.881   9.669  1.00  0.00     0.229 C 
BRANCH  20  21
HETATM   21  C1  UNL     1      -6.358  13.411   9.576  1.00  0.00     0.207 C 
BRANCH  21  22
HETATM   22  N2  UNL     1      -5.292  12.927  10.000  1.00  0.00    -0.348 NA
BRANCH  22  23
HETATM   23  N1  UNL     1      -4.341  12.205  10.363  1.00  0.00    -0.281 N 
ATOM     24  H12 UNL     1      -4.986  11.479  10.674  1.00  0.00     0.191 HD
ATOM     25  H11 UNL     1      -3.440  11.784  10.587  1.00  0.00     0.191 HD
ENDBRANCH  22  23
ENDBRANCH  21  22
ENDBRANCH  20  21
ENDBRANCH  19  20
ENDBRANCH  18  19
ENDBRANCH  17  18
ENDBRANCH  15  17
ENDBRANCH   1  15
BRANCH   4  26
HETATM   26  N5  UNL     1      -1.253  18.122  14.547  1.00  0.00    -0.234 N 
ATOM     27  H52 UNL     1      -2.053  18.370  15.131  1.00  0.00     0.174 HD
ATOM     28  H51 UNL     1      -0.316  18.312  14.901  1.00  0.00     0.174 HD
ENDBRANCH   4  26
BRANCH  13  29
HETATM   29  N9  UNL     1      -2.935  15.137   9.469  1.00  0.00    -0.385 N 
ATOM     30  H92 UNL     1      -3.496  15.349   8.644  1.00  0.00     0.157 HD
ATOM     31  H91 UNL     1      -3.182  14.373  10.098  1.00  0.00     0.157 HD
ENDBRANCH  13  29
TORSDOF 10
ENDMDL
MODEL 5
REMARK VINA RESULT: -4.753427819      2.297      5.781
REMARK  10 active torsions:
REMARK  status: ('A' for Active; 'I' for Inactive)
REMARK    1  A    between atoms: N1_1  and  N2_4 
REMARK    2  A    between atoms: N2_4  and  C1_5 
REMARK    3  A    between atoms: C1_5  and  C2_6 
REMARK    4  A    between atoms: C2_6  and  O1_7 
REMARK    5  A    between atoms: O1_7  and  C3_8 
REMARK    6  A    between atoms: C3_8  and  C4_9 
REMARK    7  A    between atoms: C4_9  and  N3_10 
REMARK    8  A    between atoms: N3_10  and  C5_12 
REMARK    9  A    between atoms: C6_15  and  N5_16 
REMARK   10  A    between atoms: C9_27  and  N9_28 
ROOT
HETATM    1  C5  UNL     1      -2.429  17.373  12.264  1.00  0.00     0.134 A 
HETATM    2  N4  UNL     1      -3.359  17.117  11.334  1.00  0.00    -0.176 N 
ATOM      3  H4  UNL     1      -3.058  16.862  10.394  1.00  0.00     0.186 HD
HETATM    4  C6  UNL     1      -4.694  17.184  11.601  1.00  0.00     0.679 A 
HETATM    5  N6  UNL     1      -5.079  17.518  12.835  1.00  0.00    -0.176 N 
ATOM      6  H6  UNL     1      -6.079  17.567  13.032  1.00  0.00     0.186 HD
HETATM    7  C7  UNL     1      -4.227  17.789  13.819  1.00  0.00     0.139 A 
HETATM    8  N7  UNL     1      -4.637  18.122  15.052  1.00  0.00    -0.337 N 
ATOM      9  H7  UNL     1      -5.636  18.172  15.250  1.00  0.00     0.168 HD
HETATM   10  C8  UNL     1      -3.742  18.397  16.046  1.00  0.00     0.183 A 
HETATM   11  N8  UNL     1      -2.428  18.334  15.797  1.00  0.00    -0.338 N 
ATOM     12  H8  UNL     1      -1.757  18.539  16.538  1.00  0.00     0.168 HD
HETATM   13  C9  UNL     1      -1.994  18.002  14.569  1.00  0.00     0.117 A 
HETATM   14  C10 UNL     1      -2.878  17.719  13.543  1.00  0.00     0.096 A 
ENDROOT
BRANCH   1  15
HETATM   15  N3  UNL     1      -1.159  17.333  12.095  1.00  0.00    -0.373 N 
ATOM     16  H3  UNL     1      -0.551  17.173  12.898  1.00  0.00     0.161 HD
BRANCH  15  17
HETATM   17  C4  UNL     1      -0.579  17.510  10.788  1.00  0.00     0.147 C 
BRANCH  17  18
HETATM   18  C3  UNL     1      -0.057  16.227  10.203  1.00  0.00     0.187 C 
BRANCH  18  19
HETATM   19  O1  UNL     1      -1.046  15.545   9.545  1.00  0.00    -0.383 OA
BRANCH  19  20
HETATM   20  C2  UNL     1      -1.529  16.143   8.410  1.00  0.00     0.229 C 
BRANCH  20  21
HETATM   21  C1  UNL     1      -2.989  15.854   8.245  1.00  0.00     0.207 C 
BRANCH  21  22
HETATM   22  N2  UNL     1      -3.547  14.973   8.926  1.00  0.00    -0.348 NA
BRANCH  22  23
HETATM   23  N1  UNL     1      -3.853  14.003   9.650  1.00  0.00    -0.281 N 
ATOM     24  H12 UNL     1      -4.710  14.470   9.946  1.00  0.00     0.191 HD
ATOM     25  H11 UNL     1      -3.912  13.126  10.167  1.00  0.00     0.191 HD
ENDBRANCH  22  23
ENDBRANCH  21  22
ENDBRANCH  20  21
ENDBRANCH  19  20
ENDBRANCH  18  19
ENDBRANCH  17  18
ENDBRANCH  15  17
ENDBRANCH   1  15
BRANCH   4  26
HETATM   26  N5  UNL     1      -5.565  16.929  10.673  1.00  0.00    -0.234 N 
ATOM     27  H52 UNL     1      -6.338  17.568  10.487  1.00  0.00     0.174 HD
ATOM     28  H51 UNL     1      -5.491  16.080  10.112  1.00  0.00     0.174 HD
ENDBRANCH   4  26
BRANCH  13  29
HETATM   29  N9  UNL     1      -0.721  17.931  14.287  1.00  0.00    -0.385 N 
ATOM     30  H92 UNL     1      -0.139  18.715  14.582  1.00  0.00     0.157 HD
ATOM     31  H91 UNL     1      -0.324  17.131  13.794  1.00  0.00     0.157 HD
ENDBRANCH  13  29
TORSDOF 10
ENDMDL
