MODEL 1
REMARK VINA RESULT: -6.209270668      0.000      0.000
REMARK  6 active torsions:
REMARK  status: ('A' for Active; 'I' for Inactive)
REMARK    1  A    between atoms: N1_1  and  C1_5 
REMARK    2  A    between atoms: C1_5  and  C2_6 
REMARK    3  A    between atoms: C2_6  and  N2_7 
REMARK    4  A    between atoms: N2_7  and  C3_9 
REMARK    5  A    between atoms: C6_15  and  N4_16 
REMARK    6  A    between atoms: N4_16  and  C7_18 
ROOT
HETATM    1  C3  UNL     1      -1.523  15.543  10.154  1.00  0.00     0.122 A 
HETATM    2  C4  UNL     1      -2.318  14.572  10.775  1.00  0.00     0.123 A 
HETATM    3  C5  UNL     1      -2.767  14.741  12.066  1.00  0.00     0.263 A 
HETATM    4  O1  UNL     1      -3.477  13.831  12.563  1.00  0.00    -0.268 OA
HETATM    5  N3  UNL     1      -2.416  15.862  12.704  1.00  0.00    -0.156 N 
ATOM      6  H3  UNL     1      -2.744  15.994  13.661  1.00  0.00     0.187 HD
HETATM    7  C6  UNL     1      -1.658  16.823  12.157  1.00  0.00     0.688 A 
HETATM    8  N7  UNL     1      -1.230  16.624  10.876  1.00  0.00    -0.176 N 
ATOM      9  H7  UNL     1      -0.652  17.346  10.446  1.00  0.00     0.186 HD
ENDROOT
BRANCH   7  10
HETATM   10  N4  UNL     1      -1.335  17.893  12.795  1.00  0.00    -0.176 N 
ATOM     11  H4  UNL     1      -0.386  18.267  12.780  1.00  0.00     0.186 HD
BRANCH  10  12
HETATM   12  C7  UNL     1      -2.402  18.535  13.535  1.00  0.00     0.120 A 
HETATM   13  C8  UNL     1      -2.485  18.374  14.900  1.00  0.00     0.051 A 
HETATM   14  C9  UNL     1      -3.500  18.986  15.593  1.00  0.00     0.032 A 
HETATM   15  C10 UNL     1      -4.444  19.761  14.952  1.00  0.00     0.061 A 
HETATM   16  N5  UNL     1      -5.491  20.391  15.679  1.00  0.00    -0.101 NA
HETATM   17  C11 UNL     1      -4.298  19.878  13.589  1.00  0.00     0.116 A 
HETATM   18  N6  UNL     1      -3.313  19.286  12.904  1.00  0.00    -0.350 N 
ATOM     19  H6  UNL     1      -3.255  19.408  11.893  1.00  0.00     0.166 HD
ENDBRANCH  10  12
ENDBRANCH   7  10
BRANCH   1  20
HETATM   20  N2  UNL     1      -1.076  15.342   8.822  1.00  0.00    -0.374 N 
ATOM     21  H2  UNL     1      -0.990  14.405   8.428  1.00  0.00     0.161 HD
BRANCH  20  22
HETATM   22  C2  UNL     1      -0.746  16.516   8.042  1.00  0.00     0.148 C 
BRANCH  22  23
HETATM   23  C1  UNL     1      -1.975  17.110   7.386  1.00  0.00     0.249 C 
BRANCH  23  24
HETATM   24  N1  UNL     1      -1.682  18.382   6.761  1.00  0.00    -0.078 N 
ATOM     25  H13 UNL     1      -1.618  19.130   7.450  1.00  0.00     0.274 HD
ATOM     26  H12 UNL     1      -0.726  18.411   6.407  1.00  0.00     0.274 HD
ATOM     27  H11 UNL     1      -2.357  18.604   6.029  1.00  0.00     0.274 HD
ENDBRANCH  23  24
ENDBRANCH  22  23
ENDBRANCH  20  22
ENDBRANCH   1  20
TORSDOF 6
ENDMDL
MODEL 2
REMARK VINA RESULT: -6.196813114      1.635      6.061
REMARK  6 active torsions:
REMARK  status: ('A' for Active; 'I' for Inactive)
REMARK    1  A    between atoms: N1_1  and  C1_5 
REMARK    2  A    between atoms: C1_5  and  C2_6 
REMARK    3  A    between atoms: C2_6  and  N2_7 
REMARK    4  A    between atoms: N2_7  and  C3_9 
REMARK    5  A    between atoms: C6_15  and  N4_16 
REMARK    6  A    between atoms: N4_16  and  C7_18 
ROOT
HETATM    1  C3  UNL     1      -1.604  16.798  12.068  1.00  0.00     0.122 A 
HETATM    2  C4  UNL     1      -2.327  15.759  12.666  1.00  0.00     0.123 A 
HETATM    3  C5  UNL     1      -2.689  14.640  11.948  1.00  0.00     0.263 A 
HETATM    4  O1  UNL     1      -3.336  13.745  12.545  1.00  0.00    -0.268 OA
HETATM    5  N3  UNL     1      -2.324  14.582  10.663  1.00  0.00    -0.156 N 
ATOM      6  H3  UNL     1      -2.588  13.757  10.124  1.00  0.00     0.187 HD
HETATM    7  C6  UNL     1      -1.632  15.547  10.042  1.00  0.00     0.688 A 
HETATM    8  N7  UNL     1      -1.290  16.642  10.782  1.00  0.00    -0.176 N 
ATOM      9  H7  UNL     1      -0.763  17.386  10.324  1.00  0.00     0.186 HD
ENDROOT
BRANCH   7  10
HETATM   10  N4  UNL     1      -1.294  15.465   8.802  1.00  0.00    -0.176 N 
ATOM     11  H4  UNL     1      -0.552  14.842   8.483  1.00  0.00     0.186 HD
BRANCH  10  12
HETATM   12  C7  UNL     1      -2.033  16.311   7.889  1.00  0.00     0.120 A 
HETATM   13  C8  UNL     1      -1.408  17.376   7.279  1.00  0.00     0.051 A 
HETATM   14  C9  UNL     1      -2.117  18.172   6.414  1.00  0.00     0.032 A 
HETATM   15  C10 UNL     1      -3.447  17.931   6.140  1.00  0.00     0.061 A 
HETATM   16  N5  UNL     1      -4.173  18.762   5.242  1.00  0.00    -0.101 NA
HETATM   17  C11 UNL     1      -4.005  16.852   6.784  1.00  0.00     0.116 A 
HETATM   18  N6  UNL     1      -3.324  16.069   7.629  1.00  0.00    -0.350 N 
ATOM     19  H6  UNL     1      -3.792  15.282   8.078  1.00  0.00     0.166 HD
ENDBRANCH  10  12
ENDBRANCH   7  10
BRANCH   1  20
HETATM   20  N2  UNL     1      -1.245  17.939  12.833  1.00  0.00    -0.374 N 
ATOM     21  H2  UNL     1      -0.343  17.997  13.305  1.00  0.00     0.161 HD
BRANCH  20  22
HETATM   22  C2  UNL     1      -2.208  19.017  12.919  1.00  0.00     0.148 C 
BRANCH  22  23
HETATM   23  C1  UNL     1      -2.822  19.104  14.300  1.00  0.00     0.249 C 
BRANCH  23  24
HETATM   24  N1  UNL     1      -1.918  18.609  15.316  1.00  0.00    -0.078 N 
ATOM     25  H13 UNL     1      -1.437  17.765  15.007  1.00  0.00     0.274 HD
ATOM     26  H12 UNL     1      -1.109  19.221  15.426  1.00  0.00     0.274 HD
ATOM     27  H11 UNL     1      -2.397  18.461  16.204  1.00  0.00     0.274 HD
ENDBRANCH  23  24
ENDBRANCH  22  23
ENDBRANCH  20  22
ENDBRANCH   1  20
TORSDOF 6
ENDMDL
MODEL 3
REMARK VINA RESULT: -6.194205324      0.620      1.071
REMARK  6 active torsions:
REMARK  status: ('A' for Active; 'I' for Inactive)
REMARK    1  A    between atoms: N1_1  and  C1_5 
REMARK    2  A    between atoms: C1_5  and  C2_6 
REMARK    3  A    between atoms: C2_6  and  N2_7 
REMARK    4  A    between atoms: N2_7  and  C3_9 
REMARK    5  A    between atoms: C6_15  and  N4_16 
REMARK    6  A    between atoms: N4_16  and  C7_18 
ROOT
HETATM    1  C3  UNL     1      -1.520  15.548  10.169  1.00  0.00     0.122 A 
HETATM    2  C4  UNL     1      -2.322  14.580  10.786  1.00  0.00     0.123 A 
HETATM    3  C5  UNL     1      -2.771  14.748  12.077  1.00  0.00     0.263 A 
HETATM    4  O1  UNL     1      -3.488  13.842  12.570  1.00  0.00    -0.268 OA
HETATM    5  N3  UNL     1      -2.413  15.864  12.719  1.00  0.00    -0.156 N 
ATOM      6  H3  UNL     1      -2.741  15.996  13.676  1.00  0.00     0.187 HD
HETATM    7  C6  UNL     1      -1.648  16.822  12.177  1.00  0.00     0.688 A 
HETATM    8  N7  UNL     1      -1.220  16.624  10.895  1.00  0.00    -0.176 N 
ATOM      9  H7  UNL     1      -0.636  17.344  10.468  1.00  0.00     0.186 HD
ENDROOT
BRANCH   7  10
HETATM   10  N4  UNL     1      -1.318  17.888  12.819  1.00  0.00    -0.176 N 
ATOM     11  H4  UNL     1      -0.366  18.256  12.804  1.00  0.00     0.186 HD
BRANCH  10  12
HETATM   12  C7  UNL     1      -2.380  18.532  13.562  1.00  0.00     0.120 A 
HETATM   13  C8  UNL     1      -3.210  19.433  12.933  1.00  0.00     0.051 A 
HETATM   14  C9  UNL     1      -4.214  20.040  13.647  1.00  0.00     0.032 A 
HETATM   15  C10 UNL     1      -4.413  19.769  14.985  1.00  0.00     0.061 A 
HETATM   16  N5  UNL     1      -5.456  20.402  15.714  1.00  0.00    -0.101 NA
HETATM   17  C11 UNL     1      -3.546  18.859  15.546  1.00  0.00     0.116 A 
HETATM   18  N6  UNL     1      -2.565  18.262  14.860  1.00  0.00    -0.350 N 
ATOM     19  H6  UNL     1      -1.952  17.596  15.330  1.00  0.00     0.166 HD
ENDBRANCH  10  12
ENDBRANCH   7  10
BRANCH   1  20
HETATM   20  N2  UNL     1      -1.072  15.348   8.837  1.00  0.00    -0.374 N 
ATOM     21  H2  UNL     1      -0.990  14.411   8.441  1.00  0.00     0.161 HD
BRANCH  20  22
HETATM   22  C2  UNL     1      -0.736  16.522   8.060  1.00  0.00     0.148 C 
BRANCH  22  23
HETATM   23  C1  UNL     1      -1.959  17.116   7.394  1.00  0.00     0.249 C 
BRANCH  23  24
HETATM   24  N1  UNL     1      -1.660  18.385   6.766  1.00  0.00    -0.078 N 
ATOM     25  H13 UNL     1      -1.695  19.150   7.439  1.00  0.00     0.274 HD
ATOM     26  H12 UNL     1      -0.676  18.449   6.505  1.00  0.00     0.274 HD
ATOM     27  H11 UNL     1      -2.269  18.561   5.968  1.00  0.00     0.274 HD
ENDBRANCH  23  24
ENDBRANCH  22  23
ENDBRANCH  20  22
ENDBRANCH   1  20
TORSDOF 6
ENDMDL
MODEL 4
REMARK VINA RESULT: -5.932207472      1.245      1.511
REMARK  6 active torsions:
REMARK  status: ('A' for Active; 'I' for Inactive)
REMARK    1  A    between atoms: N1_1  and  C1_5 
REMARK    2  A    between atoms: C1_5  and  C2_6 
REMARK    3  A    between atoms: C2_6  and  N2_7 
REMARK    4  A    between atoms: N2_7  and  C3_9 
REMARK    5  A    between atoms: C6_15  and  N4_16 
REMARK    6  A    between atoms: N4_16  and  C7_18 
ROOT
HETATM    1  C3  UNL     1      -1.670  15.645  10.090  1.00  0.00     0.122 A 
HETATM    2  C4  UNL     1      -2.459  14.674  10.719  1.00  0.00     0.123 A 
HETATM    3  C5  UNL     1      -2.794  14.785  12.051  1.00  0.00     0.263 A 
HETATM    4  O1  UNL     1      -3.505  13.880  12.553  1.00  0.00    -0.268 OA
HETATM    5  N3  UNL     1      -2.340  15.850  12.719  1.00  0.00    -0.156 N 
ATOM      6  H3  UNL     1      -2.584  15.939  13.706  1.00  0.00     0.187 HD
HETATM    7  C6  UNL     1      -1.583  16.808  12.166  1.00  0.00     0.688 A 
HETATM    8  N7  UNL     1      -1.268  16.668  10.845  1.00  0.00    -0.176 N 
ATOM      9  H7  UNL     1      -0.692  17.388  10.409  1.00  0.00     0.186 HD
ENDROOT
BRANCH   7  10
HETATM   10  N4  UNL     1      -1.159  17.824  12.834  1.00  0.00    -0.176 N 
ATOM     11  H4  UNL     1      -0.280  17.802  13.353  1.00  0.00     0.186 HD
BRANCH  10  12
HETATM   12  C7  UNL     1      -2.004  18.998  12.804  1.00  0.00     0.120 A 
HETATM   13  C8  UNL     1      -2.937  19.200  13.797  1.00  0.00     0.051 A 
HETATM   14  C9  UNL     1      -3.735  20.317  13.760  1.00  0.00     0.032 A 
HETATM   15  C10 UNL     1      -3.625  21.246  12.747  1.00  0.00     0.061 A 
HETATM   16  N5  UNL     1      -4.456  22.400  12.718  1.00  0.00    -0.101 NA
HETATM   17  C11 UNL     1      -2.673  20.980  11.790  1.00  0.00     0.116 A 
HETATM   18  N6  UNL     1      -1.891  19.895  11.817  1.00  0.00    -0.350 N 
ATOM     19  H6  UNL     1      -1.201  19.750  11.079  1.00  0.00     0.166 HD
ENDBRANCH  10  12
ENDBRANCH   7  10
BRANCH   1  20
HETATM   20  N2  UNL     1      -1.340  15.504   8.716  1.00  0.00    -0.374 N 
ATOM     21  H2  UNL     1      -0.644  14.826   8.406  1.00  0.00     0.161 HD
BRANCH  20  22
HETATM   22  C2  UNL     1      -2.027  16.359   7.772  1.00  0.00     0.148 C 
BRANCH  22  23
HETATM   23  C1  UNL     1      -1.178  17.550   7.381  1.00  0.00     0.249 C 
BRANCH  23  24
HETATM   24  N1  UNL     1      -1.900  18.458   6.516  1.00  0.00    -0.078 N 
ATOM     25  H13 UNL     1      -2.027  18.063   5.585  1.00  0.00     0.274 HD
ATOM     26  H12 UNL     1      -2.880  18.533   6.790  1.00  0.00     0.274 HD
ATOM     27  H11 UNL     1      -1.453  19.373   6.476  1.00  0.00     0.274 HD
ENDBRANCH  23  24
ENDBRANCH  22  23
ENDBRANCH  20  22
ENDBRANCH   1  20
TORSDOF 6
ENDMDL
MODEL 5
REMARK VINA RESULT: -5.898782521      1.110      1.547
REMARK  6 active torsions:
REMARK  status: ('A' for Active; 'I' for Inactive)
REMARK    1  A    between atoms: N1_1  and  C1_5 
REMARK    2  A    between atoms: C1_5  and  C2_6 
REMARK    3  A    between atoms: C2_6  and  N2_7 
REMARK    4  A    between atoms: N2_7  and  C3_9 
REMARK    5  A    between atoms: C6_15  and  N4_16 
REMARK    6  A    between atoms: N4_16  and  C7_18 
ROOT
HETATM    1  C3  UNL     1      -1.436  15.549  10.142  1.00  0.00     0.122 A 
HETATM    2  C4  UNL     1      -2.284  14.627  10.767  1.00  0.00     0.123 A 
HETATM    3  C5  UNL     1      -2.711  14.819  12.063  1.00  0.00     0.263 A 
HETATM    4  O1  UNL     1      -3.471  13.953  12.563  1.00  0.00    -0.268 OA
HETATM    5  N3  UNL     1      -2.287  15.914  12.701  1.00  0.00    -0.156 N 
ATOM      6  H3  UNL     1      -2.599  16.063  13.661  1.00  0.00     0.187 HD
HETATM    7  C6  UNL     1      -1.476  16.829  12.150  1.00  0.00     0.688 A 
HETATM    8  N7  UNL     1      -1.072  16.608  10.865  1.00  0.00    -0.176 N 
ATOM      9  H7  UNL     1      -0.454  17.294  10.432  1.00  0.00     0.186 HD
ENDROOT
BRANCH   7  10
HETATM   10  N4  UNL     1      -1.083  17.876  12.788  1.00  0.00    -0.176 N 
ATOM     11  H4  UNL     1      -0.148  17.945  13.191  1.00  0.00     0.186 HD
BRANCH  10  12
HETATM   12  C7  UNL     1      -2.049  18.948  12.898  1.00  0.00     0.120 A 
HETATM   13  C8  UNL     1      -2.148  19.890  11.898  1.00  0.00     0.051 A 
HETATM   14  C9  UNL     1      -3.066  20.904  12.012  1.00  0.00     0.032 A 
HETATM   15  C10 UNL     1      -3.896  21.005  13.110  1.00  0.00     0.061 A 
HETATM   16  N5  UNL     1      -4.844  22.059  13.218  1.00  0.00    -0.101 NA
HETATM   17  C11 UNL     1      -3.742  20.030  14.068  1.00  0.00     0.116 A 
HETATM   18  N6  UNL     1      -2.850  19.037  13.967  1.00  0.00    -0.350 N 
ATOM     19  H6  UNL     1      -2.780  18.343  14.711  1.00  0.00     0.166 HD
ENDBRANCH  10  12
ENDBRANCH   7  10
BRANCH   1  20
HETATM   20  N2  UNL     1      -1.012  15.325   8.806  1.00  0.00    -0.374 N 
ATOM     21  H2  UNL     1      -0.926  14.381   8.430  1.00  0.00     0.161 HD
BRANCH  20  22
HETATM   22  C2  UNL     1      -0.707  16.486   7.997  1.00  0.00     0.148 C 
BRANCH  22  23
HETATM   23  C1  UNL     1      -1.965  17.125   7.446  1.00  0.00     0.249 C 
BRANCH  23  24
HETATM   24  N1  UNL     1      -1.666  18.323   6.693  1.00  0.00    -0.078 N 
ATOM     25  H13 UNL     1      -0.834  18.791   7.052  1.00  0.00     0.274 HD
ATOM     26  H12 UNL     1      -1.330  18.101   5.756  1.00  0.00     0.274 HD
ATOM     27  H11 UNL     1      -2.465  18.956   6.662  1.00  0.00     0.274 HD
ENDBRANCH  23  24
ENDBRANCH  22  23
ENDBRANCH  20  22
ENDBRANCH   1  20
TORSDOF 6
ENDMDL
