MODEL 1
REMARK VINA RESULT: -5.940617518      0.000      0.000
REMARK  9 active torsions:
REMARK  status: ('A' for Active; 'I' for Inactive)
REMARK    1  A    between atoms: O1_2  and  C2_3 
REMARK    2  A    between atoms: C4_5  and  C5_6 
REMARK    3  A    between atoms: C5_6  and  N1_7 
REMARK    4  A    between atoms: N1_7  and  O2_8 
REMARK    5  A    between atoms: O2_8  and  C6_9 
REMARK    6  A    between atoms: C6_9  and  O3_11 
REMARK    7  A    between atoms: C8_13  and  N2_14 
REMARK    8  A    between atoms: N2_14  and  N3_16 
REMARK    9  A    between atoms: C9_21  and  O4_22 
ROOT
HETATM    1  C2  UNL     1      -3.529  15.244  12.060  1.00  0.00     0.119 A 
HETATM    2  C3  UNL     1      -2.683  16.325  12.172  1.00  0.00     0.053 A 
HETATM    3  C4  UNL     1      -1.550  16.386  11.392  1.00  0.00     0.007 A 
HETATM    4  C8  UNL     1      -1.230  15.392  10.493  1.00  0.00     0.129 A 
HETATM    5  N4  UNL     1      -2.072  14.348  10.402  1.00  0.00    -0.319 N 
ATOM      6  H4  UNL     1      -1.859  13.597   9.743  1.00  0.00     0.169 HD
HETATM    7  C9  UNL     1      -3.181  14.261  11.148  1.00  0.00     0.177 A 
ENDROOT
BRANCH   3   8
HETATM    8  C5  UNL     1      -0.615  17.536  11.487  1.00  0.00     0.185 C 
BRANCH   8   9
HETATM    9  N1  UNL     1      -1.316  18.648  12.112  1.00  0.00    -0.093 NA
BRANCH   9  10
HETATM   10  O2  UNL     1      -1.630  19.600  11.203  1.00  0.00    -0.254 OA
BRANCH  10  11
HETATM   11  C6  UNL     1      -2.453  20.582  11.727  1.00  0.00     0.276 C 
HETATM   12  C7  UNL     1      -2.797  20.320  13.178  1.00  0.00     0.072 C 
BRANCH  11  13
HETATM   13  O3  UNL     1      -1.730  21.793  11.631  1.00  0.00    -0.370 OA
ATOM     14  H3  UNL     1      -2.379  22.483  11.555  1.00  0.00     0.212 HD
ENDBRANCH  11  13
ENDBRANCH  10  11
ENDBRANCH   9  10
ENDBRANCH   8   9
ENDBRANCH   3   8
BRANCH   4  15
HETATM   15  N2  UNL     1      -0.146  15.469   9.758  1.00  0.00    -0.292 N 
ATOM     16  H2  UNL     1       0.078  16.312   9.230  1.00  0.00     0.188 HD
BRANCH  15  17
HETATM   17  N3  UNL     1       0.681  14.364   9.726  1.00  0.00    -0.344 N 
ATOM     18  H32 UNL     1       0.432  13.519  10.242  1.00  0.00     0.176 HD
ATOM     19  H31 UNL     1       1.535  14.431   9.173  1.00  0.00     0.176 HD
ENDBRANCH  15  17
ENDBRANCH   4  15
BRANCH   1  20
HETATM   20  O1  UNL     1      -4.692  15.109  12.812  1.00  0.00    -0.352 OA
HETATM   21  C1  UNL     1      -5.583  16.192  12.858  1.00  0.00     0.210 C 
ENDBRANCH   1  20
BRANCH   7  22
HETATM   22  O4  UNL     1      -4.024  13.172  11.027  1.00  0.00    -0.339 OA
HETATM   23  C10 UNL     1      -4.883  12.978   9.931  1.00  0.00     0.211 C 
ENDBRANCH   7  22
TORSDOF 9
ENDMDL
MODEL 2
REMARK VINA RESULT: -5.669735181      1.686      5.079
REMARK  9 active torsions:
REMARK  status: ('A' for Active; 'I' for Inactive)
REMARK    1  A    between atoms: O1_2  and  C2_3 
REMARK    2  A    between atoms: C4_5  and  C5_6 
REMARK    3  A    between atoms: C5_6  and  N1_7 
REMARK    4  A    between atoms: N1_7  and  O2_8 
REMARK    5  A    between atoms: O2_8  and  C6_9 
REMARK    6  A    between atoms: C6_9  and  O3_11 
REMARK    7  A    between atoms: C8_13  and  N2_14 
REMARK    8  A    between atoms: N2_14  and  N3_16 
REMARK    9  A    between atoms: C9_21  and  O4_22 
ROOT
HETATM    1  C2  UNL     1      -2.187  17.934  12.902  1.00  0.00     0.119 A 
HETATM    2  C3  UNL     1      -2.344  16.589  13.156  1.00  0.00     0.053 A 
HETATM    3  C4  UNL     1      -2.149  15.678  12.143  1.00  0.00     0.007 A 
HETATM    4  C8  UNL     1      -1.798  16.068  10.869  1.00  0.00     0.129 A 
HETATM    5  N4  UNL     1      -1.650  17.385  10.646  1.00  0.00    -0.319 N 
ATOM      6  H4  UNL     1      -1.390  17.702   9.711  1.00  0.00     0.169 HD
HETATM    7  C9  UNL     1      -1.834  18.295  11.612  1.00  0.00     0.177 A 
ENDROOT
BRANCH   3   8
HETATM    8  C5  UNL     1      -2.310  14.220  12.380  1.00  0.00     0.185 C 
BRANCH   8   9
HETATM    9  N1  UNL     1      -3.699  13.865  12.132  1.00  0.00    -0.093 NA
BRANCH   9  10
HETATM   10  O2  UNL     1      -3.824  13.154  10.986  1.00  0.00    -0.254 OA
BRANCH  10  11
HETATM   11  C6  UNL     1      -4.825  13.643  10.166  1.00  0.00     0.276 C 
HETATM   12  C7  UNL     1      -5.511  14.853  10.765  1.00  0.00     0.072 C 
BRANCH  11  13
HETATM   13  O3  UNL     1      -4.196  14.017   8.956  1.00  0.00    -0.370 OA
ATOM     14  H3  UNL     1      -4.382  14.940   8.836  1.00  0.00     0.212 HD
ENDBRANCH  11  13
ENDBRANCH  10  11
ENDBRANCH   9  10
ENDBRANCH   8   9
ENDBRANCH   3   8
BRANCH   4  15
HETATM   15  N2  UNL     1      -1.616  15.184   9.916  1.00  0.00    -0.292 N 
ATOM     16  H2  UNL     1      -1.372  14.217  10.131  1.00  0.00     0.188 HD
BRANCH  15  17
HETATM   17  N3  UNL     1      -1.769  15.612   8.613  1.00  0.00    -0.344 N 
ATOM     18  H32 UNL     1      -2.695  15.838   8.250  1.00  0.00     0.176 HD
ATOM     19  H31 UNL     1      -0.927  15.691   8.042  1.00  0.00     0.176 HD
ENDBRANCH  15  17
ENDBRANCH   4  15
BRANCH   1  20
HETATM   20  O1  UNL     1      -2.365  18.915  13.871  1.00  0.00    -0.352 OA
HETATM   21  C1  UNL     1      -2.693  18.511  15.173  1.00  0.00     0.210 C 
ENDBRANCH   1  20
BRANCH   7  22
HETATM   22  O4  UNL     1      -1.673  19.642  11.346  1.00  0.00    -0.339 OA
HETATM   23  C10 UNL     1      -2.725  20.480  10.936  1.00  0.00     0.211 C 
ENDBRANCH   7  22
TORSDOF 9
ENDMDL
MODEL 3
REMARK VINA RESULT: -5.634859436      1.542      1.761
REMARK  9 active torsions:
REMARK  status: ('A' for Active; 'I' for Inactive)
REMARK    1  A    between atoms: O1_2  and  C2_3 
REMARK    2  A    between atoms: C4_5  and  C5_6 
REMARK    3  A    between atoms: C5_6  and  N1_7 
REMARK    4  A    between atoms: N1_7  and  O2_8 
REMARK    5  A    between atoms: O2_8  and  C6_9 
REMARK    6  A    between atoms: C6_9  and  O3_11 
REMARK    7  A    between atoms: C8_13  and  N2_14 
REMARK    8  A    between atoms: N2_14  and  N3_16 
REMARK    9  A    between atoms: C9_21  and  O4_22 
ROOT
HETATM    1  C2  UNL     1      -3.872  15.200  12.096  1.00  0.00     0.119 A 
HETATM    2  C3  UNL     1      -3.087  16.312  12.307  1.00  0.00     0.053 A 
HETATM    3  C4  UNL     1      -1.871  16.417  11.670  1.00  0.00     0.007 A 
HETATM    4  C8  UNL     1      -1.407  15.437  10.820  1.00  0.00     0.129 A 
HETATM    5  N4  UNL     1      -2.191  14.361  10.631  1.00  0.00    -0.319 N 
ATOM      6  H4  UNL     1      -1.871  13.621  10.005  1.00  0.00     0.169 HD
HETATM    7  C9  UNL     1      -3.379  14.232  11.237  1.00  0.00     0.177 A 
ENDROOT
BRANCH   3   8
HETATM    8  C5  UNL     1      -0.998  17.601  11.874  1.00  0.00     0.185 C 
BRANCH   8   9
HETATM    9  N1  UNL     1      -1.724  18.574  12.677  1.00  0.00    -0.093 NA
BRANCH   9  10
HETATM   10  O2  UNL     1      -1.443  18.427  13.993  1.00  0.00    -0.254 OA
BRANCH  10  11
HETATM   11  C6  UNL     1      -2.267  19.193  14.799  1.00  0.00     0.276 C 
HETATM   12  C7  UNL     1      -3.606  19.467  14.148  1.00  0.00     0.072 C 
BRANCH  11  13
HETATM   13  O3  UNL     1      -2.470  18.444  15.981  1.00  0.00    -0.370 OA
ATOM     14  H3  UNL     1      -1.608  18.300  16.354  1.00  0.00     0.212 HD
ENDBRANCH  11  13
ENDBRANCH  10  11
ENDBRANCH   9  10
ENDBRANCH   8   9
ENDBRANCH   3   8
BRANCH   4  15
HETATM   15  N2  UNL     1      -0.244  15.555  10.222  1.00  0.00    -0.292 N 
ATOM     16  H2  UNL     1       0.180  16.469  10.065  1.00  0.00     0.188 HD
BRANCH  15  17
HETATM   17  N3  UNL     1       0.382  14.395   9.814  1.00  0.00    -0.344 N 
ATOM     18  H32 UNL     1      -0.158  13.636   9.398  1.00  0.00     0.176 HD
ATOM     19  H31 UNL     1       1.392  14.335   9.945  1.00  0.00     0.176 HD
ENDBRANCH  15  17
ENDBRANCH   4  15
BRANCH   1  20
HETATM   20  O1  UNL     1      -5.112  15.020  12.701  1.00  0.00    -0.352 OA
HETATM   21  C1  UNL     1      -5.810  16.157  13.135  1.00  0.00     0.210 C 
ENDBRANCH   1  20
BRANCH   7  22
HETATM   22  O4  UNL     1      -4.159  13.112  11.018  1.00  0.00    -0.339 OA
HETATM   23  C10 UNL     1      -4.939  12.928   9.862  1.00  0.00     0.211 C 
ENDBRANCH   7  22
TORSDOF 9
ENDMDL
MODEL 4
REMARK VINA RESULT: -5.459783272      3.215      6.322
REMARK  9 active torsions:
REMARK  status: ('A' for Active; 'I' for Inactive)
REMARK    1  A    between atoms: O1_2  and  C2_3 
REMARK    2  A    between atoms: C4_5  and  C5_6 
REMARK    3  A    between atoms: C5_6  and  N1_7 
REMARK    4  A    between atoms: N1_7  and  O2_8 
REMARK    5  A    between atoms: O2_8  and  C6_9 
REMARK    6  A    between atoms: C6_9  and  O3_11 
REMARK    7  A    between atoms: C8_13  and  N2_14 
REMARK    8  A    between atoms: N2_14  and  N3_16 
REMARK    9  A    between atoms: C9_21  and  O4_22 
ROOT
HETATM    1  C2  UNL     1      -6.880  18.747  14.289  1.00  0.00     0.119 A 
HETATM    2  C3  UNL     1      -6.790  17.649  13.461  1.00  0.00     0.053 A 
HETATM    3  C4  UNL     1      -5.573  17.307  12.915  1.00  0.00     0.007 A 
HETATM    4  C8  UNL     1      -4.430  18.032  13.171  1.00  0.00     0.129 A 
HETATM    5  N4  UNL     1      -4.544  19.099  13.982  1.00  0.00    -0.319 N 
ATOM      6  H4  UNL     1      -3.712  19.654  14.188  1.00  0.00     0.169 HD
HETATM    7  C9  UNL     1      -5.715  19.456  14.527  1.00  0.00     0.177 A 
ENDROOT
BRANCH   3   8
HETATM    8  C5  UNL     1      -5.438  16.131  12.019  1.00  0.00     0.185 C 
BRANCH   8   9
HETATM    9  N1  UNL     1      -5.008  14.992  12.817  1.00  0.00    -0.093 NA
BRANCH   9  10
HETATM   10  O2  UNL     1      -3.757  14.602  12.478  1.00  0.00    -0.254 OA
BRANCH  10  11
HETATM   11  C6  UNL     1      -3.650  14.275  11.137  1.00  0.00     0.276 C 
HETATM   12  C7  UNL     1      -2.358  14.777  10.530  1.00  0.00     0.072 C 
BRANCH  11  13
HETATM   13  O3  UNL     1      -3.676  12.863  11.073  1.00  0.00    -0.370 OA
ATOM     14  H3  UNL     1      -4.550  12.627  10.786  1.00  0.00     0.212 HD
ENDBRANCH  11  13
ENDBRANCH  10  11
ENDBRANCH   9  10
ENDBRANCH   8   9
ENDBRANCH   3   8
BRANCH   4  15
HETATM   15  N2  UNL     1      -3.279  17.690  12.642  1.00  0.00    -0.292 N 
ATOM     16  H2  UNL     1      -3.059  17.905  11.669  1.00  0.00     0.188 HD
BRANCH  15  17
HETATM   17  N3  UNL     1      -2.378  17.029  13.451  1.00  0.00    -0.344 N 
ATOM     18  H32 UNL     1      -1.930  17.515  14.228  1.00  0.00     0.176 HD
ATOM     19  H31 UNL     1      -2.185  16.050  13.238  1.00  0.00     0.176 HD
ENDBRANCH  15  17
ENDBRANCH   4  15
BRANCH   1  20
HETATM   20  O1  UNL     1      -8.072  19.156  14.878  1.00  0.00    -0.352 OA
HETATM   21  C1  UNL     1      -9.022  19.804  14.076  1.00  0.00     0.210 C 
ENDBRANCH   1  20
BRANCH   7  22
HETATM   22  O4  UNL     1      -5.794  20.559  15.356  1.00  0.00    -0.339 OA
HETATM   23  C10 UNL     1      -5.996  21.868  14.884  1.00  0.00     0.211 C 
ENDBRANCH   7  22
TORSDOF 9
ENDMDL
MODEL 5
REMARK VINA RESULT: -5.452506715      3.256      4.774
REMARK  9 active torsions:
REMARK  status: ('A' for Active; 'I' for Inactive)
REMARK    1  A    between atoms: O1_2  and  C2_3 
REMARK    2  A    between atoms: C4_5  and  C5_6 
REMARK    3  A    between atoms: C5_6  and  N1_7 
REMARK    4  A    between atoms: N1_7  and  O2_8 
REMARK    5  A    between atoms: O2_8  and  C6_9 
REMARK    6  A    between atoms: C6_9  and  O3_11 
REMARK    7  A    between atoms: C8_13  and  N2_14 
REMARK    8  A    between atoms: N2_14  and  N3_16 
REMARK    9  A    between atoms: C9_21  and  O4_22 
ROOT
HETATM    1  C2  UNL     1      -4.465  19.229  15.134  1.00  0.00     0.119 A 
HETATM    2  C3  UNL     1      -3.139  19.271  14.765  1.00  0.00     0.053 A 
HETATM    3  C4  UNL     1      -2.625  18.280  13.958  1.00  0.00     0.007 A 
HETATM    4  C8  UNL     1      -3.400  17.237  13.503  1.00  0.00     0.129 A 
HETATM    5  N4  UNL     1      -4.692  17.218  13.876  1.00  0.00    -0.319 N 
ATOM      6  H4  UNL     1      -5.289  16.457  13.552  1.00  0.00     0.169 HD
HETATM    7  C9  UNL     1      -5.219  18.169  14.660  1.00  0.00     0.177 A 
ENDROOT
BRANCH   3   8
HETATM    8  C5  UNL     1      -1.200  18.293  13.541  1.00  0.00     0.185 C 
BRANCH   8   9
HETATM    9  N1  UNL     1      -1.137  18.657  12.133  1.00  0.00    -0.093 NA
BRANCH   9  10
HETATM   10  O2  UNL     1      -0.206  17.922  11.480  1.00  0.00    -0.254 OA
BRANCH  10  11
HETATM   11  C6  UNL     1      -0.633  17.523  10.225  1.00  0.00     0.276 C 
HETATM   12  C7  UNL     1      -0.408  16.044   9.991  1.00  0.00     0.072 C 
BRANCH  11  13
HETATM   13  O3  UNL     1      -2.019  17.796  10.175  1.00  0.00    -0.370 OA
ATOM     14  H3  UNL     1      -2.380  17.214   9.517  1.00  0.00     0.212 HD
ENDBRANCH  11  13
ENDBRANCH  10  11
ENDBRANCH   9  10
ENDBRANCH   8   9
ENDBRANCH   3   8
BRANCH   4  15
HETATM   15  N2  UNL     1      -2.893  16.302  12.735  1.00  0.00    -0.292 N 
ATOM     16  H2  UNL     1      -1.945  15.954  12.880  1.00  0.00     0.188 HD
BRANCH  15  17
HETATM   17  N3  UNL     1      -3.690  15.807  11.722  1.00  0.00    -0.344 N 
ATOM     18  H32 UNL     1      -3.926  14.815  11.690  1.00  0.00     0.176 HD
ATOM     19  H31 UNL     1      -4.026  16.469  11.022  1.00  0.00     0.176 HD
ENDBRANCH  15  17
ENDBRANCH   4  15
BRANCH   1  20
HETATM   20  O1  UNL     1      -5.057  20.192  15.944  1.00  0.00    -0.352 OA
HETATM   21  C1  UNL     1      -5.728  21.258  15.328  1.00  0.00     0.210 C 
ENDBRANCH   1  20
BRANCH   7  22
HETATM   22  O4  UNL     1      -6.551  18.117  15.024  1.00  0.00    -0.339 OA
HETATM   23  C10 UNL     1      -7.327  16.947  14.953  1.00  0.00     0.211 C 
ENDBRANCH   7  22
TORSDOF 9
ENDMDL
