MODEL 1
REMARK VINA RESULT: -8.046000730      0.000      0.000
REMARK  20 active torsions:
REMARK  status: ('A' for Active; 'I' for Inactive)
REMARK    1  A    between atoms: C2_2  and  C3_3 
REMARK    2  A    between atoms: C3_3  and  C4_4 
REMARK    3  A    between atoms: C4_4  and  C5_5 
REMARK    4  A    between atoms: C5_5  and  C6_6 
REMARK    5  A    between atoms: C5_5  and  N2_11 
REMARK    6  A    between atoms: C6_6  and  N1_7 
REMARK       I    between atoms: N2_11  and  C8_13 
REMARK    7  A    between atoms: C8_13  and  C9_15 
REMARK    8  A    between atoms: N3_21  and  C14_22 
REMARK    9  A    between atoms: C14_22  and  O3_23 
REMARK   10  A    between atoms: C14_22  and  C15_25 
REMARK   11  A    between atoms: C15_25  and  C16_26 
REMARK   12  A    between atoms: C15_25  and  N5_34 
REMARK   13  A    between atoms: C16_26  and  C17_27 
REMARK   14  A    between atoms: C17_27  and  C18_28 
REMARK   15  A    between atoms: C18_28  and  C19_29 
REMARK   16  A    between atoms: C19_29  and  N4_30 
REMARK       I    between atoms: N5_34  and  C20_36 
REMARK   17  A    between atoms: C20_36  and  C21_38 
REMARK   18  A    between atoms: C21_38  and  N6_39 
REMARK   19  A    between atoms: C21_38  and  C25_47 
REMARK       I    between atoms: N6_39  and  C22_41 
REMARK   20  A    between atoms: C22_41  and  C23_43 
ROOT
HETATM    1  C15 UNL     1       9.024   6.967  27.329  1.00  0.00     0.143 C 
ENDROOT
BRANCH   1   2
HETATM    2  C14 UNL     1       8.688   7.441  25.975  1.00  0.00     0.381 C 
BRANCH   2   3
HETATM    3  N3  UNL     1       9.716   7.803  25.080  1.00  0.00     0.142 N 
HETATM    4  C9  UNL     1      11.049   7.453  25.406  1.00  0.00     0.320 C 
HETATM    5  C10 UNL     1      11.330   6.134  24.722  1.00  0.00     0.080 C 
HETATM    6  C11 UNL     1      10.486   6.219  23.480  1.00  0.00     0.159 C 
HETATM    7  O2  UNL     1      10.932   7.088  22.503  1.00  0.00    -0.381 OA
HETATM    8  C13 UNL     1       9.400   7.193  23.799  1.00  0.00     0.279 C 
HETATM    9  C12 UNL     1       9.808   7.911  22.570  1.00  0.00     0.207 C 
BRANCH   4  10
HETATM   10  C8  UNL     1      12.048   8.490  25.126  1.00  0.00     0.252 C 
HETATM   11  N2  UNL     1      13.377   8.451  25.650  1.00  0.00    -0.353 N 
ATOM     12  H2  UNL     1      13.632   7.664  26.248  1.00  0.00     0.163 HD
HETATM   13  O1  UNL     1      11.777   9.475  24.400  1.00  0.00    -0.271 OA
BRANCH  11  14
HETATM   14  C5  UNL     1      14.374   9.446  25.389  1.00  0.00     0.110 C 
BRANCH  14  15
HETATM   15  C4  UNL     1      15.482   9.526  26.379  1.00  0.00     0.027 C 
BRANCH  15  16
HETATM   16  C3  UNL     1      15.078  10.191  27.672  1.00  0.00     0.002 C 
BRANCH  16  17
HETATM   17  C2  UNL     1      15.315  11.681  27.633  1.00  0.00    -0.004 C 
HETATM   18  C1  UNL     1      15.212  12.217  29.033  1.00  0.00     0.005 C 
ENDBRANCH  16  17
ENDBRANCH  15  16
ENDBRANCH  14  15
BRANCH  14  19
HETATM   19  C6  UNL     1      14.903   9.229  23.959  1.00  0.00     0.256 C 
BRANCH  19  20
HETATM   20  N1  UNL     1      14.565  10.305  23.078  1.00  0.00    -0.077 N 
HETATM   21  C7  UNL     1      14.935  10.010  21.701  1.00  0.00     0.267 C 
ATOM     22  H12 UNL     1      13.578  10.550  23.152  1.00  0.00     0.276 HD
ATOM     23  H11 UNL     1      14.972  11.185  23.392  1.00  0.00     0.276 HD
ENDBRANCH  19  20
ENDBRANCH  14  19
ENDBRANCH  11  14
ENDBRANCH   4  10
ENDBRANCH   2   3
BRANCH   2  24
HETATM   24  O3  UNL     1       7.910   6.429  25.363  1.00  0.00    -0.366 OA
ATOM     25  H3  UNL     1       7.106   6.826  25.048  1.00  0.00     0.212 HD
ENDBRANCH   2  24
ENDBRANCH   1   2
BRANCH   1  26
HETATM   26  C16 UNL     1       8.186   7.540  28.430  1.00  0.00     0.030 C 
BRANCH  26  27
HETATM   27  C17 UNL     1       6.925   6.818  28.741  1.00  0.00     0.004 C 
BRANCH  27  28
HETATM   28  C18 UNL     1       6.858   6.727  30.274  1.00  0.00     0.027 C 
BRANCH  28  29
HETATM   29  C19 UNL     1       5.557   6.098  30.723  1.00  0.00     0.229 C 
BRANCH  29  30
HETATM   30  N4  UNL     1       4.627   7.210  30.931  1.00  0.00    -0.079 N 
ATOM     31  H43 UNL     1       5.086   8.084  31.189  1.00  0.00     0.274 HD
ATOM     32  H42 UNL     1       4.195   7.548  30.071  1.00  0.00     0.274 HD
ATOM     33  H41 UNL     1       3.953   6.883  31.625  1.00  0.00     0.274 HD
ENDBRANCH  29  30
ENDBRANCH  28  29
ENDBRANCH  27  28
ENDBRANCH  26  27
ENDBRANCH   1  26
BRANCH   1  34
HETATM   34  N5  UNL     1       8.979   5.511  27.283  1.00  0.00    -0.350 N 
HETATM   35  C20 UNL     1       9.959   4.638  27.794  1.00  0.00     0.241 C 
HETATM   36  O4  UNL     1      10.966   5.108  28.352  1.00  0.00    -0.271 OA
ATOM     37  H5  UNL     1       8.165   5.085  26.841  1.00  0.00     0.163 HD
BRANCH  35  38
HETATM   38  C21 UNL     1       9.842   3.160  27.694  1.00  0.00     0.180 C 
BRANCH  38  39
HETATM   39  N6  UNL     1      10.359   2.650  26.447  1.00  0.00    -0.342 N 
HETATM   40  C22 UNL     1       9.819   2.904  25.187  1.00  0.00     0.290 C 
HETATM   41  O5  UNL     1       8.812   3.640  25.077  1.00  0.00    -0.267 OA
ATOM     42  H6  UNL     1      11.186   2.055  26.491  1.00  0.00     0.163 HD
BRANCH  40  43
HETATM   43  C23 UNL     1      10.417   2.317  23.975  1.00  0.00     0.318 C 
HETATM   44  C24 UNL     1      10.282   0.819  23.985  1.00  0.00     0.101 C 
HETATM   45  F1  UNL     1      11.763   2.625  23.855  1.00  0.00    -0.196 F 
HETATM   46  F2  UNL     1       9.816   2.779  22.818  1.00  0.00    -0.196 F 
ENDBRANCH  40  43
ENDBRANCH  38  39
BRANCH  38  47
HETATM   47  C25 UNL     1       8.406   2.710  27.825  1.00  0.00     0.018 C 
HETATM   48  C26 UNL     1       7.736   3.311  29.033  1.00  0.00     0.007 C 
HETATM   49  C27 UNL     1       6.273   2.847  28.944  1.00  0.00     0.000 C 
HETATM   50  C28 UNL     1       6.284   1.393  29.409  1.00  0.00     0.000 C 
HETATM   51  C29 UNL     1       7.631   0.766  29.215  1.00  0.00     0.000 C 
HETATM   52  C30 UNL     1       8.309   1.203  27.944  1.00  0.00     0.007 C 
ENDBRANCH  38  47
ENDBRANCH  35  38
ENDBRANCH   1  34
TORSDOF 20
ENDMDL
MODEL 2
REMARK VINA RESULT: -7.798885852      2.303      3.068
REMARK  20 active torsions:
REMARK  status: ('A' for Active; 'I' for Inactive)
REMARK    1  A    between atoms: C2_2  and  C3_3 
REMARK    2  A    between atoms: C3_3  and  C4_4 
REMARK    3  A    between atoms: C4_4  and  C5_5 
REMARK    4  A    between atoms: C5_5  and  C6_6 
REMARK    5  A    between atoms: C5_5  and  N2_11 
REMARK    6  A    between atoms: C6_6  and  N1_7 
REMARK       I    between atoms: N2_11  and  C8_13 
REMARK    7  A    between atoms: C8_13  and  C9_15 
REMARK    8  A    between atoms: N3_21  and  C14_22 
REMARK    9  A    between atoms: C14_22  and  O3_23 
REMARK   10  A    between atoms: C14_22  and  C15_25 
REMARK   11  A    between atoms: C15_25  and  C16_26 
REMARK   12  A    between atoms: C15_25  and  N5_34 
REMARK   13  A    between atoms: C16_26  and  C17_27 
REMARK   14  A    between atoms: C17_27  and  C18_28 
REMARK   15  A    between atoms: C18_28  and  C19_29 
REMARK   16  A    between atoms: C19_29  and  N4_30 
REMARK       I    between atoms: N5_34  and  C20_36 
REMARK   17  A    between atoms: C20_36  and  C21_38 
REMARK   18  A    between atoms: C21_38  and  N6_39 
REMARK   19  A    between atoms: C21_38  and  C25_47 
REMARK       I    between atoms: N6_39  and  C22_41 
REMARK   20  A    between atoms: C22_41  and  C23_43 
ROOT
HETATM    1  C15 UNL     1       9.204   6.541  28.029  1.00  0.00     0.143 C 
ENDROOT
BRANCH   1   2
HETATM    2  C14 UNL     1       8.833   7.275  26.807  1.00  0.00     0.381 C 
BRANCH   2   3
HETATM    3  N3  UNL     1       9.763   7.410  25.757  1.00  0.00     0.142 N 
HETATM    4  C9  UNL     1      11.144   7.323  26.061  1.00  0.00     0.320 C 
HETATM    5  C10 UNL     1      11.548   5.884  25.831  1.00  0.00     0.080 C 
HETATM    6  C11 UNL     1      10.639   5.460  24.710  1.00  0.00     0.159 C 
HETATM    7  O2  UNL     1      10.927   5.984  23.466  1.00  0.00    -0.381 OA
HETATM    8  C13 UNL     1       9.460   6.374  24.783  1.00  0.00     0.279 C 
HETATM    9  C12 UNL     1       9.716   6.668  23.354  1.00  0.00     0.207 C 
BRANCH   4  10
HETATM   10  C8  UNL     1      11.995   8.295  25.366  1.00  0.00     0.252 C 
HETATM   11  N2  UNL     1      13.337   8.579  25.766  1.00  0.00    -0.353 N 
ATOM     12  H2  UNL     1      13.710   8.080  26.575  1.00  0.00     0.163 HD
HETATM   13  O1  UNL     1      11.575   8.932  24.371  1.00  0.00    -0.271 OA
BRANCH  11  14
HETATM   14  C5  UNL     1      14.192   9.518  25.104  1.00  0.00     0.110 C 
BRANCH  14  15
HETATM   15  C4  UNL     1      14.391  10.817  25.803  1.00  0.00     0.027 C 
BRANCH  15  16
HETATM   16  C3  UNL     1      15.072  10.673  27.142  1.00  0.00     0.002 C 
BRANCH  16  17
HETATM   17  C2  UNL     1      15.548  12.003  27.673  1.00  0.00    -0.004 C 
HETATM   18  C1  UNL     1      15.172  12.099  29.125  1.00  0.00     0.005 C 
ENDBRANCH  16  17
ENDBRANCH  15  16
ENDBRANCH  14  15
BRANCH  14  19
HETATM   19  C6  UNL     1      15.532   8.819  24.808  1.00  0.00     0.256 C 
BRANCH  19  20
HETATM   20  N1  UNL     1      16.023   9.103  23.494  1.00  0.00    -0.077 N 
HETATM   21  C7  UNL     1      14.969   9.596  22.620  1.00  0.00     0.267 C 
ATOM     22  H12 UNL     1      16.813   9.747  23.523  1.00  0.00     0.276 HD
ATOM     23  H11 UNL     1      16.493   8.294  23.089  1.00  0.00     0.276 HD
ENDBRANCH  19  20
ENDBRANCH  14  19
ENDBRANCH  11  14
ENDBRANCH   4  10
ENDBRANCH   2   3
BRANCH   2  24
HETATM   24  O3  UNL     1       7.672   6.653  26.287  1.00  0.00    -0.366 OA
ATOM     25  H3  UNL     1       7.894   5.756  26.065  1.00  0.00     0.212 HD
ENDBRANCH   2  24
ENDBRANCH   1   2
BRANCH   1  26
HETATM   26  C16 UNL     1       9.361   7.387  29.256  1.00  0.00     0.030 C 
BRANCH  26  27
HETATM   27  C17 UNL     1       8.142   7.579  30.083  1.00  0.00     0.004 C 
BRANCH  27  28
HETATM   28  C18 UNL     1       7.787   9.070  29.974  1.00  0.00     0.027 C 
BRANCH  28  29
HETATM   29  C19 UNL     1       6.434   9.259  29.324  1.00  0.00     0.229 C 
BRANCH  29  30
HETATM   30  N4  UNL     1       5.659  10.089  30.249  1.00  0.00    -0.079 N 
ATOM     31  H43 UNL     1       5.413   9.613  31.117  1.00  0.00     0.274 HD
ATOM     32  H42 UNL     1       6.200  10.843  30.672  1.00  0.00     0.274 HD
ATOM     33  H41 UNL     1       4.849  10.415  29.720  1.00  0.00     0.274 HD
ENDBRANCH  29  30
ENDBRANCH  28  29
ENDBRANCH  27  28
ENDBRANCH  26  27
ENDBRANCH   1  26
BRANCH   1  34
HETATM   34  N5  UNL     1       8.218   5.481  28.195  1.00  0.00    -0.350 N 
HETATM   35  C20 UNL     1       8.478   4.098  28.149  1.00  0.00     0.241 C 
HETATM   36  O4  UNL     1       9.640   3.699  27.962  1.00  0.00    -0.271 OA
ATOM     37  H5  UNL     1       7.253   5.767  28.358  1.00  0.00     0.163 HD
BRANCH  35  38
HETATM   38  C21 UNL     1       7.408   3.079  28.315  1.00  0.00     0.180 C 
BRANCH  38  39
HETATM   39  N6  UNL     1       6.114   3.568  27.907  1.00  0.00    -0.342 N 
HETATM   40  C22 UNL     1       5.774   3.971  26.616  1.00  0.00     0.290 C 
HETATM   41  O5  UNL     1       6.625   3.909  25.700  1.00  0.00    -0.267 OA
ATOM     42  H6  UNL     1       5.388   3.624  28.621  1.00  0.00     0.163 HD
BRANCH  40  43
HETATM   43  C23 UNL     1       4.422   4.472  26.310  1.00  0.00     0.318 C 
HETATM   44  C24 UNL     1       3.376   3.477  26.734  1.00  0.00     0.101 C 
HETATM   45  F1  UNL     1       4.252   4.723  24.958  1.00  0.00    -0.196 F 
HETATM   46  F2  UNL     1       4.147   5.663  26.957  1.00  0.00    -0.196 F 
ENDBRANCH  40  43
ENDBRANCH  38  39
BRANCH  38  47
HETATM   47  C25 UNL     1       7.304   2.617  29.749  1.00  0.00     0.018 C 
HETATM   48  C26 UNL     1       6.643   1.268  29.860  1.00  0.00     0.007 C 
HETATM   49  C27 UNL     1       6.727   0.909  31.352  1.00  0.00     0.000 C 
HETATM   50  C28 UNL     1       5.636   1.737  32.027  1.00  0.00     0.000 C 
HETATM   51  C29 UNL     1       5.301   2.958  31.226  1.00  0.00     0.000 C 
HETATM   52  C30 UNL     1       6.506   3.595  30.587  1.00  0.00     0.007 C 
ENDBRANCH  38  47
ENDBRANCH  35  38
ENDBRANCH   1  34
TORSDOF 20
ENDMDL
MODEL 3
REMARK VINA RESULT: -7.767398659      2.831      8.806
REMARK  20 active torsions:
REMARK  status: ('A' for Active; 'I' for Inactive)
REMARK    1  A    between atoms: C2_2  and  C3_3 
REMARK    2  A    between atoms: C3_3  and  C4_4 
REMARK    3  A    between atoms: C4_4  and  C5_5 
REMARK    4  A    between atoms: C5_5  and  C6_6 
REMARK    5  A    between atoms: C5_5  and  N2_11 
REMARK    6  A    between atoms: C6_6  and  N1_7 
REMARK       I    between atoms: N2_11  and  C8_13 
REMARK    7  A    between atoms: C8_13  and  C9_15 
REMARK    8  A    between atoms: N3_21  and  C14_22 
REMARK    9  A    between atoms: C14_22  and  O3_23 
REMARK   10  A    between atoms: C14_22  and  C15_25 
REMARK   11  A    between atoms: C15_25  and  C16_26 
REMARK   12  A    between atoms: C15_25  and  N5_34 
REMARK   13  A    between atoms: C16_26  and  C17_27 
REMARK   14  A    between atoms: C17_27  and  C18_28 
REMARK   15  A    between atoms: C18_28  and  C19_29 
REMARK   16  A    between atoms: C19_29  and  N4_30 
REMARK       I    between atoms: N5_34  and  C20_36 
REMARK   17  A    between atoms: C20_36  and  C21_38 
REMARK   18  A    between atoms: C21_38  and  N6_39 
REMARK   19  A    between atoms: C21_38  and  C25_47 
REMARK       I    between atoms: N6_39  and  C22_41 
REMARK   20  A    between atoms: C22_41  and  C23_43 
ROOT
HETATM    1  C15 UNL     1      10.104   6.798  27.822  1.00  0.00     0.143 C 
ENDROOT
BRANCH   1   2
HETATM    2  C14 UNL     1      10.451   5.391  28.081  1.00  0.00     0.381 C 
BRANCH   2   3
HETATM    3  N3  UNL     1       9.462   4.391  27.979  1.00  0.00     0.142 N 
HETATM    4  C9  UNL     1       8.147   4.775  27.621  1.00  0.00     0.320 C 
HETATM    5  C10 UNL     1       8.040   4.609  26.122  1.00  0.00     0.080 C 
HETATM    6  C11 UNL     1       8.962   3.452  25.851  1.00  0.00     0.159 C 
HETATM    7  O2  UNL     1       8.509   2.211  26.255  1.00  0.00    -0.381 OA
HETATM    8  C13 UNL     1       9.926   3.432  26.990  1.00  0.00     0.279 C 
HETATM    9  C12 UNL     1       9.544   2.012  27.169  1.00  0.00     0.207 C 
BRANCH   4  10
HETATM   10  C8  UNL     1       7.079   4.103  28.368  1.00  0.00     0.252 C 
HETATM   11  N2  UNL     1       7.298   3.452  29.621  1.00  0.00    -0.353 N 
ATOM     12  H2  UNL     1       8.244   3.456  30.003  1.00  0.00     0.163 HD
HETATM   13  O1  UNL     1       5.904   4.070  27.934  1.00  0.00    -0.271 OA
BRANCH  11  14
HETATM   14  C5  UNL     1       6.273   2.792  30.375  1.00  0.00     0.110 C 
BRANCH  14  15
HETATM   15  C4  UNL     1       6.668   1.511  31.021  1.00  0.00     0.027 C 
BRANCH  15  16
HETATM   16  C3  UNL     1       5.942   1.249  32.317  1.00  0.00     0.002 C 
BRANCH  16  17
HETATM   17  C2  UNL     1       6.630   0.188  33.140  1.00  0.00    -0.004 C 
HETATM   18  C1  UNL     1       7.056  -0.925  32.224  1.00  0.00     0.005 C 
ENDBRANCH  16  17
ENDBRANCH  15  16
ENDBRANCH  14  15
BRANCH  14  19
HETATM   19  C6  UNL     1       5.712   3.797  31.399  1.00  0.00     0.256 C 
BRANCH  19  20
HETATM   20  N1  UNL     1       4.621   4.563  30.877  1.00  0.00    -0.077 N 
HETATM   21  C7  UNL     1       4.801   5.987  31.119  1.00  0.00     0.267 C 
ATOM     22  H12 UNL     1       4.471   4.370  29.888  1.00  0.00     0.276 HD
ATOM     23  H11 UNL     1       3.728   4.234  31.242  1.00  0.00     0.276 HD
ENDBRANCH  19  20
ENDBRANCH  14  19
ENDBRANCH  11  14
ENDBRANCH   4  10
ENDBRANCH   2   3
BRANCH   2  24
HETATM   24  O3  UNL     1      11.505   5.056  27.197  1.00  0.00    -0.366 OA
ATOM     25  H3  UNL     1      11.162   4.457  26.544  1.00  0.00     0.212 HD
ENDBRANCH   2  24
ENDBRANCH   1   2
BRANCH   1  26
HETATM   26  C16 UNL     1      10.144   7.694  29.023  1.00  0.00     0.030 C 
BRANCH  26  27
HETATM   27  C17 UNL     1       8.933   7.697  29.882  1.00  0.00     0.004 C 
BRANCH  27  28
HETATM   28  C18 UNL     1       7.788   8.216  28.998  1.00  0.00     0.027 C 
BRANCH  28  29
HETATM   29  C19 UNL     1       6.782   8.996  29.815  1.00  0.00     0.229 C 
BRANCH  29  30
HETATM   30  N4  UNL     1       7.502  10.167  30.324  1.00  0.00    -0.079 N 
ATOM     31  H43 UNL     1       8.308  10.428  29.756  1.00  0.00     0.274 HD
ATOM     32  H42 UNL     1       6.988  11.041  30.216  1.00  0.00     0.274 HD
ATOM     33  H41 UNL     1       7.739   9.949  31.292  1.00  0.00     0.274 HD
ENDBRANCH  29  30
ENDBRANCH  28  29
ENDBRANCH  27  28
ENDBRANCH  26  27
ENDBRANCH   1  26
BRANCH   1  34
HETATM   34  N5  UNL     1      10.976   7.253  26.747  1.00  0.00    -0.350 N 
HETATM   35  C20 UNL     1      10.566   7.917  25.576  1.00  0.00     0.241 C 
HETATM   36  O4  UNL     1       9.361   8.169  25.405  1.00  0.00    -0.271 OA
ATOM     37  H5  UNL     1      11.975   7.073  26.853  1.00  0.00     0.163 HD
BRANCH  35  38
HETATM   38  C21 UNL     1      11.523   8.336  24.518  1.00  0.00     0.180 C 
BRANCH  38  39
HETATM   39  N6  UNL     1      12.527   9.247  25.014  1.00  0.00    -0.342 N 
HETATM   40  C22 UNL     1      13.748   8.873  25.574  1.00  0.00     0.290 C 
HETATM   41  O5  UNL     1      14.048   7.661  25.664  1.00  0.00    -0.267 OA
ATOM     42  H6  UNL     1      12.327  10.244  24.949  1.00  0.00     0.163 HD
BRANCH  40  43
HETATM   43  C23 UNL     1      14.697   9.887  26.065  1.00  0.00     0.318 C 
HETATM   44  C24 UNL     1      14.151  11.274  25.860  1.00  0.00     0.101 C 
HETATM   45  F1  UNL     1      15.922   9.810  25.423  1.00  0.00    -0.196 F 
HETATM   46  F2  UNL     1      14.965   9.744  27.414  1.00  0.00    -0.196 F 
ENDBRANCH  40  43
ENDBRANCH  38  39
BRANCH  38  47
HETATM   47  C25 UNL     1      10.813   9.005  23.365  1.00  0.00     0.018 C 
HETATM   48  C26 UNL     1      10.711   8.099  22.165  1.00  0.00     0.007 C 
HETATM   49  C27 UNL     1       9.871   8.885  21.146  1.00  0.00     0.000 C 
HETATM   50  C28 UNL     1      10.824   9.919  20.553  1.00  0.00     0.000 C 
HETATM   51  C29 UNL     1      11.954  10.226  21.489  1.00  0.00     0.000 C 
HETATM   52  C30 UNL     1      11.530  10.267  22.932  1.00  0.00     0.007 C 
ENDBRANCH  38  47
ENDBRANCH  35  38
ENDBRANCH   1  34
TORSDOF 20
ENDMDL
MODEL 4
REMARK VINA RESULT: -7.492497126      3.731      9.320
REMARK  20 active torsions:
REMARK  status: ('A' for Active; 'I' for Inactive)
REMARK    1  A    between atoms: C2_2  and  C3_3 
REMARK    2  A    between atoms: C3_3  and  C4_4 
REMARK    3  A    between atoms: C4_4  and  C5_5 
REMARK    4  A    between atoms: C5_5  and  C6_6 
REMARK    5  A    between atoms: C5_5  and  N2_11 
REMARK    6  A    between atoms: C6_6  and  N1_7 
REMARK       I    between atoms: N2_11  and  C8_13 
REMARK    7  A    between atoms: C8_13  and  C9_15 
REMARK    8  A    between atoms: N3_21  and  C14_22 
REMARK    9  A    between atoms: C14_22  and  O3_23 
REMARK   10  A    between atoms: C14_22  and  C15_25 
REMARK   11  A    between atoms: C15_25  and  C16_26 
REMARK   12  A    between atoms: C15_25  and  N5_34 
REMARK   13  A    between atoms: C16_26  and  C17_27 
REMARK   14  A    between atoms: C17_27  and  C18_28 
REMARK   15  A    between atoms: C18_28  and  C19_29 
REMARK   16  A    between atoms: C19_29  and  N4_30 
REMARK       I    between atoms: N5_34  and  C20_36 
REMARK   17  A    between atoms: C20_36  and  C21_38 
REMARK   18  A    between atoms: C21_38  and  N6_39 
REMARK   19  A    between atoms: C21_38  and  C25_47 
REMARK       I    between atoms: N6_39  and  C22_41 
REMARK   20  A    between atoms: C22_41  and  C23_43 
ROOT
HETATM    1  C15 UNL     1      10.674   4.900  23.688  1.00  0.00     0.143 C 
ENDROOT
BRANCH   1   2
HETATM    2  C14 UNL     1      10.770   5.192  25.128  1.00  0.00     0.381 C 
BRANCH   2   3
HETATM    3  N3  UNL     1       9.749   4.767  26.003  1.00  0.00     0.142 N 
HETATM    4  C9  UNL     1      10.080   3.859  27.038  1.00  0.00     0.320 C 
HETATM    5  C10 UNL     1      10.370   4.691  28.267  1.00  0.00     0.080 C 
HETATM    6  C11 UNL     1       9.457   5.873  28.089  1.00  0.00     0.159 C 
HETATM    7  O2  UNL     1       8.111   5.633  28.284  1.00  0.00    -0.381 OA
HETATM    8  C13 UNL     1       9.194   5.959  26.622  1.00  0.00     0.279 C 
HETATM    9  C12 UNL     1       7.755   5.953  26.973  1.00  0.00     0.207 C 
BRANCH   4  10
HETATM   10  C8  UNL     1       9.100   2.791  27.264  1.00  0.00     0.252 C 
HETATM   11  N2  UNL     1       8.394   2.632  28.496  1.00  0.00    -0.353 N 
ATOM     12  H2  UNL     1       8.590   3.293  29.248  1.00  0.00     0.163 HD
HETATM   13  O1  UNL     1       8.831   1.956  26.369  1.00  0.00    -0.271 OA
BRANCH  11  14
HETATM   14  C5  UNL     1       7.428   1.603  28.743  1.00  0.00     0.110 C 
BRANCH  14  15
HETATM   15  C4  UNL     1       7.838   0.550  29.712  1.00  0.00     0.027 C 
BRANCH  15  16
HETATM   16  C3  UNL     1       6.683  -0.008  30.507  1.00  0.00     0.002 C 
BRANCH  16  17
HETATM   17  C2  UNL     1       7.128  -0.522  31.854  1.00  0.00    -0.004 C 
HETATM   18  C1  UNL     1       6.471   0.306  32.921  1.00  0.00     0.005 C 
ENDBRANCH  16  17
ENDBRANCH  15  16
ENDBRANCH  14  15
BRANCH  14  19
HETATM   19  C6  UNL     1       6.107   2.276  29.158  1.00  0.00     0.256 C 
BRANCH  19  20
HETATM   20  N1  UNL     1       6.300   3.594  29.680  1.00  0.00    -0.077 N 
HETATM   21  C7  UNL     1       6.111   3.634  31.123  1.00  0.00     0.267 C 
ATOM     22  H12 UNL     1       7.210   3.970  29.415  1.00  0.00     0.276 HD
ATOM     23  H11 UNL     1       5.704   4.273  29.208  1.00  0.00     0.276 HD
ENDBRANCH  19  20
ENDBRANCH  14  19
ENDBRANCH  11  14
ENDBRANCH   4  10
ENDBRANCH   2   3
BRANCH   2  24
HETATM   24  O3  UNL     1      11.992   4.641  25.582  1.00  0.00    -0.366 OA
ATOM     25  H3  UNL     1      12.054   4.792  26.518  1.00  0.00     0.212 HD
ENDBRANCH   2  24
ENDBRANCH   1   2
BRANCH   1  26
HETATM   26  C16 UNL     1      10.265   3.499  23.349  1.00  0.00     0.030 C 
BRANCH  26  27
HETATM   27  C17 UNL     1      11.330   2.467  23.425  1.00  0.00     0.004 C 
BRANCH  27  28
HETATM   28  C18 UNL     1      10.910   1.354  22.451  1.00  0.00     0.027 C 
BRANCH  28  29
HETATM   29  C19 UNL     1      12.035   1.016  21.498  1.00  0.00     0.229 C 
BRANCH  29  30
HETATM   30  N4  UNL     1      11.889  -0.410  21.196  1.00  0.00    -0.079 N 
ATOM     31  H43 UNL     1      12.777  -0.888  21.043  1.00  0.00     0.274 HD
ATOM     32  H42 UNL     1      11.587  -0.967  21.996  1.00  0.00     0.274 HD
ATOM     33  H41 UNL     1      11.255  -0.463  20.399  1.00  0.00     0.274 HD
ENDBRANCH  29  30
ENDBRANCH  28  29
ENDBRANCH  27  28
ENDBRANCH  26  27
ENDBRANCH   1  26
BRANCH   1  34
HETATM   34  N5  UNL     1       9.784   5.903  23.118  1.00  0.00    -0.350 N 
HETATM   35  C20 UNL     1      10.138   7.223  22.776  1.00  0.00     0.241 C 
HETATM   36  O4  UNL     1      11.306   7.608  22.951  1.00  0.00    -0.271 OA
ATOM     37  H5  UNL     1       8.817   5.625  22.951  1.00  0.00     0.163 HD
BRANCH  35  38
HETATM   38  C21 UNL     1       9.162   8.190  22.210  1.00  0.00     0.180 C 
BRANCH  38  39
HETATM   39  N6  UNL     1       7.889   7.579  21.912  1.00  0.00    -0.342 N 
HETATM   40  C22 UNL     1       6.738   7.695  22.690  1.00  0.00     0.290 C 
HETATM   41  O5  UNL     1       6.757   8.387  23.733  1.00  0.00    -0.267 OA
ATOM     42  H6  UNL     1       7.827   7.015  21.065  1.00  0.00     0.163 HD
BRANCH  40  43
HETATM   43  C23 UNL     1       5.490   7.013  22.302  1.00  0.00     0.318 C 
HETATM   44  C24 UNL     1       5.395   6.884  20.806  1.00  0.00     0.101 C 
HETATM   45  F1  UNL     1       4.366   7.690  22.746  1.00  0.00    -0.196 F 
HETATM   46  F2  UNL     1       5.403   5.739  22.833  1.00  0.00    -0.196 F 
ENDBRANCH  40  43
ENDBRANCH  38  39
BRANCH  38  47
HETATM   47  C25 UNL     1       9.685   8.823  20.942  1.00  0.00     0.018 C 
HETATM   48  C26 UNL     1       8.800   9.946  20.467  1.00  0.00     0.007 C 
HETATM   49  C27 UNL     1       9.534  10.541  19.254  1.00  0.00     0.000 C 
HETATM   50  C28 UNL     1       9.275   9.566  18.109  1.00  0.00     0.000 C 
HETATM   51  C29 UNL     1       8.968   8.191  18.619  1.00  0.00     0.000 C 
HETATM   52  C30 UNL     1       9.789   7.809  19.821  1.00  0.00     0.007 C 
ENDBRANCH  38  47
ENDBRANCH  35  38
ENDBRANCH   1  34
TORSDOF 20
ENDMDL
MODEL 5
REMARK VINA RESULT: -7.453463589      2.932      5.411
REMARK  20 active torsions:
REMARK  status: ('A' for Active; 'I' for Inactive)
REMARK    1  A    between atoms: C2_2  and  C3_3 
REMARK    2  A    between atoms: C3_3  and  C4_4 
REMARK    3  A    between atoms: C4_4  and  C5_5 
REMARK    4  A    between atoms: C5_5  and  C6_6 
REMARK    5  A    between atoms: C5_5  and  N2_11 
REMARK    6  A    between atoms: C6_6  and  N1_7 
REMARK       I    between atoms: N2_11  and  C8_13 
REMARK    7  A    between atoms: C8_13  and  C9_15 
REMARK    8  A    between atoms: N3_21  and  C14_22 
REMARK    9  A    between atoms: C14_22  and  O3_23 
REMARK   10  A    between atoms: C14_22  and  C15_25 
REMARK   11  A    between atoms: C15_25  and  C16_26 
REMARK   12  A    between atoms: C15_25  and  N5_34 
REMARK   13  A    between atoms: C16_26  and  C17_27 
REMARK   14  A    between atoms: C17_27  and  C18_28 
REMARK   15  A    between atoms: C18_28  and  C19_29 
REMARK   16  A    between atoms: C19_29  and  N4_30 
REMARK       I    between atoms: N5_34  and  C20_36 
REMARK   17  A    between atoms: C20_36  and  C21_38 
REMARK   18  A    between atoms: C21_38  and  N6_39 
REMARK   19  A    between atoms: C21_38  and  C25_47 
REMARK       I    between atoms: N6_39  and  C22_41 
REMARK   20  A    between atoms: C22_41  and  C23_43 
ROOT
HETATM    1  C15 UNL     1       9.618   4.169  24.969  1.00  0.00     0.143 C 
ENDROOT
BRANCH   1   2
HETATM    2  C14 UNL     1      10.736   4.564  25.842  1.00  0.00     0.381 C 
BRANCH   2   3
HETATM    3  N3  UNL     1      10.942   5.924  26.151  1.00  0.00     0.142 N 
HETATM    4  C9  UNL     1      10.654   6.893  25.160  1.00  0.00     0.320 C 
HETATM    5  C10 UNL     1       9.238   7.362  25.410  1.00  0.00     0.080 C 
HETATM    6  C11 UNL     1       9.110   7.243  26.904  1.00  0.00     0.159 C 
HETATM    7  O2  UNL     1       9.800   8.182  27.647  1.00  0.00    -0.381 OA
HETATM    8  C13 UNL     1      10.122   6.226  27.314  1.00  0.00     0.279 C 
HETATM    9  C12 UNL     1      10.622   7.241  28.269  1.00  0.00     0.207 C 
BRANCH   4  10
HETATM   10  C8  UNL     1      11.629   7.985  25.057  1.00  0.00     0.252 C 
HETATM   11  N2  UNL     1      12.918   7.935  25.670  1.00  0.00    -0.353 N 
ATOM     12  H2  UNL     1      13.161   7.101  26.206  1.00  0.00     0.163 HD
HETATM   13  O1  UNL     1      11.370   9.028  24.412  1.00  0.00    -0.271 OA
BRANCH  11  14
HETATM   14  C5  UNL     1      13.892   8.983  25.582  1.00  0.00     0.110 C 
BRANCH  14  15
HETATM   15  C4  UNL     1      14.046   9.827  26.798  1.00  0.00     0.027 C 
BRANCH  15  16
HETATM   16  C3  UNL     1      14.428  11.253  26.487  1.00  0.00     0.002 C 
BRANCH  16  17
HETATM   17  C2  UNL     1      15.224  11.876  27.608  1.00  0.00    -0.004 C 
HETATM   18  C1  UNL     1      15.600  10.797  28.583  1.00  0.00     0.005 C 
ENDBRANCH  16  17
ENDBRANCH  15  16
ENDBRANCH  14  15
BRANCH  14  19
HETATM   19  C6  UNL     1      15.231   8.356  25.150  1.00  0.00     0.256 C 
BRANCH  19  20
HETATM   20  N1  UNL     1      15.848   9.065  24.071  1.00  0.00    -0.077 N 
HETATM   21  C7  UNL     1      14.872   9.490  23.078  1.00  0.00     0.267 C 
ATOM     22  H12 UNL     1      16.399   9.852  24.410  1.00  0.00     0.276 HD
ATOM     23  H11 UNL     1      16.596   8.518  23.646  1.00  0.00     0.276 HD
ENDBRANCH  19  20
ENDBRANCH  14  19
ENDBRANCH  11  14
ENDBRANCH   4  10
ENDBRANCH   2   3
BRANCH   2  24
HETATM   24  O3  UNL     1      10.582   3.857  27.059  1.00  0.00    -0.366 OA
ATOM     25  H3  UNL     1      10.787   2.944  26.897  1.00  0.00     0.212 HD
ENDBRANCH   2  24
ENDBRANCH   1   2
BRANCH   1  26
HETATM   26  C16 UNL     1      10.001   3.339  23.782  1.00  0.00     0.030 C 
BRANCH  26  27
HETATM   27  C17 UNL     1      10.952   2.227  24.035  1.00  0.00     0.004 C 
BRANCH  27  28
HETATM   28  C18 UNL     1      11.634   1.939  22.688  1.00  0.00     0.027 C 
BRANCH  28  29
HETATM   29  C19 UNL     1      10.845   0.927  21.887  1.00  0.00     0.229 C 
BRANCH  29  30
HETATM   30  N4  UNL     1      11.837   0.137  21.154  1.00  0.00    -0.079 N 
ATOM     31  H43 UNL     1      12.598  -0.208  21.739  1.00  0.00     0.274 HD
ATOM     32  H42 UNL     1      11.491  -0.775  20.853  1.00  0.00     0.274 HD
ATOM     33  H41 UNL     1      12.151   0.729  20.384  1.00  0.00     0.274 HD
ENDBRANCH  29  30
ENDBRANCH  28  29
ENDBRANCH  27  28
ENDBRANCH  26  27
ENDBRANCH   1  26
BRANCH   1  34
HETATM   34  N5  UNL     1       8.634   3.515  25.823  1.00  0.00    -0.350 N 
HETATM   35  C20 UNL     1       7.278   3.874  25.944  1.00  0.00     0.241 C 
HETATM   36  O4  UNL     1       6.833   4.821  25.274  1.00  0.00    -0.271 OA
ATOM     37  H5  UNL     1       8.957   2.726  26.383  1.00  0.00     0.163 HD
BRANCH  35  38
HETATM   38  C21 UNL     1       6.341   3.160  26.851  1.00  0.00     0.180 C 
BRANCH  38  39
HETATM   39  N6  UNL     1       5.273   4.010  27.319  1.00  0.00    -0.342 N 
HETATM   40  C22 UNL     1       3.919   3.679  27.315  1.00  0.00     0.290 C 
HETATM   41  O5  UNL     1       3.551   2.560  26.890  1.00  0.00    -0.267 OA
ATOM     42  H6  UNL     1       5.529   4.927  27.683  1.00  0.00     0.163 HD
BRANCH  40  43
HETATM   43  C23 UNL     1       2.905   4.631  27.803  1.00  0.00     0.318 C 
HETATM   44  C24 UNL     1       3.142   4.968  29.250  1.00  0.00     0.101 C 
HETATM   45  F1  UNL     1       1.619   4.130  27.685  1.00  0.00    -0.196 F 
HETATM   46  F2  UNL     1       2.918   5.819  27.094  1.00  0.00    -0.196 F 
ENDBRANCH  40  43
ENDBRANCH  38  39
BRANCH  38  47
HETATM   47  C25 UNL     1       7.059   2.602  28.057  1.00  0.00     0.018 C 
HETATM   48  C26 UNL     1       6.469   1.290  28.506  1.00  0.00     0.007 C 
HETATM   49  C27 UNL     1       7.381   0.818  29.650  1.00  0.00     0.000 C 
HETATM   50  C28 UNL     1       6.977   1.658  30.858  1.00  0.00     0.000 C 
HETATM   51  C29 UNL     1       6.348   2.953  30.441  1.00  0.00     0.000 C 
HETATM   52  C30 UNL     1       6.999   3.562  29.228  1.00  0.00     0.007 C 
ENDBRANCH  38  47
ENDBRANCH  35  38
ENDBRANCH   1  34
TORSDOF 20
ENDMDL
