MODEL 1
REMARK VINA RESULT: -6.724458291      0.000      0.000
REMARK  24 active torsions:
REMARK  status: ('A' for Active; 'I' for Inactive)
REMARK    1  A    between atoms: N1_1  and  C1_5 
REMARK    2  A    between atoms: C1_5  and  C2_6 
REMARK    3  A    between atoms: C2_6  and  O1_7 
REMARK    4  A    between atoms: O1_7  and  C3_8 
REMARK    5  A    between atoms: C3_8  and  C4_9 
REMARK    6  A    between atoms: C4_9  and  O2_10 
REMARK    7  A    between atoms: O2_10  and  C5_11 
REMARK    8  A    between atoms: C5_11  and  C6_12 
REMARK    9  A    between atoms: C6_12  and  O3_13 
REMARK   10  A    between atoms: O3_13  and  C7_14 
REMARK   11  A    between atoms: C7_14  and  C8_15 
REMARK   12  A    between atoms: C8_15  and  N2_16 
REMARK   13  A    between atoms: N2_16  and  C9_18 
REMARK   14  A    between atoms: C9_18  and  O4_19 
REMARK   15  A    between atoms: C9_18  and  N3_21 
REMARK   16  A    between atoms: N3_21  and  C10_22 
REMARK   17  A    between atoms: C13_28  and  N5_29 
REMARK   18  A    between atoms: N5_29  and  C14_31 
REMARK   19  A    between atoms: C14_31  and  C15_32 
REMARK   20  A    between atoms: C15_32  and  N6_33 
REMARK   21  A    between atoms: N6_33  and  S1_35 
REMARK   22  A    between atoms: S1_35  and  C16_37 
REMARK   23  A    between atoms: S1_35  and  C17_40 
REMARK   24  A    between atoms: C16_37  and  O6_38 
ROOT
HETATM    1  C10 UNL     1       9.154   7.682  25.009  1.00  0.00     0.265 A 
HETATM    2  N4  UNL     1       7.958   7.528  24.346  1.00  0.00    -0.310 N 
ATOM      3  H4  UNL     1       7.127   7.303  24.893  1.00  0.00     0.170 HD
HETATM    4  C11 UNL     1       7.832   7.658  23.031  1.00  0.00     0.086 A 
HETATM    5 BR1  UNL     1       6.114   7.429  22.219  1.00  0.00    -0.031 Br
HETATM    6  C12 UNL     1       8.908   7.960  22.250  1.00  0.00     0.086 A 
HETATM    7  C13 UNL     1      10.154   8.128  22.895  1.00  0.00     0.110 A 
HETATM    8  N7  UNL     1      10.199   7.984  24.187  1.00  0.00    -0.302 N 
ATOM      9  H7  UNL     1      11.109   8.110  24.631  1.00  0.00     0.171 HD
ENDROOT
BRANCH   1  10
HETATM   10  N3  UNL     1       9.253   7.541  26.176  1.00  0.00    -0.329 NA
BRANCH  10  11
HETATM   11  C9  UNL     1       9.403   7.452  27.455  1.00  0.00     0.297 C 
BRANCH  11  12
HETATM   12  N2  UNL     1      10.496   6.781  28.087  1.00  0.00    -0.343 N 
ATOM     13  H2  UNL     1      11.125   7.306  28.694  1.00  0.00     0.164 HD
BRANCH  12  14
HETATM   14  C8  UNL     1      10.720   5.384  27.880  1.00  0.00     0.150 C 
BRANCH  14  15
HETATM   15  C7  UNL     1       9.486   4.543  27.928  1.00  0.00     0.187 C 
BRANCH  15  16
HETATM   16  O3  UNL     1       9.249   3.897  26.697  1.00  0.00    -0.387 OA
BRANCH  16  17
HETATM   17  C6  UNL     1       9.576   2.527  26.914  1.00  0.00     0.193 C 
BRANCH  17  18
HETATM   18  C5  UNL     1       9.934   2.060  25.472  1.00  0.00     0.193 C 
BRANCH  18  19
HETATM   19  O2  UNL     1      10.899   2.928  25.056  1.00  0.00    -0.387 OA
BRANCH  19  20
HETATM   20  C4  UNL     1      11.425   2.772  23.809  1.00  0.00     0.193 C 
BRANCH  20  21
HETATM   21  C3  UNL     1      10.480   1.963  22.971  1.00  0.00     0.193 C 
BRANCH  21  22
HETATM   22  O1  UNL     1      11.014   0.903  22.290  1.00  0.00    -0.387 OA
BRANCH  22  23
HETATM   23  C2  UNL     1      12.187   1.257  21.608  1.00  0.00     0.195 C 
BRANCH  23  24
HETATM   24  C1  UNL     1      12.447   0.152  20.583  1.00  0.00     0.255 C 
BRANCH  24  25
HETATM   25  N1  UNL     1      12.108  -1.108  21.213  1.00  0.00    -0.077 N 
ATOM     26  H13 UNL     1      11.567  -0.993  22.069  1.00  0.00     0.274 HD
ATOM     27  H12 UNL     1      11.415  -1.642  20.690  1.00  0.00     0.274 HD
ATOM     28  H11 UNL     1      12.980  -1.618  21.356  1.00  0.00     0.274 HD
ENDBRANCH  24  25
ENDBRANCH  23  24
ENDBRANCH  22  23
ENDBRANCH  21  22
ENDBRANCH  20  21
ENDBRANCH  19  20
ENDBRANCH  18  19
ENDBRANCH  17  18
ENDBRANCH  16  17
ENDBRANCH  15  16
ENDBRANCH  14  15
ENDBRANCH  12  14
ENDBRANCH  11  12
BRANCH  11  29
HETATM   29  O4  UNL     1       8.513   8.000  28.257  1.00  0.00    -0.321 OA
ATOM     30  H4  UNL     1       8.797   8.770  28.736  1.00  0.00     0.222 HD
ENDBRANCH  11  29
ENDBRANCH  10  11
ENDBRANCH   1  10
BRANCH   7  31
HETATM   31  N5  UNL     1      11.167   8.414  22.186  1.00  0.00    -0.354 N 
ATOM     32  H5  UNL     1      11.646   7.617  21.767  1.00  0.00     0.166 HD
BRANCH  31  33
HETATM   33  C14 UNL     1      11.720   9.662  21.898  1.00  0.00     0.082 C 
BRANCH  33  34
HETATM   34  C15 UNL     1      11.979  10.563  23.113  1.00  0.00     0.173 C 
BRANCH  34  35
HETATM   35  N6  UNL     1      13.396  10.502  23.425  1.00  0.00    -0.341 N 
ATOM     36  H6  UNL     1      14.000  11.236  23.055  1.00  0.00     0.169 HD
BRANCH  35  37
HETATM   37  S1  UNL     1      14.137   9.232  24.406  1.00  0.00     0.077 S 
HETATM   38  O5  UNL     1      16.126   8.984  24.261  1.00  0.00    -0.243 OA
BRANCH  37  39
HETATM   39  C16 UNL     1      13.215   7.978  25.413  1.00  0.00     0.286 C 
BRANCH  39  40
HETATM   40  O6  UNL     1      12.268   8.620  26.260  1.00  0.00    -0.387 OA
ATOM     41  H6  UNL     1      12.390   8.347  27.161  1.00  0.00     0.210 HD
ENDBRANCH  39  40
ENDBRANCH  37  39
BRANCH  37  42
HETATM   42  C17 UNL     1      14.584  10.320  25.959  1.00  0.00     0.079 A 
HETATM   43  C18 UNL     1      14.116  11.599  26.107  1.00  0.00     0.025 A 
HETATM   44  C19 UNL     1      14.365  12.392  27.196  1.00  0.00     0.002 A 
HETATM   45  C20 UNL     1      15.121  11.903  28.209  1.00  0.00     0.003 A 
HETATM   46  C21 UNL     1      15.633  10.646  28.156  1.00  0.00     0.044 A 
HETATM   47  C22 UNL     1      15.347   9.899  27.034  1.00  0.00     0.136 A 
HETATM   48  F1  UNL     1      15.875   8.626  26.938  1.00  0.00    -0.205 F 
ENDBRANCH  37  42
ENDBRANCH  35  37
ENDBRANCH  34  35
ENDBRANCH  33  34
ENDBRANCH  31  33
ENDBRANCH   7  31
TORSDOF 24
ENDMDL
MODEL 2
REMARK VINA RESULT: -6.636951222      4.609      9.820
REMARK  24 active torsions:
REMARK  status: ('A' for Active; 'I' for Inactive)
REMARK    1  A    between atoms: N1_1  and  C1_5 
REMARK    2  A    between atoms: C1_5  and  C2_6 
REMARK    3  A    between atoms: C2_6  and  O1_7 
REMARK    4  A    between atoms: O1_7  and  C3_8 
REMARK    5  A    between atoms: C3_8  and  C4_9 
REMARK    6  A    between atoms: C4_9  and  O2_10 
REMARK    7  A    between atoms: O2_10  and  C5_11 
REMARK    8  A    between atoms: C5_11  and  C6_12 
REMARK    9  A    between atoms: C6_12  and  O3_13 
REMARK   10  A    between atoms: O3_13  and  C7_14 
REMARK   11  A    between atoms: C7_14  and  C8_15 
REMARK   12  A    between atoms: C8_15  and  N2_16 
REMARK   13  A    between atoms: N2_16  and  C9_18 
REMARK   14  A    between atoms: C9_18  and  O4_19 
REMARK   15  A    between atoms: C9_18  and  N3_21 
REMARK   16  A    between atoms: N3_21  and  C10_22 
REMARK   17  A    between atoms: C13_28  and  N5_29 
REMARK   18  A    between atoms: N5_29  and  C14_31 
REMARK   19  A    between atoms: C14_31  and  C15_32 
REMARK   20  A    between atoms: C15_32  and  N6_33 
REMARK   21  A    between atoms: N6_33  and  S1_35 
REMARK   22  A    between atoms: S1_35  and  C16_37 
REMARK   23  A    between atoms: S1_35  and  C17_40 
REMARK   24  A    between atoms: C16_37  and  O6_38 
ROOT
HETATM    1  C10 UNL     1      14.170   9.779  23.935  1.00  0.00     0.265 A 
HETATM    2  N4  UNL     1      14.724  10.532  24.944  1.00  0.00    -0.310 N 
ATOM      3  H4  UNL     1      15.427  11.230  24.698  1.00  0.00     0.170 HD
HETATM    4  C11 UNL     1      14.392  10.396  26.222  1.00  0.00     0.086 A 
HETATM    5 BR1  UNL     1      15.227  11.507  27.539  1.00  0.00    -0.031 Br
HETATM    6  C12 UNL     1      13.457   9.482  26.610  1.00  0.00     0.086 A 
HETATM    7  C13 UNL     1      12.862   8.691  25.601  1.00  0.00     0.110 A 
HETATM    8  N7  UNL     1      13.241   8.881  24.372  1.00  0.00    -0.302 N 
ATOM      9  H7  UNL     1      12.798   8.299  23.661  1.00  0.00     0.171 HD
ENDROOT
BRANCH   1  10
HETATM   10  N3  UNL     1      14.493   9.897  22.807  1.00  0.00    -0.329 NA
BRANCH  10  11
HETATM   11  C9  UNL     1      14.881   9.956  21.577  1.00  0.00     0.297 C 
BRANCH  11  12
HETATM   12  N2  UNL     1      16.237   9.784  21.157  1.00  0.00    -0.343 N 
ATOM     13  H2  UNL     1      16.537   8.886  20.777  1.00  0.00     0.164 HD
BRANCH  12  14
HETATM   14  C8  UNL     1      17.180  10.854  21.263  1.00  0.00     0.150 C 
BRANCH  14  15
HETATM   15  C7  UNL     1      17.263  11.731  20.057  1.00  0.00     0.187 C 
BRANCH  15  16
HETATM   16  O3  UNL     1      18.353  11.379  19.232  1.00  0.00    -0.387 OA
BRANCH  16  17
HETATM   17  C6  UNL     1      18.059  11.935  17.952  1.00  0.00     0.193 C 
BRANCH  17  18
HETATM   18  C5  UNL     1      16.511  12.093  18.030  1.00  0.00     0.193 C 
BRANCH  18  19
HETATM   19  O2  UNL     1      16.070  11.794  16.775  1.00  0.00    -0.387 OA
BRANCH  19  20
HETATM   20  C4  UNL     1      14.728  11.799  16.536  1.00  0.00     0.193 C 
BRANCH  20  21
HETATM   21  C3  UNL     1      14.012  12.314  17.750  1.00  0.00     0.193 C 
BRANCH  21  22
HETATM   22  O1  UNL     1      13.017  11.524  18.258  1.00  0.00    -0.387 OA
BRANCH  22  23
HETATM   23  C2  UNL     1      11.787  12.196  18.302  1.00  0.00     0.195 C 
BRANCH  23  24
HETATM   24  C1  UNL     1      10.877  11.383  19.224  1.00  0.00     0.255 C 
BRANCH  24  25
HETATM   25  N1  UNL     1      11.385  11.533  20.572  1.00  0.00    -0.077 N 
ATOM     26  H13 UNL     1      10.924  10.920  21.243  1.00  0.00     0.274 HD
ATOM     27  H12 UNL     1      12.330  11.166  20.686  1.00  0.00     0.274 HD
ATOM     28  H11 UNL     1      11.309  12.521  20.816  1.00  0.00     0.274 HD
ENDBRANCH  24  25
ENDBRANCH  23  24
ENDBRANCH  22  23
ENDBRANCH  21  22
ENDBRANCH  20  21
ENDBRANCH  19  20
ENDBRANCH  18  19
ENDBRANCH  17  18
ENDBRANCH  16  17
ENDBRANCH  15  16
ENDBRANCH  14  15
ENDBRANCH  12  14
ENDBRANCH  11  12
BRANCH  11  29
HETATM   29  O4  UNL     1      14.001  10.187  20.624  1.00  0.00    -0.321 OA
ATOM     30  H4  UNL     1      13.781   9.450  20.067  1.00  0.00     0.222 HD
ENDBRANCH  11  29
ENDBRANCH  10  11
ENDBRANCH   1  10
BRANCH   7  31
HETATM   31  N5  UNL     1      11.987   7.838  25.941  1.00  0.00    -0.354 N 
ATOM     32  H5  UNL     1      11.445   8.075  26.773  1.00  0.00     0.166 HD
BRANCH  31  33
HETATM   33  C14 UNL     1      11.659   6.622  25.341  1.00  0.00     0.082 C 
BRANCH  33  34
HETATM   34  C15 UNL     1      12.187   5.371  26.058  1.00  0.00     0.173 C 
BRANCH  34  35
HETATM   35  N6  UNL     1      11.116   4.842  26.885  1.00  0.00    -0.341 N 
ATOM     36  H6  UNL     1      11.369   4.238  27.667  1.00  0.00     0.169 HD
BRANCH  35  37
HETATM   37  S1  UNL     1       9.403   5.181  26.616  1.00  0.00     0.077 S 
HETATM   38  O5  UNL     1       8.455   4.124  25.193  1.00  0.00    -0.243 OA
BRANCH  37  39
HETATM   39  C16 UNL     1       8.446   6.562  27.400  1.00  0.00     0.286 C 
BRANCH  39  40
HETATM   40  O6  UNL     1       9.272   7.710  27.561  1.00  0.00    -0.387 OA
ATOM     41  H6  UNL     1       8.747   8.502  27.538  1.00  0.00     0.210 HD
ENDBRANCH  39  40
ENDBRANCH  37  39
BRANCH  37  42
HETATM   42  C17 UNL     1       8.671   3.838  27.824  1.00  0.00     0.079 A 
HETATM   43  C18 UNL     1       7.682   4.134  28.724  1.00  0.00     0.025 A 
HETATM   44  C19 UNL     1       7.104   3.221  29.566  1.00  0.00     0.002 A 
HETATM   45  C20 UNL     1       7.520   1.932  29.526  1.00  0.00     0.003 A 
HETATM   46  C21 UNL     1       8.496   1.538  28.668  1.00  0.00     0.044 A 
HETATM   47  C22 UNL     1       9.037   2.503  27.848  1.00  0.00     0.136 A 
HETATM   48  F1  UNL     1      10.052   2.141  26.983  1.00  0.00    -0.205 F 
ENDBRANCH  37  42
ENDBRANCH  35  37
ENDBRANCH  34  35
ENDBRANCH  33  34
ENDBRANCH  31  33
ENDBRANCH   7  31
TORSDOF 24
ENDMDL
MODEL 3
REMARK VINA RESULT: -6.594004165      4.040      8.744
REMARK  24 active torsions:
REMARK  status: ('A' for Active; 'I' for Inactive)
REMARK    1  A    between atoms: N1_1  and  C1_5 
REMARK    2  A    between atoms: C1_5  and  C2_6 
REMARK    3  A    between atoms: C2_6  and  O1_7 
REMARK    4  A    between atoms: O1_7  and  C3_8 
REMARK    5  A    between atoms: C3_8  and  C4_9 
REMARK    6  A    between atoms: C4_9  and  O2_10 
REMARK    7  A    between atoms: O2_10  and  C5_11 
REMARK    8  A    between atoms: C5_11  and  C6_12 
REMARK    9  A    between atoms: C6_12  and  O3_13 
REMARK   10  A    between atoms: O3_13  and  C7_14 
REMARK   11  A    between atoms: C7_14  and  C8_15 
REMARK   12  A    between atoms: C8_15  and  N2_16 
REMARK   13  A    between atoms: N2_16  and  C9_18 
REMARK   14  A    between atoms: C9_18  and  O4_19 
REMARK   15  A    between atoms: C9_18  and  N3_21 
REMARK   16  A    between atoms: N3_21  and  C10_22 
REMARK   17  A    between atoms: C13_28  and  N5_29 
REMARK   18  A    between atoms: N5_29  and  C14_31 
REMARK   19  A    between atoms: C14_31  and  C15_32 
REMARK   20  A    between atoms: C15_32  and  N6_33 
REMARK   21  A    between atoms: N6_33  and  S1_35 
REMARK   22  A    between atoms: S1_35  and  C16_37 
REMARK   23  A    between atoms: S1_35  and  C17_40 
REMARK   24  A    between atoms: C16_37  and  O6_38 
ROOT
HETATM    1  C10 UNL     1      13.301   9.788  23.676  1.00  0.00     0.265 A 
HETATM    2  N4  UNL     1      14.078  10.493  24.565  1.00  0.00    -0.310 N 
ATOM      3  H4  UNL     1      14.655  11.255  24.207  1.00  0.00     0.170 HD
HETATM    4  C11 UNL     1      14.117  10.231  25.866  1.00  0.00     0.086 A 
HETATM    5 BR1  UNL     1      15.232  11.286  27.010  1.00  0.00    -0.031 Br
HETATM    6  C12 UNL     1      13.366   9.226  26.401  1.00  0.00     0.086 A 
HETATM    7  C13 UNL     1      12.552   8.481  25.519  1.00  0.00     0.110 A 
HETATM    8  N7  UNL     1      12.569   8.796  24.257  1.00  0.00    -0.302 N 
ATOM      9  H7  UNL     1      11.973   8.244  23.640  1.00  0.00     0.171 HD
ENDROOT
BRANCH   1  10
HETATM   10  N3  UNL     1      13.296  10.019  22.519  1.00  0.00    -0.329 NA
BRANCH  10  11
HETATM   11  C9  UNL     1      13.214  10.258  21.253  1.00  0.00     0.297 C 
BRANCH  11  12
HETATM   12  N2  UNL     1      11.995  10.577  20.577  1.00  0.00    -0.343 N 
ATOM     13  H2  UNL     1      11.104  10.442  21.055  1.00  0.00     0.164 HD
BRANCH  12  14
HETATM   14  C8  UNL     1      12.006  11.083  19.239  1.00  0.00     0.150 C 
BRANCH  14  15
HETATM   15  C7  UNL     1      10.654  11.308  18.647  1.00  0.00     0.187 C 
BRANCH  15  16
HETATM   16  O3  UNL     1       9.654  10.605  19.353  1.00  0.00    -0.387 OA
BRANCH  16  17
HETATM   17  C6  UNL     1       9.372   9.449  18.568  1.00  0.00     0.193 C 
BRANCH  17  18
HETATM   18  C5  UNL     1       9.032   8.400  19.668  1.00  0.00     0.193 C 
BRANCH  18  19
HETATM   19  O2  UNL     1      10.230   8.108  20.249  1.00  0.00    -0.387 OA
BRANCH  19  20
HETATM   20  C4  UNL     1      10.248   7.744  21.562  1.00  0.00     0.193 C 
BRANCH  20  21
HETATM   21  C3  UNL     1       9.398   8.696  22.351  1.00  0.00     0.193 C 
BRANCH  21  22
HETATM   22  O1  UNL     1       9.994   9.857  22.761  1.00  0.00    -0.387 OA
BRANCH  22  23
HETATM   23  C2  UNL     1       9.052  10.832  23.118  1.00  0.00     0.195 C 
BRANCH  23  24
HETATM   24  C1  UNL     1       9.676  12.188  22.785  1.00  0.00     0.255 C 
BRANCH  24  25
HETATM   25  N1  UNL     1      10.946  12.258  23.479  1.00  0.00    -0.077 N 
ATOM     26  H13 UNL     1      10.849  12.226  24.493  1.00  0.00     0.274 HD
ATOM     27  H12 UNL     1      11.506  11.412  23.374  1.00  0.00     0.274 HD
ATOM     28  H11 UNL     1      11.425  13.097  23.150  1.00  0.00     0.274 HD
ENDBRANCH  24  25
ENDBRANCH  23  24
ENDBRANCH  22  23
ENDBRANCH  21  22
ENDBRANCH  20  21
ENDBRANCH  19  20
ENDBRANCH  18  19
ENDBRANCH  17  18
ENDBRANCH  16  17
ENDBRANCH  15  16
ENDBRANCH  14  15
ENDBRANCH  12  14
ENDBRANCH  11  12
BRANCH  11  29
HETATM   29  O4  UNL     1      14.299  10.212  20.507  1.00  0.00    -0.321 OA
ATOM     30  H4  UNL     1      15.108  10.481  20.925  1.00  0.00     0.222 HD
ENDBRANCH  11  29
ENDBRANCH  10  11
ENDBRANCH   1  10
BRANCH   7  31
HETATM   31  N5  UNL     1      11.843   7.544  25.998  1.00  0.00    -0.354 N 
ATOM     32  H5  UNL     1      11.508   7.693  26.951  1.00  0.00     0.166 HD
BRANCH  31  33
HETATM   33  C14 UNL     1      11.455   6.340  25.410  1.00  0.00     0.082 C 
BRANCH  33  34
HETATM   34  C15 UNL     1      11.986   5.073  26.095  1.00  0.00     0.173 C 
BRANCH  34  35
HETATM   35  N6  UNL     1      10.953   4.578  26.987  1.00  0.00    -0.341 N 
ATOM     36  H6  UNL     1      11.235   3.969  27.756  1.00  0.00     0.169 HD
BRANCH  35  37
HETATM   37  S1  UNL     1       9.237   4.968  26.823  1.00  0.00     0.077 S 
HETATM   38  O5  UNL     1       8.185   3.974  25.429  1.00  0.00    -0.243 OA
BRANCH  37  39
HETATM   39  C16 UNL     1       8.363   6.353  27.692  1.00  0.00     0.286 C 
BRANCH  39  40
HETATM   40  O6  UNL     1       8.994   7.596  27.407  1.00  0.00    -0.387 OA
ATOM     41  H6  UNL     1       9.178   8.066  28.212  1.00  0.00     0.210 HD
ENDBRANCH  39  40
ENDBRANCH  37  39
BRANCH  37  42
HETATM   42  C17 UNL     1       8.537   3.613  28.036  1.00  0.00     0.079 A 
HETATM   43  C18 UNL     1       7.514   3.879  28.907  1.00  0.00     0.025 A 
HETATM   44  C19 UNL     1       6.956   2.955  29.751  1.00  0.00     0.002 A 
HETATM   45  C20 UNL     1       7.430   1.685  29.742  1.00  0.00     0.003 A 
HETATM   46  C21 UNL     1       8.443   1.321  28.915  1.00  0.00     0.044 A 
HETATM   47  C22 UNL     1       8.961   2.297  28.092  1.00  0.00     0.136 A 
HETATM   48  F1  UNL     1      10.012   1.967  27.258  1.00  0.00    -0.205 F 
ENDBRANCH  37  42
ENDBRANCH  35  37
ENDBRANCH  34  35
ENDBRANCH  33  34
ENDBRANCH  31  33
ENDBRANCH   7  31
TORSDOF 24
ENDMDL
MODEL 4
REMARK VINA RESULT: -6.380255670      2.676      4.745
REMARK  24 active torsions:
REMARK  status: ('A' for Active; 'I' for Inactive)
REMARK    1  A    between atoms: N1_1  and  C1_5 
REMARK    2  A    between atoms: C1_5  and  C2_6 
REMARK    3  A    between atoms: C2_6  and  O1_7 
REMARK    4  A    between atoms: O1_7  and  C3_8 
REMARK    5  A    between atoms: C3_8  and  C4_9 
REMARK    6  A    between atoms: C4_9  and  O2_10 
REMARK    7  A    between atoms: O2_10  and  C5_11 
REMARK    8  A    between atoms: C5_11  and  C6_12 
REMARK    9  A    between atoms: C6_12  and  O3_13 
REMARK   10  A    between atoms: O3_13  and  C7_14 
REMARK   11  A    between atoms: C7_14  and  C8_15 
REMARK   12  A    between atoms: C8_15  and  N2_16 
REMARK   13  A    between atoms: N2_16  and  C9_18 
REMARK   14  A    between atoms: C9_18  and  O4_19 
REMARK   15  A    between atoms: C9_18  and  N3_21 
REMARK   16  A    between atoms: N3_21  and  C10_22 
REMARK   17  A    between atoms: C13_28  and  N5_29 
REMARK   18  A    between atoms: N5_29  and  C14_31 
REMARK   19  A    between atoms: C14_31  and  C15_32 
REMARK   20  A    between atoms: C15_32  and  N6_33 
REMARK   21  A    between atoms: N6_33  and  S1_35 
REMARK   22  A    between atoms: S1_35  and  C16_37 
REMARK   23  A    between atoms: S1_35  and  C17_40 
REMARK   24  A    between atoms: C16_37  and  O6_38 
ROOT
HETATM    1  C10 UNL     1       9.772   6.963  24.621  1.00  0.00     0.265 A 
HETATM    2  N4  UNL     1       8.621   6.779  23.891  1.00  0.00    -0.310 N 
ATOM      3  H4  UNL     1       8.148   5.877  23.953  1.00  0.00     0.170 HD
HETATM    4  C11 UNL     1       8.096   7.715  23.110  1.00  0.00     0.086 A 
HETATM    5 BR1  UNL     1       6.484   7.347  22.146  1.00  0.00    -0.031 Br
HETATM    6  C12 UNL     1       8.684   8.940  22.991  1.00  0.00     0.086 A 
HETATM    7  C13 UNL     1       9.868   9.168  23.728  1.00  0.00     0.110 A 
HETATM    8  N7  UNL     1      10.322   8.202  24.471  1.00  0.00    -0.302 N 
ATOM      9  H7  UNL     1      11.178   8.390  24.994  1.00  0.00     0.171 HD
ENDROOT
BRANCH   1  10
HETATM   10  N3  UNL     1      10.238   6.113  25.293  1.00  0.00    -0.329 NA
BRANCH  10  11
HETATM   11  C9  UNL     1      10.816   5.196  25.994  1.00  0.00     0.297 C 
BRANCH  11  12
HETATM   12  N2  UNL     1      10.379   3.835  26.047  1.00  0.00    -0.343 N 
ATOM     13  H2  UNL     1      10.356   3.280  25.192  1.00  0.00     0.164 HD
BRANCH  12  14
HETATM   14  C8  UNL     1       9.974   3.241  27.283  1.00  0.00     0.150 C 
BRANCH  14  15
HETATM   15  C7  UNL     1       8.871   3.960  27.987  1.00  0.00     0.187 C 
BRANCH  15  16
HETATM   16  O3  UNL     1       8.071   3.076  28.741  1.00  0.00    -0.387 OA
BRANCH  16  17
HETATM   17  C6  UNL     1       7.005   3.869  29.256  1.00  0.00     0.193 C 
BRANCH  17  18
HETATM   18  C5  UNL     1       6.744   4.846  28.071  1.00  0.00     0.193 C 
BRANCH  18  19
HETATM   19  O2  UNL     1       5.968   5.833  28.601  1.00  0.00    -0.387 OA
BRANCH  19  20
HETATM   20  C4  UNL     1       6.094   6.124  29.926  1.00  0.00     0.193 C 
BRANCH  20  21
HETATM   21  C3  UNL     1       6.442   7.575  30.082  1.00  0.00     0.193 C 
BRANCH  21  22
HETATM   22  O1  UNL     1       7.695   7.861  30.551  1.00  0.00    -0.387 OA
BRANCH  22  23
HETATM   23  C2  UNL     1       8.528   8.367  29.542  1.00  0.00     0.195 C 
BRANCH  23  24
HETATM   24  C1  UNL     1       9.702   7.395  29.415  1.00  0.00     0.255 C 
BRANCH  24  25
HETATM   25  N1  UNL     1      10.412   7.736  28.198  1.00  0.00    -0.077 N 
ATOM     26  H13 UNL     1      11.117   8.459  28.337  1.00  0.00     0.274 HD
ATOM     27  H12 UNL     1      11.041   6.998  27.883  1.00  0.00     0.274 HD
ATOM     28  H11 UNL     1       9.712   7.989  27.500  1.00  0.00     0.274 HD
ENDBRANCH  24  25
ENDBRANCH  23  24
ENDBRANCH  22  23
ENDBRANCH  21  22
ENDBRANCH  20  21
ENDBRANCH  19  20
ENDBRANCH  18  19
ENDBRANCH  17  18
ENDBRANCH  16  17
ENDBRANCH  15  16
ENDBRANCH  14  15
ENDBRANCH  12  14
ENDBRANCH  11  12
BRANCH  11  29
HETATM   29  O4  UNL     1      11.875   5.496  26.718  1.00  0.00    -0.321 OA
ATOM     30  H4  UNL     1      12.155   6.403  26.698  1.00  0.00     0.222 HD
ENDBRANCH  11  29
ENDBRANCH  10  11
ENDBRANCH   1  10
BRANCH   7  31
HETATM   31  N5  UNL     1      10.428  10.303  23.634  1.00  0.00    -0.354 N 
ATOM     32  H5  UNL     1      10.295  10.924  24.433  1.00  0.00     0.166 HD
BRANCH  31  33
HETATM   33  C14 UNL     1      11.201  10.823  22.596  1.00  0.00     0.082 C 
BRANCH  33  34
HETATM   34  C15 UNL     1      12.550  10.127  22.367  1.00  0.00     0.173 C 
BRANCH  34  35
HETATM   35  N6  UNL     1      13.412  10.439  23.493  1.00  0.00    -0.341 N 
ATOM     36  H6  UNL     1      13.542  11.420  23.740  1.00  0.00     0.169 HD
BRANCH  35  37
HETATM   37  S1  UNL     1      14.251   9.221  24.460  1.00  0.00     0.077 S 
HETATM   38  O5  UNL     1      16.251   9.109  24.288  1.00  0.00    -0.243 OA
BRANCH  37  39
HETATM   39  C16 UNL     1      13.431   7.906  25.477  1.00  0.00     0.286 C 
BRANCH  39  40
HETATM   40  O6  UNL     1      12.422   8.474  26.304  1.00  0.00    -0.387 OA
ATOM     41  H6  UNL     1      12.778   8.702  27.154  1.00  0.00     0.210 HD
ENDBRANCH  39  40
ENDBRANCH  37  39
BRANCH  37  42
HETATM   42  C17 UNL     1      14.645  10.334  26.010  1.00  0.00     0.079 A 
HETATM   43  C18 UNL     1      14.136  11.599  26.142  1.00  0.00     0.025 A 
HETATM   44  C19 UNL     1      14.346  12.409  27.228  1.00  0.00     0.002 A 
HETATM   45  C20 UNL     1      15.104  11.951  28.253  1.00  0.00     0.003 A 
HETATM   46  C21 UNL     1      15.655  10.710  28.218  1.00  0.00     0.044 A 
HETATM   47  C22 UNL     1      15.407   9.946  27.099  1.00  0.00     0.136 A 
HETATM   48  F1  UNL     1      15.975   8.689  27.019  1.00  0.00    -0.205 F 
ENDBRANCH  37  42
ENDBRANCH  35  37
ENDBRANCH  34  35
ENDBRANCH  33  34
ENDBRANCH  31  33
ENDBRANCH   7  31
TORSDOF 24
ENDMDL
MODEL 5
REMARK VINA RESULT: -6.366788007      4.072      9.029
REMARK  24 active torsions:
REMARK  status: ('A' for Active; 'I' for Inactive)
REMARK    1  A    between atoms: N1_1  and  C1_5 
REMARK    2  A    between atoms: C1_5  and  C2_6 
REMARK    3  A    between atoms: C2_6  and  O1_7 
REMARK    4  A    between atoms: O1_7  and  C3_8 
REMARK    5  A    between atoms: C3_8  and  C4_9 
REMARK    6  A    between atoms: C4_9  and  O2_10 
REMARK    7  A    between atoms: O2_10  and  C5_11 
REMARK    8  A    between atoms: C5_11  and  C6_12 
REMARK    9  A    between atoms: C6_12  and  O3_13 
REMARK   10  A    between atoms: O3_13  and  C7_14 
REMARK   11  A    between atoms: C7_14  and  C8_15 
REMARK   12  A    between atoms: C8_15  and  N2_16 
REMARK   13  A    between atoms: N2_16  and  C9_18 
REMARK   14  A    between atoms: C9_18  and  O4_19 
REMARK   15  A    between atoms: C9_18  and  N3_21 
REMARK   16  A    between atoms: N3_21  and  C10_22 
REMARK   17  A    between atoms: C13_28  and  N5_29 
REMARK   18  A    between atoms: N5_29  and  C14_31 
REMARK   19  A    between atoms: C14_31  and  C15_32 
REMARK   20  A    between atoms: C15_32  and  N6_33 
REMARK   21  A    between atoms: N6_33  and  S1_35 
REMARK   22  A    between atoms: S1_35  and  C16_37 
REMARK   23  A    between atoms: S1_35  and  C17_40 
REMARK   24  A    between atoms: C16_37  and  O6_38 
ROOT
HETATM    1  C10 UNL     1      10.763   4.521  25.487  1.00  0.00     0.265 A 
HETATM    2  N4  UNL     1      10.802   3.710  24.377  1.00  0.00    -0.310 N 
ATOM      3  H4  UNL     1      11.120   4.112  23.494  1.00  0.00     0.170 HD
HETATM    4  C11 UNL     1      10.447   2.431  24.396  1.00  0.00     0.086 A 
HETATM    5 BR1  UNL     1      10.551   1.398  22.788  1.00  0.00    -0.031 Br
HETATM    6  C12 UNL     1      10.017   1.840  25.547  1.00  0.00     0.086 A 
HETATM    7  C13 UNL     1       9.965   2.641  26.710  1.00  0.00     0.110 A 
HETATM    8  N7  UNL     1      10.328   3.886  26.612  1.00  0.00    -0.302 N 
ATOM      9  H7  UNL     1      10.282   4.445  27.465  1.00  0.00     0.171 HD
ENDROOT
BRANCH   1  10
HETATM   10  N3  UNL     1      11.061   5.662  25.448  1.00  0.00    -0.329 NA
BRANCH  10  11
HETATM   11  C9  UNL     1      11.315   6.928  25.430  1.00  0.00     0.297 C 
BRANCH  11  12
HETATM   12  N2  UNL     1      10.330   7.938  25.195  1.00  0.00    -0.343 N 
ATOM     13  H2  UNL     1       9.585   8.083  25.877  1.00  0.00     0.164 HD
BRANCH  12  14
HETATM   14  C8  UNL     1      10.375   8.748  24.018  1.00  0.00     0.150 C 
BRANCH  14  15
HETATM   15  C7  UNL     1      10.539   7.987  22.744  1.00  0.00     0.187 C 
BRANCH  15  16
HETATM   16  O3  UNL     1      11.669   8.422  22.020  1.00  0.00    -0.387 OA
BRANCH  16  17
HETATM   17  C6  UNL     1      11.890   9.769  22.430  1.00  0.00     0.193 C 
BRANCH  17  18
HETATM   18  C5  UNL     1      13.439   9.882  22.305  1.00  0.00     0.193 C 
BRANCH  18  19
HETATM   19  O2  UNL     1      13.924   9.186  23.372  1.00  0.00    -0.387 OA
BRANCH  19  20
HETATM   20  C4  UNL     1      14.329   9.878  24.474  1.00  0.00     0.193 C 
BRANCH  20  21
HETATM   21  C3  UNL     1      15.448   9.133  25.141  1.00  0.00     0.193 C 
BRANCH  21  22
HETATM   22  O1  UNL     1      15.622   9.355  26.480  1.00  0.00    -0.387 OA
BRANCH  22  23
HETATM   23  C2  UNL     1      14.615  10.175  27.010  1.00  0.00     0.195 C 
BRANCH  23  24
HETATM   24  C1  UNL     1      15.310  11.198  27.908  1.00  0.00     0.255 C 
BRANCH  24  25
HETATM   25  N1  UNL     1      15.790  10.489  29.077  1.00  0.00    -0.077 N 
ATOM     26  H13 UNL     1      15.602   9.488  29.042  1.00  0.00     0.274 HD
ATOM     27  H12 UNL     1      16.808  10.429  29.118  1.00  0.00     0.274 HD
ATOM     28  H11 UNL     1      15.384  10.943  29.895  1.00  0.00     0.274 HD
ENDBRANCH  24  25
ENDBRANCH  23  24
ENDBRANCH  22  23
ENDBRANCH  21  22
ENDBRANCH  20  21
ENDBRANCH  19  20
ENDBRANCH  18  19
ENDBRANCH  17  18
ENDBRANCH  16  17
ENDBRANCH  15  16
ENDBRANCH  14  15
ENDBRANCH  12  14
ENDBRANCH  11  12
BRANCH  11  29
HETATM   29  O4  UNL     1      12.545   7.351  25.636  1.00  0.00    -0.321 OA
ATOM     30  H4  UNL     1      12.990   6.995  26.396  1.00  0.00     0.222 HD
ENDBRANCH  11  29
ENDBRANCH  10  11
ENDBRANCH   1  10
BRANCH   7  31
HETATM   31  N5  UNL     1       9.571   2.108  27.793  1.00  0.00    -0.354 N 
ATOM     32  H5  UNL     1      10.131   2.329  28.617  1.00  0.00     0.166 HD
BRANCH  31  33
HETATM   33  C14 UNL     1       8.483   1.265  28.017  1.00  0.00     0.082 C 
BRANCH  33  34
HETATM   34  C15 UNL     1       7.682   1.551  29.295  1.00  0.00     0.173 C 
BRANCH  34  35
HETATM   35  N6  UNL     1       6.659   2.530  28.974  1.00  0.00    -0.341 N 
ATOM     36  H6  UNL     1       5.778   2.194  28.585  1.00  0.00     0.169 HD
BRANCH  35  37
HETATM   37  S1  UNL     1       6.849   4.271  29.214  1.00  0.00     0.077 S 
HETATM   38  O5  UNL     1       8.368   5.183  28.264  1.00  0.00    -0.243 OA
BRANCH  37  39
HETATM   39  C16 UNL     1       5.887   5.300  30.420  1.00  0.00     0.286 C 
BRANCH  39  40
HETATM   40  O6  UNL     1       6.646   6.435  30.821  1.00  0.00    -0.387 OA
ATOM     41  H6  UNL     1       7.451   6.162  31.245  1.00  0.00     0.210 HD
ENDBRANCH  39  40
ENDBRANCH  37  39
BRANCH  37  42
HETATM   42  C17 UNL     1       5.795   4.869  27.688  1.00  0.00     0.079 A 
HETATM   43  C18 UNL     1       4.874   5.877  27.795  1.00  0.00     0.025 A 
HETATM   44  C19 UNL     1       4.136   6.365  26.748  1.00  0.00     0.002 A 
HETATM   45  C20 UNL     1       4.311   5.832  25.514  1.00  0.00     0.003 A 
HETATM   46  C21 UNL     1       5.201   4.827  25.305  1.00  0.00     0.044 A 
HETATM   47  C22 UNL     1       5.911   4.381  26.398  1.00  0.00     0.136 A 
HETATM   48  F1  UNL     1       6.804   3.341  26.225  1.00  0.00    -0.205 F 
ENDBRANCH  37  42
ENDBRANCH  35  37
ENDBRANCH  34  35
ENDBRANCH  33  34
ENDBRANCH  31  33
ENDBRANCH   7  31
TORSDOF 24
ENDMDL
