MODEL 1
REMARK VINA RESULT: -7.209671971      0.000      0.000
REMARK  22 active torsions:
REMARK  status: ('A' for Active; 'I' for Inactive)
REMARK    1  A    between atoms: C1_2  and  O1_3 
REMARK    2  A    between atoms: C1_2  and  C2_5 
REMARK    3  A    between atoms: C3_8  and  N3_9 
REMARK    4  A    between atoms: N3_9  and  C4_11 
REMARK    5  A    between atoms: C4_11  and  C5_12 
REMARK    6  A    between atoms: C5_12  and  C6_13 
REMARK    7  A    between atoms: C6_13  and  N4_14 
REMARK       I    between atoms: N4_14  and  C7_16 
REMARK    8  A    between atoms: C7_16  and  C8_18 
REMARK    9  A    between atoms: C8_18  and  N5_19 
REMARK   10  A    between atoms: N5_19  and  O3_20 
REMARK   11  A    between atoms: N5_19  and  C9_22 
REMARK   12  A    between atoms: C9_22  and  C10_23 
REMARK   13  A    between atoms: C10_23  and  O4_24 
REMARK   14  A    between atoms: C10_23  and  C11_26 
REMARK   15  A    between atoms: C11_26  and  O5_27 
REMARK   16  A    between atoms: O5_27  and  C12_28 
REMARK   17  A    between atoms: C12_28  and  C13_29 
REMARK   18  A    between atoms: C13_29  and  N6_30 
REMARK   19  A    between atoms: N6_30  and  C14_32 
REMARK   20  A    between atoms: C14_32  and  C15_33 
REMARK   21  A    between atoms: C22_44  and  C23_45 
REMARK   22  A    between atoms: C23_45  and  C24_46 
ROOT
HETATM    1  C6  UNL     1       9.153   7.954  29.951  1.00  0.00     0.128 C 
ENDROOT
BRANCH   1   2
HETATM    2  C5  UNL     1       8.201   9.093  30.030  1.00  0.00     0.065 C 
BRANCH   2   3
HETATM    3  C4  UNL     1       6.749   8.701  30.039  1.00  0.00     0.080 C 
BRANCH   3   4
HETATM    4  N3  UNL     1       6.087   8.687  28.806  1.00  0.00    -0.205 N 
ATOM      5  H3  UNL     1       5.550   9.521  28.568  1.00  0.00     0.183 HD
BRANCH   4   6
HETATM    6  C3  UNL     1       6.083   7.744  27.950  1.00  0.00     0.685 A 
HETATM    7  N2  UNL     1       5.656   6.499  28.153  1.00  0.00    -0.187 N 
HETATM    8  C2  UNL     1       5.680   5.498  27.223  1.00  0.00     0.109 A 
ATOM      9  H2  UNL     1       5.283   6.275  29.075  1.00  0.00     0.184 HD
HETATM   10  C22 UNL     1       6.185   5.836  26.004  1.00  0.00     0.046 A 
HETATM   11  C21 UNL     1       6.649   7.148  25.740  1.00  0.00     0.268 A 
HETATM   12  N7  UNL     1       6.577   8.038  26.719  1.00  0.00    -0.155 N 
HETATM   13  O6  UNL     1       7.106   7.435  24.611  1.00  0.00    -0.267 OA
ATOM     14  H7  UNL     1       6.907   8.987  26.540  1.00  0.00     0.187 HD
BRANCH   8  15
HETATM   15  C1  UNL     1       5.179   4.182  27.571  1.00  0.00     0.178 C 
HETATM   16  N1  UNL     1       5.767   3.149  28.276  1.00  0.00    -0.073 NA
BRANCH  15  17
HETATM   17  O1  UNL     1       3.971   3.950  27.136  1.00  0.00    -0.347 OA
ATOM     18  H1  UNL     1       3.272   4.371  27.623  1.00  0.00     0.219 HD
ENDBRANCH  15  17
ENDBRANCH   8  15
BRANCH  10  19
HETATM   19  C23 UNL     1       6.327   4.852  24.910  1.00  0.00     0.085 C 
BRANCH  19  20
HETATM   20  C24 UNL     1       7.713   4.330  24.856  1.00  0.00    -0.051 A 
HETATM   21  C25 UNL     1       8.578   4.594  23.795  1.00  0.00     0.007 A 
HETATM   22  C26 UNL     1       9.850   4.073  23.727  1.00  0.00     0.004 A 
HETATM   23  C27 UNL     1      10.342   3.252  24.717  1.00  0.00     0.042 A 
HETATM   24  C28 UNL     1       9.499   2.981  25.775  1.00  0.00     0.116 A 
HETATM   25  F2  UNL     1       9.961   2.178  26.759  1.00  0.00    -0.206 F 
HETATM   26  C29 UNL     1       8.224   3.497  25.853  1.00  0.00     0.049 A 
ENDBRANCH  19  20
ENDBRANCH  10  19
ENDBRANCH   4   6
ENDBRANCH   3   4
ENDBRANCH   2   3
ENDBRANCH   1   2
BRANCH   1  27
HETATM   27  N4  UNL     1       9.938   7.885  28.727  1.00  0.00    -0.356 N 
HETATM   28  C7  UNL     1       9.734   6.717  27.945  1.00  0.00     0.258 C 
HETATM   29  O2  UNL     1       8.913   5.815  28.316  1.00  0.00    -0.267 OA
ATOM     30  H4  UNL     1      10.587   8.622  28.450  1.00  0.00     0.162 HD
BRANCH  28  31
HETATM   31  C8  UNL     1      10.426   6.473  26.692  1.00  0.00     0.190 C 
BRANCH  31  32
HETATM   32  N5  UNL     1      10.804   7.562  25.886  1.00  0.00    -0.264 N 
BRANCH  32  33
HETATM   33  O3  UNL     1      11.745   8.364  26.451  1.00  0.00    -0.288 OA
ATOM     34  H3  UNL     1      12.538   7.906  26.703  1.00  0.00     0.244 HD
ENDBRANCH  32  33
BRANCH  32  35
HETATM   35  C9  UNL     1      11.015   7.342  24.501  1.00  0.00     0.189 C 
BRANCH  35  36
HETATM   36  C10 UNL     1      10.090   8.244  23.648  1.00  0.00     0.162 C 
BRANCH  36  37
HETATM   37  O4  UNL     1       9.565   9.160  24.552  1.00  0.00    -0.392 OA
ATOM     38  H4  UNL     1       9.246   9.873  24.011  1.00  0.00     0.210 HD
ENDBRANCH  36  37
BRANCH  36  39
HETATM   39  C11 UNL     1      10.959   8.813  22.595  1.00  0.00     0.201 C 
BRANCH  39  40
HETATM   40  O5  UNL     1      11.861   9.746  22.873  1.00  0.00    -0.387 OA
BRANCH  40  41
HETATM   41  C12 UNL     1      13.035   9.869  22.237  1.00  0.00     0.186 C 
BRANCH  41  42
HETATM   42  C13 UNL     1      14.230   9.726  23.154  1.00  0.00     0.140 C 
BRANCH  42  43
HETATM   43  N6  UNL     1      13.930   9.506  24.526  1.00  0.00    -0.415 N 
ATOM     44  H6  UNL     1      12.980   9.603  24.881  1.00  0.00     0.153 HD
BRANCH  43  45
HETATM   45  C14 UNL     1      15.002   9.147  25.383  1.00  0.00     0.152 C 
BRANCH  45  46
HETATM   46  C15 UNL     1      15.069  10.108  26.523  1.00  0.00    -0.041 A 
HETATM   47  C16 UNL     1      14.445  11.320  26.419  1.00  0.00     0.012 A 
HETATM   48  C17 UNL     1      14.510  12.189  27.495  1.00  0.00     0.043 A 
HETATM   49  C18 UNL     1      15.172  11.891  28.666  1.00  0.00     0.116 A 
HETATM   50  F1  UNL     1      15.218  12.778  29.711  1.00  0.00    -0.206 F 
HETATM   51  C19 UNL     1      15.787  10.655  28.726  1.00  0.00     0.043 A 
HETATM   52  C20 UNL     1      15.754   9.760  27.694  1.00  0.00     0.012 A 
ENDBRANCH  45  46
ENDBRANCH  43  45
ENDBRANCH  42  43
ENDBRANCH  41  42
ENDBRANCH  40  41
ENDBRANCH  39  40
ENDBRANCH  36  39
ENDBRANCH  35  36
ENDBRANCH  32  35
ENDBRANCH  31  32
ENDBRANCH  28  31
ENDBRANCH   1  27
TORSDOF 22
ENDMDL
MODEL 2
REMARK VINA RESULT: -6.993414700      3.177      5.355
REMARK  22 active torsions:
REMARK  status: ('A' for Active; 'I' for Inactive)
REMARK    1  A    between atoms: C1_2  and  O1_3 
REMARK    2  A    between atoms: C1_2  and  C2_5 
REMARK    3  A    between atoms: C3_8  and  N3_9 
REMARK    4  A    between atoms: N3_9  and  C4_11 
REMARK    5  A    between atoms: C4_11  and  C5_12 
REMARK    6  A    between atoms: C5_12  and  C6_13 
REMARK    7  A    between atoms: C6_13  and  N4_14 
REMARK       I    between atoms: N4_14  and  C7_16 
REMARK    8  A    between atoms: C7_16  and  C8_18 
REMARK    9  A    between atoms: C8_18  and  N5_19 
REMARK   10  A    between atoms: N5_19  and  O3_20 
REMARK   11  A    between atoms: N5_19  and  C9_22 
REMARK   12  A    between atoms: C9_22  and  C10_23 
REMARK   13  A    between atoms: C10_23  and  O4_24 
REMARK   14  A    between atoms: C10_23  and  C11_26 
REMARK   15  A    between atoms: C11_26  and  O5_27 
REMARK   16  A    between atoms: O5_27  and  C12_28 
REMARK   17  A    between atoms: C12_28  and  C13_29 
REMARK   18  A    between atoms: C13_29  and  N6_30 
REMARK   19  A    between atoms: N6_30  and  C14_32 
REMARK   20  A    between atoms: C14_32  and  C15_33 
REMARK   21  A    between atoms: C22_44  and  C23_45 
REMARK   22  A    between atoms: C23_45  and  C24_46 
ROOT
HETATM    1  C6  UNL     1       5.610   7.591  19.309  1.00  0.00     0.128 C 
ENDROOT
BRANCH   1   2
HETATM    2  C5  UNL     1       5.020   6.650  20.295  1.00  0.00     0.065 C 
BRANCH   2   3
HETATM    3  C4  UNL     1       4.643   7.271  21.612  1.00  0.00     0.080 C 
BRANCH   3   4
HETATM    4  N3  UNL     1       4.786   6.474  22.755  1.00  0.00    -0.205 N 
ATOM      5  H3  UNL     1       3.930   6.082  23.146  1.00  0.00     0.183 HD
BRANCH   4   6
HETATM    6  C3  UNL     1       5.870   6.188  23.358  1.00  0.00     0.685 A 
HETATM    7  N2  UNL     1       7.054   6.767  23.165  1.00  0.00    -0.187 N 
HETATM    8  C2  UNL     1       8.210   6.429  23.812  1.00  0.00     0.109 A 
ATOM      9  H2  UNL     1       7.102   7.522  22.480  1.00  0.00     0.184 HD
HETATM   10  C22 UNL     1       8.105   5.418  24.718  1.00  0.00     0.046 A 
HETATM   11  C21 UNL     1       6.867   4.773  24.960  1.00  0.00     0.268 A 
HETATM   12  N7  UNL     1       5.811   5.186  24.273  1.00  0.00    -0.155 N 
HETATM   13  O6  UNL     1       6.796   3.849  25.799  1.00  0.00    -0.267 OA
ATOM     14  H7  UNL     1       4.914   4.730  24.439  1.00  0.00     0.187 HD
BRANCH   8  15
HETATM   15  C1  UNL     1       9.436   7.144  23.512  1.00  0.00     0.178 C 
HETATM   16  N1  UNL     1      10.475   6.834  22.655  1.00  0.00    -0.073 NA
BRANCH  15  17
HETATM   17  O1  UNL     1       9.565   8.261  24.172  1.00  0.00    -0.347 OA
ATOM     18  H1  UNL     1       8.887   8.440  24.812  1.00  0.00     0.219 HD
ENDBRANCH  15  17
ENDBRANCH   8  15
BRANCH  10  19
HETATM   19  C23 UNL     1       9.275   4.901  25.459  1.00  0.00     0.085 C 
BRANCH  19  20
HETATM   20  C24 UNL     1       9.757   3.637  24.856  1.00  0.00    -0.051 A 
HETATM   21  C25 UNL     1      10.134   3.535  23.517  1.00  0.00     0.007 A 
HETATM   22  C26 UNL     1      10.542   2.350  22.949  1.00  0.00     0.004 A 
HETATM   23  C27 UNL     1      10.599   1.186  23.682  1.00  0.00     0.042 A 
HETATM   24  C28 UNL     1      10.230   1.269  25.008  1.00  0.00     0.116 A 
HETATM   25  F2  UNL     1      10.279   0.138  25.748  1.00  0.00    -0.206 F 
HETATM   26  C29 UNL     1       9.820   2.449  25.588  1.00  0.00     0.049 A 
ENDBRANCH  19  20
ENDBRANCH  10  19
ENDBRANCH   4   6
ENDBRANCH   3   4
ENDBRANCH   2   3
ENDBRANCH   1   2
BRANCH   1  27
HETATM   27  N4  UNL     1       7.044   7.807  19.436  1.00  0.00    -0.356 N 
HETATM   28  C7  UNL     1       7.666   8.407  18.310  1.00  0.00     0.258 C 
HETATM   29  O2  UNL     1       6.988   8.725  17.278  1.00  0.00    -0.267 OA
ATOM     30  H4  UNL     1       7.565   7.545  20.274  1.00  0.00     0.162 HD
BRANCH  28  31
HETATM   31  C8  UNL     1       9.087   8.700  18.253  1.00  0.00     0.190 C 
BRANCH  31  32
HETATM   32  N5  UNL     1       9.830   8.758  19.446  1.00  0.00    -0.264 N 
BRANCH  32  33
HETATM   33  O3  UNL     1      10.406   7.577  19.793  1.00  0.00    -0.288 OA
ATOM     34  H3  UNL     1      10.098   7.228  20.621  1.00  0.00     0.244 HD
ENDBRANCH  32  33
BRANCH  32  35
HETATM   35  C9  UNL     1      10.672   9.878  19.669  1.00  0.00     0.189 C 
BRANCH  35  36
HETATM   36  C10 UNL     1      10.484  10.439  21.100  1.00  0.00     0.162 C 
BRANCH  36  37
HETATM   37  O4  UNL     1       9.427   9.705  21.626  1.00  0.00    -0.392 OA
ATOM     38  H4  UNL     1       9.529   8.837  21.252  1.00  0.00     0.210 HD
ENDBRANCH  36  37
BRANCH  36  39
HETATM   39  C11 UNL     1      11.789  10.249  21.770  1.00  0.00     0.201 C 
BRANCH  39  40
HETATM   40  O5  UNL     1      11.866   9.884  23.044  1.00  0.00    -0.387 OA
BRANCH  40  41
HETATM   41  C12 UNL     1      12.976   9.406  23.622  1.00  0.00     0.186 C 
BRANCH  41  42
HETATM   42  C13 UNL     1      12.704   8.637  24.897  1.00  0.00     0.140 C 
BRANCH  42  43
HETATM   43  N6  UNL     1      13.851   8.279  25.657  1.00  0.00    -0.415 N 
ATOM     44  H6  UNL     1      13.840   7.475  26.284  1.00  0.00     0.153 HD
BRANCH  43  45
HETATM   45  C14 UNL     1      15.011   9.081  25.511  1.00  0.00     0.152 C 
BRANCH  45  46
HETATM   46  C15 UNL     1      15.074  10.072  26.626  1.00  0.00    -0.041 A 
HETATM   47  C16 UNL     1      15.734   9.747  27.778  1.00  0.00     0.012 A 
HETATM   48  C17 UNL     1      15.790  10.688  28.793  1.00  0.00     0.043 A 
HETATM   49  C18 UNL     1      15.212  11.935  28.697  1.00  0.00     0.116 A 
HETATM   50  F1  UNL     1      15.284  12.840  29.725  1.00  0.00    -0.206 F 
HETATM   51  C19 UNL     1      14.555  12.219  27.516  1.00  0.00     0.043 A 
HETATM   52  C20 UNL     1      14.471  11.328  26.483  1.00  0.00     0.012 A 
ENDBRANCH  45  46
ENDBRANCH  43  45
ENDBRANCH  42  43
ENDBRANCH  41  42
ENDBRANCH  40  41
ENDBRANCH  39  40
ENDBRANCH  36  39
ENDBRANCH  35  36
ENDBRANCH  32  35
ENDBRANCH  31  32
ENDBRANCH  28  31
ENDBRANCH   1  27
TORSDOF 22
ENDMDL
MODEL 3
REMARK VINA RESULT: -6.866088310      3.937      9.149
REMARK  22 active torsions:
REMARK  status: ('A' for Active; 'I' for Inactive)
REMARK    1  A    between atoms: C1_2  and  O1_3 
REMARK    2  A    between atoms: C1_2  and  C2_5 
REMARK    3  A    between atoms: C3_8  and  N3_9 
REMARK    4  A    between atoms: N3_9  and  C4_11 
REMARK    5  A    between atoms: C4_11  and  C5_12 
REMARK    6  A    between atoms: C5_12  and  C6_13 
REMARK    7  A    between atoms: C6_13  and  N4_14 
REMARK       I    between atoms: N4_14  and  C7_16 
REMARK    8  A    between atoms: C7_16  and  C8_18 
REMARK    9  A    between atoms: C8_18  and  N5_19 
REMARK   10  A    between atoms: N5_19  and  O3_20 
REMARK   11  A    between atoms: N5_19  and  C9_22 
REMARK   12  A    between atoms: C9_22  and  C10_23 
REMARK   13  A    between atoms: C10_23  and  O4_24 
REMARK   14  A    between atoms: C10_23  and  C11_26 
REMARK   15  A    between atoms: C11_26  and  O5_27 
REMARK   16  A    between atoms: O5_27  and  C12_28 
REMARK   17  A    between atoms: C12_28  and  C13_29 
REMARK   18  A    between atoms: C13_29  and  N6_30 
REMARK   19  A    between atoms: N6_30  and  C14_32 
REMARK   20  A    between atoms: C14_32  and  C15_33 
REMARK   21  A    between atoms: C22_44  and  C23_45 
REMARK   22  A    between atoms: C23_45  and  C24_46 
ROOT
HETATM    1  C6  UNL     1      10.957   7.623  26.165  1.00  0.00     0.128 C 
ENDROOT
BRANCH   1   2
HETATM    2  C5  UNL     1      11.743   6.477  25.638  1.00  0.00     0.065 C 
BRANCH   2   3
HETATM    3  C4  UNL     1      11.690   5.235  26.485  1.00  0.00     0.080 C 
BRANCH   3   4
HETATM    4  N3  UNL     1      11.003   4.135  25.957  1.00  0.00    -0.205 N 
ATOM      5  H3  UNL     1      11.475   3.617  25.216  1.00  0.00     0.183 HD
BRANCH   4   6
HETATM    6  C3  UNL     1       9.853   3.713  26.303  1.00  0.00     0.685 A 
HETATM    7  N2  UNL     1       8.736   4.436  26.364  1.00  0.00    -0.187 N 
HETATM    8  C2  UNL     1       7.515   3.965  26.758  1.00  0.00     0.109 A 
ATOM      9  H2  UNL     1       8.796   5.418  26.096  1.00  0.00     0.184 HD
HETATM   10  C22 UNL     1       7.474   2.649  27.107  1.00  0.00     0.046 A 
HETATM   11  C21 UNL     1       8.636   1.839  27.056  1.00  0.00     0.268 A 
HETATM   12  N7  UNL     1       9.766   2.405  26.658  1.00  0.00    -0.155 N 
HETATM   13  O6  UNL     1       8.572   0.632  27.379  1.00  0.00    -0.267 OA
ATOM     14  H7  UNL     1      10.609   1.832  26.617  1.00  0.00     0.187 HD
BRANCH   8  15
HETATM   15  C1  UNL     1       6.372   4.858  26.775  1.00  0.00     0.178 C 
HETATM   16  N1  UNL     1       5.285   4.950  25.926  1.00  0.00    -0.073 NA
BRANCH  15  17
HETATM   17  O1  UNL     1       6.389   5.711  27.761  1.00  0.00    -0.347 OA
ATOM     18  H1  UNL     1       6.677   6.588  27.539  1.00  0.00     0.219 HD
ENDBRANCH  15  17
ENDBRANCH   8  15
BRANCH  10  19
HETATM   19  C23 UNL     1       6.241   2.004  27.605  1.00  0.00     0.085 C 
BRANCH  19  20
HETATM   20  C24 UNL     1       6.241   1.954  29.085  1.00  0.00    -0.051 A 
HETATM   21  C25 UNL     1       6.246   0.757  29.800  1.00  0.00     0.007 A 
HETATM   22  C26 UNL     1       6.204   0.713  31.175  1.00  0.00     0.004 A 
HETATM   23  C27 UNL     1       6.152   1.864  31.927  1.00  0.00     0.042 A 
HETATM   24  C28 UNL     1       6.146   3.058  31.237  1.00  0.00     0.116 A 
HETATM   25  F2  UNL     1       6.096   4.202  31.955  1.00  0.00    -0.206 F 
HETATM   26  C29 UNL     1       6.188   3.114  29.861  1.00  0.00     0.049 A 
ENDBRANCH  19  20
ENDBRANCH  10  19
ENDBRANCH   4   6
ENDBRANCH   3   4
ENDBRANCH   2   3
ENDBRANCH   1   2
BRANCH   1  27
HETATM   27  N4  UNL     1      10.770   7.636  27.609  1.00  0.00    -0.356 N 
HETATM   28  C7  UNL     1       9.418   7.653  28.042  1.00  0.00     0.258 C 
HETATM   29  O2  UNL     1       8.460   7.654  27.200  1.00  0.00    -0.267 OA
ATOM     30  H4  UNL     1      11.553   7.632  28.262  1.00  0.00     0.162 HD
BRANCH  28  31
HETATM   31  C8  UNL     1       9.035   7.666  29.442  1.00  0.00     0.190 C 
BRANCH  31  32
HETATM   32  N5  UNL     1       7.689   7.890  29.789  1.00  0.00    -0.264 N 
BRANCH  32  33
HETATM   33  O3  UNL     1       7.176   6.952  30.629  1.00  0.00    -0.288 OA
ATOM     34  H3  UNL     1       6.234   7.007  30.735  1.00  0.00     0.244 HD
ENDBRANCH  32  33
BRANCH  32  35
HETATM   35  C9  UNL     1       7.279   9.210  30.107  1.00  0.00     0.189 C 
BRANCH  35  36
HETATM   36  C10 UNL     1       5.959   9.570  29.383  1.00  0.00     0.162 C 
BRANCH  36  37
HETATM   37  O4  UNL     1       5.872   8.657  28.339  1.00  0.00    -0.392 OA
ATOM     38  H4  UNL     1       5.121   8.117  28.555  1.00  0.00     0.210 HD
ENDBRANCH  36  37
BRANCH  36  39
HETATM   39  C11 UNL     1       4.904   9.461  30.415  1.00  0.00     0.201 C 
BRANCH  39  40
HETATM   40  O5  UNL     1       4.450   8.281  30.818  1.00  0.00    -0.387 OA
BRANCH  40  41
HETATM   41  C12 UNL     1       3.566   8.116  31.812  1.00  0.00     0.186 C 
BRANCH  41  42
HETATM   42  C13 UNL     1       2.627   6.950  31.591  1.00  0.00     0.140 C 
BRANCH  42  43
HETATM   43  N6  UNL     1       3.251   5.703  31.314  1.00  0.00    -0.415 N 
ATOM     44  H6  UNL     1       4.124   5.654  30.789  1.00  0.00     0.153 HD
BRANCH  43  45
HETATM   45  C14 UNL     1       2.614   4.529  31.793  1.00  0.00     0.152 C 
BRANCH  45  46
HETATM   46  C15 UNL     1       2.623   3.488  30.723  1.00  0.00    -0.041 A 
HETATM   47  C16 UNL     1       2.688   3.871  29.412  1.00  0.00     0.012 A 
HETATM   48  C17 UNL     1       2.708   2.887  28.439  1.00  0.00     0.043 A 
HETATM   49  C18 UNL     1       2.666   1.540  28.727  1.00  0.00     0.116 A 
HETATM   50  F1  UNL     1       2.685   0.592  27.736  1.00  0.00    -0.206 F 
HETATM   51  C19 UNL     1       2.601   1.200  30.064  1.00  0.00     0.043 A 
HETATM   52  C20 UNL     1       2.579   2.131  31.065  1.00  0.00     0.012 A 
ENDBRANCH  45  46
ENDBRANCH  43  45
ENDBRANCH  42  43
ENDBRANCH  41  42
ENDBRANCH  40  41
ENDBRANCH  39  40
ENDBRANCH  36  39
ENDBRANCH  35  36
ENDBRANCH  32  35
ENDBRANCH  31  32
ENDBRANCH  28  31
ENDBRANCH   1  27
TORSDOF 22
ENDMDL
MODEL 4
REMARK VINA RESULT: -6.785527479      3.257      8.901
REMARK  22 active torsions:
REMARK  status: ('A' for Active; 'I' for Inactive)
REMARK    1  A    between atoms: C1_2  and  O1_3 
REMARK    2  A    between atoms: C1_2  and  C2_5 
REMARK    3  A    between atoms: C3_8  and  N3_9 
REMARK    4  A    between atoms: N3_9  and  C4_11 
REMARK    5  A    between atoms: C4_11  and  C5_12 
REMARK    6  A    between atoms: C5_12  and  C6_13 
REMARK    7  A    between atoms: C6_13  and  N4_14 
REMARK       I    between atoms: N4_14  and  C7_16 
REMARK    8  A    between atoms: C7_16  and  C8_18 
REMARK    9  A    between atoms: C8_18  and  N5_19 
REMARK   10  A    between atoms: N5_19  and  O3_20 
REMARK   11  A    between atoms: N5_19  and  C9_22 
REMARK   12  A    between atoms: C9_22  and  C10_23 
REMARK   13  A    between atoms: C10_23  and  O4_24 
REMARK   14  A    between atoms: C10_23  and  C11_26 
REMARK   15  A    between atoms: C11_26  and  O5_27 
REMARK   16  A    between atoms: O5_27  and  C12_28 
REMARK   17  A    between atoms: C12_28  and  C13_29 
REMARK   18  A    between atoms: C13_29  and  N6_30 
REMARK   19  A    between atoms: N6_30  and  C14_32 
REMARK   20  A    between atoms: C14_32  and  C15_33 
REMARK   21  A    between atoms: C22_44  and  C23_45 
REMARK   22  A    between atoms: C23_45  and  C24_46 
ROOT
HETATM    1  C6  UNL     1      10.245   0.954  24.749  1.00  0.00     0.128 C 
ENDROOT
BRANCH   1   2
HETATM    2  C5  UNL     1      10.299   1.699  23.464  1.00  0.00     0.065 C 
BRANCH   2   3
HETATM    3  C4  UNL     1      10.912   3.070  23.556  1.00  0.00     0.080 C 
BRANCH   3   4
HETATM    4  N3  UNL     1      10.061   4.125  23.906  1.00  0.00    -0.205 N 
ATOM      5  H3  UNL     1       9.171   3.868  24.332  1.00  0.00     0.183 HD
BRANCH   4   6
HETATM    6  C3  UNL     1      10.279   5.369  23.749  1.00  0.00     0.685 A 
HETATM    7  N2  UNL     1      10.097   6.064  22.628  1.00  0.00    -0.187 N 
HETATM    8  C2  UNL     1      10.357   7.398  22.478  1.00  0.00     0.109 A 
ATOM      9  H2  UNL     1       9.735   5.562  21.817  1.00  0.00     0.184 HD
HETATM   10  C22 UNL     1      10.838   8.034  23.582  1.00  0.00     0.046 A 
HETATM   11  C21 UNL     1      11.047   7.337  24.798  1.00  0.00     0.268 A 
HETATM   12  N7  UNL     1      10.759   6.043  24.827  1.00  0.00    -0.155 N 
HETATM   13  O6  UNL     1      11.487   7.943  25.800  1.00  0.00    -0.267 OA
ATOM     14  H7  UNL     1      10.904   5.531  25.697  1.00  0.00     0.187 HD
BRANCH   8  15
HETATM   15  C1  UNL     1      10.110   8.039  21.200  1.00  0.00     0.178 C 
HETATM   16  N1  UNL     1      10.801   7.968  20.005  1.00  0.00    -0.073 NA
BRANCH  15  17
HETATM   17  O1  UNL     1       9.058   8.810  21.197  1.00  0.00    -0.347 OA
ATOM     18  H1  UNL     1       8.223   8.365  21.283  1.00  0.00     0.219 HD
ENDBRANCH  15  17
ENDBRANCH   8  15
BRANCH  10  19
HETATM   19  C23 UNL     1      11.219   9.462  23.566  1.00  0.00     0.085 C 
BRANCH  19  20
HETATM   20  C24 UNL     1      12.622   9.622  23.119  1.00  0.00    -0.051 A 
HETATM   21  C25 UNL     1      12.961  10.055  21.838  1.00  0.00     0.007 A 
HETATM   22  C26 UNL     1      14.266  10.163  21.412  1.00  0.00     0.004 A 
HETATM   23  C27 UNL     1      15.318   9.843  22.239  1.00  0.00     0.042 A 
HETATM   24  C28 UNL     1      15.001   9.414  23.511  1.00  0.00     0.116 A 
HETATM   25  F2  UNL     1      16.018   9.095  24.341  1.00  0.00    -0.206 F 
HETATM   26  C29 UNL     1      13.699   9.302  23.948  1.00  0.00     0.049 A 
ENDBRANCH  19  20
ENDBRANCH  10  19
ENDBRANCH   4   6
ENDBRANCH   3   4
ENDBRANCH   2   3
ENDBRANCH   1   2
BRANCH   1  27
HETATM   27  N4  UNL     1      10.632   1.719  25.926  1.00  0.00    -0.356 N 
HETATM   28  C7  UNL     1       9.556   2.144  26.749  1.00  0.00     0.258 C 
HETATM   29  O2  UNL     1       8.349   1.856  26.451  1.00  0.00    -0.267 OA
ATOM     30  H4  UNL     1      11.605   1.933  26.144  1.00  0.00     0.162 HD
BRANCH  28  31
HETATM   31  C8  UNL     1       9.745   2.914  27.965  1.00  0.00     0.190 C 
BRANCH  31  32
HETATM   32  N5  UNL     1      10.178   4.250  27.877  1.00  0.00    -0.264 N 
BRANCH  32  33
HETATM   33  O3  UNL     1      11.237   4.431  27.046  1.00  0.00    -0.288 OA
ATOM     34  H3  UNL     1      11.066   5.035  26.333  1.00  0.00     0.244 HD
ENDBRANCH  32  33
BRANCH  32  35
HETATM   35  C9  UNL     1       9.203   5.275  27.773  1.00  0.00     0.189 C 
BRANCH  35  36
HETATM   36  C10 UNL     1       9.554   6.471  28.693  1.00  0.00     0.162 C 
BRANCH  36  37
HETATM   37  O4  UNL     1      10.919   6.659  28.515  1.00  0.00    -0.392 OA
ATOM     38  H4  UNL     1      10.989   7.156  27.708  1.00  0.00     0.210 HD
ENDBRANCH  36  37
BRANCH  36  39
HETATM   39  C11 UNL     1       8.691   7.583  28.236  1.00  0.00     0.201 C 
BRANCH  39  40
HETATM   40  O5  UNL     1       7.521   7.831  28.810  1.00  0.00    -0.387 OA
BRANCH  40  41
HETATM   41  C12 UNL     1       7.229   7.528  30.082  1.00  0.00     0.186 C 
BRANCH  41  42
HETATM   42  C13 UNL     1       6.057   6.581  30.219  1.00  0.00     0.140 C 
BRANCH  42  43
HETATM   43  N6  UNL     1       6.391   5.209  30.389  1.00  0.00    -0.415 N 
ATOM     44  H6  UNL     1       7.096   4.761  29.805  1.00  0.00     0.153 HD
BRANCH  43  45
HETATM   45  C14 UNL     1       5.708   4.488  31.401  1.00  0.00     0.152 C 
BRANCH  45  46
HETATM   46  C15 UNL     1       6.101   3.049  31.337  1.00  0.00    -0.041 A 
HETATM   47  C16 UNL     1       6.802   2.591  30.256  1.00  0.00     0.012 A 
HETATM   48  C17 UNL     1       7.167   1.256  30.225  1.00  0.00     0.043 A 
HETATM   49  C18 UNL     1       6.858   0.367  31.231  1.00  0.00     0.116 A 
HETATM   50  F1  UNL     1       7.233  -0.951  31.165  1.00  0.00    -0.206 F 
HETATM   51  C19 UNL     1       6.148   0.873  32.302  1.00  0.00     0.043 A 
HETATM   52  C20 UNL     1       5.763   2.182  32.383  1.00  0.00     0.012 A 
ENDBRANCH  45  46
ENDBRANCH  43  45
ENDBRANCH  42  43
ENDBRANCH  41  42
ENDBRANCH  40  41
ENDBRANCH  39  40
ENDBRANCH  36  39
ENDBRANCH  35  36
ENDBRANCH  32  35
ENDBRANCH  31  32
ENDBRANCH  28  31
ENDBRANCH   1  27
TORSDOF 22
ENDMDL
MODEL 5
REMARK VINA RESULT: -6.747707008      3.282      5.030
REMARK  22 active torsions:
REMARK  status: ('A' for Active; 'I' for Inactive)
REMARK    1  A    between atoms: C1_2  and  O1_3 
REMARK    2  A    between atoms: C1_2  and  C2_5 
REMARK    3  A    between atoms: C3_8  and  N3_9 
REMARK    4  A    between atoms: N3_9  and  C4_11 
REMARK    5  A    between atoms: C4_11  and  C5_12 
REMARK    6  A    between atoms: C5_12  and  C6_13 
REMARK    7  A    between atoms: C6_13  and  N4_14 
REMARK       I    between atoms: N4_14  and  C7_16 
REMARK    8  A    between atoms: C7_16  and  C8_18 
REMARK    9  A    between atoms: C8_18  and  N5_19 
REMARK   10  A    between atoms: N5_19  and  O3_20 
REMARK   11  A    between atoms: N5_19  and  C9_22 
REMARK   12  A    between atoms: C9_22  and  C10_23 
REMARK   13  A    between atoms: C10_23  and  O4_24 
REMARK   14  A    between atoms: C10_23  and  C11_26 
REMARK   15  A    between atoms: C11_26  and  O5_27 
REMARK   16  A    between atoms: O5_27  and  C12_28 
REMARK   17  A    between atoms: C12_28  and  C13_29 
REMARK   18  A    between atoms: C13_29  and  N6_30 
REMARK   19  A    between atoms: N6_30  and  C14_32 
REMARK   20  A    between atoms: C14_32  and  C15_33 
REMARK   21  A    between atoms: C22_44  and  C23_45 
REMARK   22  A    between atoms: C23_45  and  C24_46 
ROOT
HETATM    1  C6  UNL     1      11.177   6.973  25.049  1.00  0.00     0.128 C 
ENDROOT
BRANCH   1   2
HETATM    2  C5  UNL     1      10.462   6.723  26.328  1.00  0.00     0.065 C 
BRANCH   2   3
HETATM    3  C4  UNL     1      11.200   5.844  27.300  1.00  0.00     0.080 C 
BRANCH   3   4
HETATM    4  N3  UNL     1      10.927   4.472  27.250  1.00  0.00    -0.205 N 
ATOM      5  H3  UNL     1      11.684   3.869  26.930  1.00  0.00     0.183 HD
BRANCH   4   6
HETATM    6  C3  UNL     1       9.835   3.897  27.562  1.00  0.00     0.685 A 
HETATM    7  N2  UNL     1       8.787   4.467  28.154  1.00  0.00    -0.187 N 
HETATM    8  C2  UNL     1       7.631   3.823  28.496  1.00  0.00     0.109 A 
ATOM      9  H2  UNL     1       8.852   5.462  28.369  1.00  0.00     0.184 HD
HETATM   10  C22 UNL     1       7.581   2.496  28.193  1.00  0.00     0.046 A 
HETATM   11  C21 UNL     1       8.670   1.846  27.561  1.00  0.00     0.268 A 
HETATM   12  N7  UNL     1       9.741   2.572  27.275  1.00  0.00    -0.155 N 
HETATM   13  O6  UNL     1       8.599   0.627  27.290  1.00  0.00    -0.267 OA
ATOM     14  H7  UNL     1      10.531   2.115  26.820  1.00  0.00     0.187 HD
BRANCH   8  15
HETATM   15  C1  UNL     1       6.559   4.564  29.135  1.00  0.00     0.178 C 
HETATM   16  N1  UNL     1       6.380   4.938  30.453  1.00  0.00    -0.073 NA
BRANCH  15  17
HETATM   17  O1  UNL     1       5.612   4.927  28.314  1.00  0.00    -0.347 OA
ATOM     18  H1  UNL     1       5.382   4.291  27.647  1.00  0.00     0.219 HD
ENDBRANCH  15  17
ENDBRANCH   8  15
BRANCH  10  19
HETATM   19  C23 UNL     1       6.422   1.651  28.547  1.00  0.00     0.085 C 
BRANCH  19  20
HETATM   20  C24 UNL     1       6.602   1.058  29.893  1.00  0.00    -0.051 A 
HETATM   21  C25 UNL     1       7.034  -0.253  30.089  1.00  0.00     0.007 A 
HETATM   22  C26 UNL     1       7.160  -0.814  31.340  1.00  0.00     0.004 A 
HETATM   23  C27 UNL     1       6.860  -0.101  32.478  1.00  0.00     0.042 A 
HETATM   24  C28 UNL     1       6.431   1.198  32.303  1.00  0.00     0.116 A 
HETATM   25  F2  UNL     1       6.131   1.918  33.407  1.00  0.00    -0.206 F 
HETATM   26  C29 UNL     1       6.301   1.770  31.056  1.00  0.00     0.049 A 
ENDBRANCH  19  20
ENDBRANCH  10  19
ENDBRANCH   4   6
ENDBRANCH   3   4
ENDBRANCH   2   3
ENDBRANCH   1   2
BRANCH   1  27
HETATM   27  N4  UNL     1      10.593   8.005  24.204  1.00  0.00    -0.356 N 
HETATM   28  C7  UNL     1      10.343   7.615  22.862  1.00  0.00     0.258 C 
HETATM   29  O2  UNL     1      10.619   6.437  22.459  1.00  0.00    -0.267 OA
ATOM     30  H4  UNL     1      10.378   8.940  24.551  1.00  0.00     0.162 HD
BRANCH  28  31
HETATM   31  C8  UNL     1       9.764   8.506  21.873  1.00  0.00     0.190 C 
BRANCH  31  32
HETATM   32  N5  UNL     1      10.467   8.770  20.682  1.00  0.00    -0.264 N 
BRANCH  32  33
HETATM   33  O3  UNL     1      10.508   7.719  19.823  1.00  0.00    -0.288 OA
ATOM     34  H3  UNL     1      10.604   7.970  18.913  1.00  0.00     0.244 HD
ENDBRANCH  32  33
BRANCH  32  35
HETATM   35  C9  UNL     1      10.263  10.016  20.034  1.00  0.00     0.189 C 
BRANCH  35  36
HETATM   36  C10 UNL     1      11.604  10.761  19.829  1.00  0.00     0.162 C 
BRANCH  36  37
HETATM   37  O4  UNL     1      11.267  12.108  19.886  1.00  0.00    -0.392 OA
ATOM     38  H4  UNL     1      11.971  12.510  20.383  1.00  0.00     0.210 HD
ENDBRANCH  36  37
BRANCH  36  39
HETATM   39  C11 UNL     1      12.491  10.279  20.911  1.00  0.00     0.201 C 
BRANCH  39  40
HETATM   40  O5  UNL     1      13.788  10.084  20.707  1.00  0.00    -0.387 OA
BRANCH  40  41
HETATM   41  C12 UNL     1      14.662   9.781  21.677  1.00  0.00     0.186 C 
BRANCH  41  42
HETATM   42  C13 UNL     1      14.070   9.873  23.067  1.00  0.00     0.140 C 
BRANCH  42  43
HETATM   43  N6  UNL     1      14.999  10.112  24.116  1.00  0.00    -0.415 N 
ATOM     44  H6  UNL     1      15.731  10.816  24.023  1.00  0.00     0.153 HD
BRANCH  43  45
HETATM   45  C14 UNL     1      14.870   9.338  25.297  1.00  0.00     0.152 C 
BRANCH  45  46
HETATM   46  C15 UNL     1      14.952  10.233  26.490  1.00  0.00    -0.041 A 
HETATM   47  C16 UNL     1      15.635   9.815  27.598  1.00  0.00     0.012 A 
HETATM   48  C17 UNL     1      15.709  10.668  28.686  1.00  0.00     0.043 A 
HETATM   49  C18 UNL     1      15.127  11.917  28.706  1.00  0.00     0.116 A 
HETATM   50  F1  UNL     1      15.218  12.734  29.803  1.00  0.00    -0.206 F 
HETATM   51  C19 UNL     1      14.448  12.296  27.564  1.00  0.00     0.043 A 
HETATM   52  C20 UNL     1      14.345  11.494  26.463  1.00  0.00     0.012 A 
ENDBRANCH  45  46
ENDBRANCH  43  45
ENDBRANCH  42  43
ENDBRANCH  41  42
ENDBRANCH  40  41
ENDBRANCH  39  40
ENDBRANCH  36  39
ENDBRANCH  35  36
ENDBRANCH  32  35
ENDBRANCH  31  32
ENDBRANCH  28  31
ENDBRANCH   1  27
TORSDOF 22
ENDMDL
