MODEL 1
REMARK VINA RESULT: -7.175283261      0.000      0.000
REMARK  13 active torsions:
REMARK  status: ('A' for Active; 'I' for Inactive)
REMARK    1  A    between atoms: C2_2  and  O1_3 
REMARK    2  A    between atoms: C2_2  and  C3_5 
REMARK    3  A    between atoms: C3_5  and  C4_6 
REMARK    4  A    between atoms: C4_6  and  C5_7 
REMARK    5  A    between atoms: C4_6  and  C20_36 
REMARK       I    between atoms: C5_7  and  N1_9 
REMARK    6  A    between atoms: N1_9  and  C6_11 
REMARK    7  A    between atoms: C6_11  and  C7_12 
REMARK    8  A    between atoms: C6_11  and  C17_33 
REMARK       I    between atoms: C7_12  and  N2_14 
REMARK    9  A    between atoms: N2_14  and  C8_16 
REMARK   10  A    between atoms: C8_16  and  C9_17 
REMARK   11  A    between atoms: C8_16  and  C15_29 
REMARK       I    between atoms: C9_17  and  N3_19 
REMARK   12  A    between atoms: N3_19  and  C10_21 
REMARK   13  A    between atoms: C15_29  and  O6_31 
ROOT
HETATM    1  C7  UNL     1      19.723  16.568  33.587  1.00  0.00     0.265 C 
HETATM    2  O3  UNL     1      19.927  16.604  34.795  1.00  0.00    -0.266 OA
HETATM    3  N2  UNL     1      18.694  15.732  33.082  1.00  0.00    -0.340 N 
ATOM      4  H2  UNL     1      18.555  15.662  32.074  1.00  0.00     0.163 HD
ENDROOT
BRANCH   1   5
HETATM    5  C6  UNL     1      20.541  17.390  32.694  1.00  0.00     0.083 C 
BRANCH   5   6
HETATM    6  N1  UNL     1      20.002  17.800  31.448  1.00  0.00    -0.325 N 
HETATM    7  C5  UNL     1      18.957  18.551  31.022  1.00  0.00     0.226 C 
HETATM    8  O2  UNL     1      18.184  19.135  31.871  1.00  0.00    -0.273 OA
ATOM      9  H1  UNL     1      20.544  17.433  30.665  1.00  0.00     0.168 HD
BRANCH   7  10
HETATM   10  C4  UNL     1      18.603  18.761  29.593  1.00  0.00     0.084 C 
BRANCH  10  11
HETATM   11  C3  UNL     1      18.057  17.538  29.001  1.00  0.00     0.045 C 
BRANCH  11  12
HETATM   12  C2  UNL     1      16.545  17.426  29.198  1.00  0.00     0.114 C 
HETATM   13  C1  UNL     1      15.881  16.966  27.908  1.00  0.00     0.039 C 
BRANCH  12  14
HETATM   14  O1  UNL     1      15.991  18.671  29.502  1.00  0.00    -0.396 OA
ATOM     15  H1  UNL     1      16.701  19.205  29.838  1.00  0.00     0.210 HD
ENDBRANCH  12  14
ENDBRANCH  11  12
ENDBRANCH  10  11
BRANCH  10  16
HETATM   16  C20 UNL     1      19.763  19.410  28.877  1.00  0.00    -0.001 C 
HETATM   17  C21 UNL     1      19.812  19.307  27.412  1.00  0.00     0.005 C 
HETATM   18  C22 UNL     1      19.435  20.532  26.622  1.00  0.00     0.000 C 
HETATM   19  C23 UNL     1      19.073  21.751  27.352  1.00  0.00     0.000 C 
HETATM   20  C24 UNL     1      19.572  21.946  28.731  1.00  0.00     0.000 C 
HETATM   21  C25 UNL     1      20.198  20.756  29.343  1.00  0.00     0.005 C 
ENDBRANCH  10  16
ENDBRANCH   7  10
ENDBRANCH   5   6
BRANCH   5  22
HETATM   22  C17 UNL     1      21.463  18.379  33.341  1.00  0.00     0.033 C 
HETATM   23  C18 UNL     1      22.508  18.742  32.301  1.00  0.00     0.016 C 
HETATM   24  C19 UNL     1      20.786  19.598  33.854  1.00  0.00     0.016 C 
ENDBRANCH   5  22
ENDBRANCH   1   5
BRANCH   3  25
HETATM   25  C8  UNL     1      17.826  14.968  33.984  1.00  0.00     0.205 C 
BRANCH  25  26
HETATM   26  C9  UNL     1      17.777  13.526  33.717  1.00  0.00     0.243 C 
HETATM   27  O4  UNL     1      17.565  12.634  34.541  1.00  0.00    -0.271 OA
HETATM   28  N3  UNL     1      17.990  13.129  32.361  1.00  0.00    -0.354 N 
ATOM     29  H3  UNL     1      18.157  13.862  31.670  1.00  0.00     0.162 HD
BRANCH  28  30
HETATM   30  C10 UNL     1      17.985  11.762  31.904  1.00  0.00     0.094 C 
HETATM   31  C11 UNL     1      19.370  11.384  31.487  1.00  0.00     0.045 C 
HETATM   32  C12 UNL     1      19.693  11.633  30.040  1.00  0.00     0.124 C 
HETATM   33  N4  UNL     1      18.789  12.633  29.512  1.00  0.00    -0.361 N 
HETATM   34  C13 UNL     1      17.408  12.395  29.661  1.00  0.00     0.219 C 
ATOM     35  H4  UNL     1      19.137  13.475  29.051  1.00  0.00     0.162 HD
HETATM   36  O5  UNL     1      16.594  12.896  28.862  1.00  0.00    -0.274 OA
HETATM   37  C14 UNL     1      16.965  11.516  30.816  1.00  0.00     0.128 C 
ENDBRANCH  28  30
ENDBRANCH  25  26
BRANCH  25  38
HETATM   38  C15 UNL     1      16.467  15.654  34.018  1.00  0.00     0.146 C 
HETATM   39  C16 UNL     1      16.261  16.475  32.762  1.00  0.00     0.042 C 
BRANCH  38  40
HETATM   40  O6  UNL     1      15.391  14.811  34.153  1.00  0.00    -0.393 OA
ATOM     41  H6  UNL     1      14.597  15.097  33.717  1.00  0.00     0.210 HD
ENDBRANCH  38  40
ENDBRANCH  25  38
ENDBRANCH   3  25
TORSDOF 13
ENDMDL
MODEL 2
REMARK VINA RESULT: -7.063656043      2.097      5.490
REMARK  13 active torsions:
REMARK  status: ('A' for Active; 'I' for Inactive)
REMARK    1  A    between atoms: C2_2  and  O1_3 
REMARK    2  A    between atoms: C2_2  and  C3_5 
REMARK    3  A    between atoms: C3_5  and  C4_6 
REMARK    4  A    between atoms: C4_6  and  C5_7 
REMARK    5  A    between atoms: C4_6  and  C20_36 
REMARK       I    between atoms: C5_7  and  N1_9 
REMARK    6  A    between atoms: N1_9  and  C6_11 
REMARK    7  A    between atoms: C6_11  and  C7_12 
REMARK    8  A    between atoms: C6_11  and  C17_33 
REMARK       I    between atoms: C7_12  and  N2_14 
REMARK    9  A    between atoms: N2_14  and  C8_16 
REMARK   10  A    between atoms: C8_16  and  C9_17 
REMARK   11  A    between atoms: C8_16  and  C15_29 
REMARK       I    between atoms: C9_17  and  N3_19 
REMARK   12  A    between atoms: N3_19  and  C10_21 
REMARK   13  A    between atoms: C15_29  and  O6_31 
ROOT
HETATM    1  C7  UNL     1      16.534  15.101  27.951  1.00  0.00     0.265 C 
HETATM    2  O3  UNL     1      15.363  14.799  28.147  1.00  0.00    -0.266 OA
HETATM    3  N2  UNL     1      17.561  14.278  28.483  1.00  0.00    -0.340 N 
ATOM      4  H2  UNL     1      18.535  14.554  28.363  1.00  0.00     0.163 HD
ENDROOT
BRANCH   1   5
HETATM    5  C6  UNL     1      16.847  16.297  27.168  1.00  0.00     0.083 C 
BRANCH   5   6
HETATM    6  N1  UNL     1      17.657  17.308  27.748  1.00  0.00    -0.325 N 
HETATM    7  C5  UNL     1      17.486  18.332  28.619  1.00  0.00     0.226 C 
HETATM    8  O2  UNL     1      16.340  18.537  29.169  1.00  0.00    -0.273 OA
ATOM      9  H1  UNL     1      18.622  17.248  27.423  1.00  0.00     0.168 HD
BRANCH   7  10
HETATM   10  C4  UNL     1      18.555  19.291  29.003  1.00  0.00     0.084 C 
BRANCH  10  11
HETATM   11  C3  UNL     1      19.035  20.040  27.840  1.00  0.00     0.045 C 
BRANCH  11  12
HETATM   12  C2  UNL     1      18.733  21.534  27.951  1.00  0.00     0.114 C 
HETATM   13  C1  UNL     1      19.429  22.294  26.829  1.00  0.00     0.039 C 
BRANCH  12  14
HETATM   14  O1  UNL     1      19.234  22.055  29.146  1.00  0.00    -0.396 OA
ATOM     15  H1  UNL     1      18.542  22.593  29.513  1.00  0.00     0.210 HD
ENDBRANCH  12  14
ENDBRANCH  11  12
ENDBRANCH  10  11
BRANCH  10  16
HETATM   16  C20 UNL     1      19.595  18.580  29.837  1.00  0.00    -0.001 C 
HETATM   17  C21 UNL     1      21.007  18.769  29.482  1.00  0.00     0.005 C 
HETATM   18  C22 UNL     1      21.821  19.684  30.358  1.00  0.00     0.000 C 
HETATM   19  C23 UNL     1      21.171  20.304  31.517  1.00  0.00     0.000 C 
HETATM   20  C24 UNL     1      19.980  19.659  32.111  1.00  0.00     0.000 C 
HETATM   21  C25 UNL     1      19.401  18.559  31.313  1.00  0.00     0.005 C 
ENDBRANCH  10  16
ENDBRANCH   7  10
ENDBRANCH   5   6
BRANCH   5  22
HETATM   22  C17 UNL     1      17.028  16.111  25.692  1.00  0.00     0.033 C 
HETATM   23  C18 UNL     1      15.667  16.335  25.057  1.00  0.00     0.016 C 
HETATM   24  C19 UNL     1      18.045  17.007  25.085  1.00  0.00     0.016 C 
ENDBRANCH   5  22
ENDBRANCH   1   5
BRANCH   3  25
HETATM   25  C8  UNL     1      17.245  13.039  29.201  1.00  0.00     0.205 C 
BRANCH  25  26
HETATM   26  C9  UNL     1      17.907  12.897  30.503  1.00  0.00     0.243 C 
HETATM   27  O4  UNL     1      18.766  12.065  30.802  1.00  0.00    -0.271 OA
HETATM   28  N3  UNL     1      17.514  13.826  31.514  1.00  0.00    -0.354 N 
ATOM     29  H3  UNL     1      16.810  14.525  31.272  1.00  0.00     0.162 HD
BRANCH  28  30
HETATM   30  C10 UNL     1      18.046  13.843  32.854  1.00  0.00     0.094 C 
HETATM   31  C11 UNL     1      17.142  13.051  33.745  1.00  0.00     0.045 C 
HETATM   32  C12 UNL     1      16.048  13.839  34.408  1.00  0.00     0.124 C 
HETATM   33  N4  UNL     1      15.803  15.051  33.653  1.00  0.00    -0.361 N 
HETATM   34  C13 UNL     1      16.910  15.886  33.402  1.00  0.00     0.219 C 
ATOM     35  H4  UNL     1      14.869  15.290  33.318  1.00  0.00     0.162 HD
HETATM   36  O5  UNL     1      16.747  17.107  33.216  1.00  0.00    -0.274 OA
HETATM   37  C14 UNL     1      18.284  15.244  33.368  1.00  0.00     0.128 C 
ENDBRANCH  28  30
ENDBRANCH  25  26
BRANCH  25  38
HETATM   38  C15 UNL     1      17.467  11.875  28.245  1.00  0.00     0.146 C 
HETATM   39  C16 UNL     1      18.721  12.100  27.425  1.00  0.00     0.042 C 
BRANCH  38  40
HETATM   40  O6  UNL     1      17.567  10.642  28.841  1.00  0.00    -0.393 OA
ATOM     41  H6  UNL     1      18.096  10.008  28.371  1.00  0.00     0.210 HD
ENDBRANCH  38  40
ENDBRANCH  25  38
ENDBRANCH   3  25
TORSDOF 13
ENDMDL
MODEL 3
REMARK VINA RESULT: -6.958758944      2.907      5.532
REMARK  13 active torsions:
REMARK  status: ('A' for Active; 'I' for Inactive)
REMARK    1  A    between atoms: C2_2  and  O1_3 
REMARK    2  A    between atoms: C2_2  and  C3_5 
REMARK    3  A    between atoms: C3_5  and  C4_6 
REMARK    4  A    between atoms: C4_6  and  C5_7 
REMARK    5  A    between atoms: C4_6  and  C20_36 
REMARK       I    between atoms: C5_7  and  N1_9 
REMARK    6  A    between atoms: N1_9  and  C6_11 
REMARK    7  A    between atoms: C6_11  and  C7_12 
REMARK    8  A    between atoms: C6_11  and  C17_33 
REMARK       I    between atoms: C7_12  and  N2_14 
REMARK    9  A    between atoms: N2_14  and  C8_16 
REMARK   10  A    between atoms: C8_16  and  C9_17 
REMARK   11  A    between atoms: C8_16  and  C15_29 
REMARK       I    between atoms: C9_17  and  N3_19 
REMARK   12  A    between atoms: N3_19  and  C10_21 
REMARK   13  A    between atoms: C15_29  and  O6_31 
ROOT
HETATM    1  C7  UNL     1      19.420  20.385  30.868  1.00  0.00     0.265 C 
HETATM    2  O3  UNL     1      18.728  21.113  31.570  1.00  0.00    -0.266 OA
HETATM    3  N2  UNL     1      18.890  19.148  30.418  1.00  0.00    -0.340 N 
ATOM      4  H2  UNL     1      19.480  18.518  29.875  1.00  0.00     0.163 HD
ENDROOT
BRANCH   1   5
HETATM    5  C6  UNL     1      20.773  20.809  30.505  1.00  0.00     0.083 C 
BRANCH   5   6
HETATM    6  N1  UNL     1      21.752  19.823  30.220  1.00  0.00    -0.325 N 
HETATM    7  C5  UNL     1      22.228  18.703  30.817  1.00  0.00     0.226 C 
HETATM    8  O2  UNL     1      21.725  18.289  31.927  1.00  0.00    -0.273 OA
ATOM      9  H1  UNL     1      22.221  20.004  29.333  1.00  0.00     0.168 HD
BRANCH   7  10
HETATM   10  C4  UNL     1      23.342  17.877  30.279  1.00  0.00     0.084 C 
BRANCH  10  11
HETATM   11  C3  UNL     1      24.515  17.939  31.154  1.00  0.00     0.045 C 
BRANCH  11  12
HETATM   12  C2  UNL     1      24.768  16.615  31.875  1.00  0.00     0.114 C 
HETATM   13  C1  UNL     1      24.340  15.449  30.994  1.00  0.00     0.039 C 
BRANCH  12  14
HETATM   14  O1  UNL     1      24.002  16.529  33.039  1.00  0.00    -0.396 OA
ATOM     15  H1  UNL     1      23.749  17.418  33.258  1.00  0.00     0.210 HD
ENDBRANCH  12  14
ENDBRANCH  11  12
ENDBRANCH  10  11
BRANCH  10  16
HETATM   16  C20 UNL     1      23.556  18.208  28.821  1.00  0.00    -0.001 C 
HETATM   17  C21 UNL     1      24.936  18.233  28.317  1.00  0.00     0.005 C 
HETATM   18  C22 UNL     1      25.386  17.063  27.482  1.00  0.00     0.000 C 
HETATM   19  C23 UNL     1      24.424  15.993  27.202  1.00  0.00     0.000 C 
HETATM   20  C24 UNL     1      22.975  16.289  27.250  1.00  0.00     0.000 C 
HETATM   21  C25 UNL     1      22.625  17.602  27.830  1.00  0.00     0.005 C 
ENDBRANCH  10  16
ENDBRANCH   7  10
ENDBRANCH   5   6
BRANCH   5  22
HETATM   22  C17 UNL     1      20.894  22.070  29.704  1.00  0.00     0.033 C 
HETATM   23  C18 UNL     1      19.888  21.964  28.572  1.00  0.00     0.016 C 
HETATM   24  C19 UNL     1      20.676  23.313  30.488  1.00  0.00     0.016 C 
ENDBRANCH   5  22
ENDBRANCH   1   5
BRANCH   3  25
HETATM   25  C8  UNL     1      17.508  18.760  30.718  1.00  0.00     0.205 C 
BRANCH  25  26
HETATM   26  C9  UNL     1      17.364  17.798  31.818  1.00  0.00     0.243 C 
HETATM   27  O4  UNL     1      16.459  17.771  32.654  1.00  0.00    -0.271 OA
HETATM   28  N3  UNL     1      18.374  16.793  31.911  1.00  0.00    -0.354 N 
ATOM     29  H3  UNL     1      19.122  16.803  31.217  1.00  0.00     0.162 HD
BRANCH  28  30
HETATM   30  C10 UNL     1      18.408  15.766  32.922  1.00  0.00     0.094 C 
HETATM   31  C11 UNL     1      19.232  16.246  34.074  1.00  0.00     0.045 C 
HETATM   32  C12 UNL     1      20.695  15.908  33.999  1.00  0.00     0.124 C 
HETATM   33  N4  UNL     1      21.058  15.654  32.620  1.00  0.00    -0.361 N 
HETATM   34  C13 UNL     1      20.306  14.686  31.924  1.00  0.00     0.219 C 
ATOM     35  H4  UNL     1      21.826  16.155  32.171  1.00  0.00     0.162 HD
HETATM   36  O5  UNL     1      20.809  14.068  30.967  1.00  0.00    -0.274 OA
HETATM   37  C14 UNL     1      18.882  14.436  32.385  1.00  0.00     0.128 C 
ENDBRANCH  28  30
ENDBRANCH  25  26
BRANCH  25  38
HETATM   38  C15 UNL     1      16.846  18.338  29.414  1.00  0.00     0.146 C 
HETATM   39  C16 UNL     1      17.888  18.161  28.329  1.00  0.00     0.042 C 
BRANCH  38  40
HETATM   40  O6  UNL     1      16.106  17.183  29.482  1.00  0.00    -0.393 OA
ATOM     41  H6  UNL     1      16.507  16.422  29.080  1.00  0.00     0.210 HD
ENDBRANCH  38  40
ENDBRANCH  25  38
ENDBRANCH   3  25
TORSDOF 13
ENDMDL
MODEL 4
REMARK VINA RESULT: -6.925267374      3.421      6.244
REMARK  13 active torsions:
REMARK  status: ('A' for Active; 'I' for Inactive)
REMARK    1  A    between atoms: C2_2  and  O1_3 
REMARK    2  A    between atoms: C2_2  and  C3_5 
REMARK    3  A    between atoms: C3_5  and  C4_6 
REMARK    4  A    between atoms: C4_6  and  C5_7 
REMARK    5  A    between atoms: C4_6  and  C20_36 
REMARK       I    between atoms: C5_7  and  N1_9 
REMARK    6  A    between atoms: N1_9  and  C6_11 
REMARK    7  A    between atoms: C6_11  and  C7_12 
REMARK    8  A    between atoms: C6_11  and  C17_33 
REMARK       I    between atoms: C7_12  and  N2_14 
REMARK    9  A    between atoms: N2_14  and  C8_16 
REMARK   10  A    between atoms: C8_16  and  C9_17 
REMARK   11  A    between atoms: C8_16  and  C15_29 
REMARK       I    between atoms: C9_17  and  N3_19 
REMARK   12  A    between atoms: N3_19  and  C10_21 
REMARK   13  A    between atoms: C15_29  and  O6_31 
ROOT
HETATM    1  C7  UNL     1      18.898  19.158  30.408  1.00  0.00     0.265 C 
HETATM    2  O3  UNL     1      18.255  20.030  30.981  1.00  0.00    -0.266 OA
HETATM    3  N2  UNL     1      18.790  17.814  30.850  1.00  0.00    -0.340 N 
ATOM      4  H2  UNL     1      19.361  17.094  30.408  1.00  0.00     0.163 HD
ENDROOT
BRANCH   1   5
HETATM    5  C6  UNL     1      19.757  19.521  29.280  1.00  0.00     0.083 C 
BRANCH   5   6
HETATM    6  N1  UNL     1      20.856  18.686  28.954  1.00  0.00    -0.325 N 
HETATM    7  C5  UNL     1      22.143  18.545  29.354  1.00  0.00     0.226 C 
HETATM    8  O2  UNL     1      22.617  19.281  30.299  1.00  0.00    -0.273 OA
ATOM      9  H1  UNL     1      20.613  18.013  28.226  1.00  0.00     0.168 HD
BRANCH   7  10
HETATM   10  C4  UNL     1      23.104  17.578  28.761  1.00  0.00     0.084 C 
BRANCH  10  11
HETATM   11  C3  UNL     1      24.356  18.239  28.387  1.00  0.00     0.045 C 
BRANCH  11  12
HETATM   12  C2  UNL     1      25.577  17.553  28.998  1.00  0.00     0.114 C 
HETATM   13  C1  UNL     1      26.497  17.042  27.898  1.00  0.00     0.039 C 
BRANCH  12  14
HETATM   14  O1  UNL     1      25.197  16.435  29.743  1.00  0.00    -0.396 OA
ATOM     15  H1  UNL     1      24.320  16.612  30.062  1.00  0.00     0.210 HD
ENDBRANCH  12  14
ENDBRANCH  11  12
ENDBRANCH  10  11
BRANCH  10  16
HETATM   16  C20 UNL     1      22.409  16.770  27.690  1.00  0.00    -0.001 C 
HETATM   17  C21 UNL     1      22.834  16.964  26.298  1.00  0.00     0.005 C 
HETATM   18  C22 UNL     1      23.694  15.893  25.683  1.00  0.00     0.000 C 
HETATM   19  C23 UNL     1      24.032  14.718  26.493  1.00  0.00     0.000 C 
HETATM   20  C24 UNL     1      23.151  14.335  27.618  1.00  0.00     0.000 C 
HETATM   21  C25 UNL     1      22.128  15.336  27.979  1.00  0.00     0.005 C 
ENDBRANCH  10  16
ENDBRANCH   7  10
ENDBRANCH   5   6
BRANCH   5  22
HETATM   22  C17 UNL     1      19.093  20.179  28.108  1.00  0.00     0.033 C 
HETATM   23  C18 UNL     1      19.446  21.653  28.181  1.00  0.00     0.016 C 
HETATM   24  C19 UNL     1      19.477  19.609  26.791  1.00  0.00     0.016 C 
ENDBRANCH   5  22
ENDBRANCH   1   5
BRANCH   3  25
HETATM   25  C8  UNL     1      17.870  17.442  31.930  1.00  0.00     0.205 C 
BRANCH  25  26
HETATM   26  C9  UNL     1      18.522  17.060  33.188  1.00  0.00     0.243 C 
HETATM   27  O4  UNL     1      17.985  16.518  34.158  1.00  0.00    -0.271 OA
HETATM   28  N3  UNL     1      19.919  17.341  33.285  1.00  0.00    -0.354 N 
ATOM     29  H3  UNL     1      20.374  17.780  32.483  1.00  0.00     0.162 HD
BRANCH  28  30
HETATM   30  C10 UNL     1      20.730  17.045  34.439  1.00  0.00     0.094 C 
HETATM   31  C11 UNL     1      21.098  18.327  35.116  1.00  0.00     0.045 C 
HETATM   32  C12 UNL     1      22.384  18.950  34.650  1.00  0.00     0.124 C 
HETATM   33  N4  UNL     1      22.705  18.455  33.326  1.00  0.00    -0.361 N 
HETATM   34  C13 UNL     1      22.761  17.057  33.158  1.00  0.00     0.219 C 
ATOM     35  H4  UNL     1      22.882  19.092  32.549  1.00  0.00     0.162 HD
HETATM   36  O5  UNL     1      23.468  16.560  32.261  1.00  0.00    -0.274 OA
HETATM   37  C14 UNL     1      21.938  16.201  34.102  1.00  0.00     0.128 C 
ENDBRANCH  28  30
ENDBRANCH  25  26
BRANCH  25  38
HETATM   38  C15 UNL     1      16.896  16.409  31.380  1.00  0.00     0.146 C 
HETATM   39  C16 UNL     1      17.642  15.168  30.934  1.00  0.00     0.042 C 
BRANCH  38  40
HETATM   40  O6  UNL     1      15.909  16.018  32.250  1.00  0.00    -0.393 OA
ATOM     41  H6  UNL     1      15.322  15.347  31.920  1.00  0.00     0.210 HD
ENDBRANCH  38  40
ENDBRANCH  25  38
ENDBRANCH   3  25
TORSDOF 13
ENDMDL
MODEL 5
REMARK VINA RESULT: -6.923707080      3.180      6.944
REMARK  13 active torsions:
REMARK  status: ('A' for Active; 'I' for Inactive)
REMARK    1  A    between atoms: C2_2  and  O1_3 
REMARK    2  A    between atoms: C2_2  and  C3_5 
REMARK    3  A    between atoms: C3_5  and  C4_6 
REMARK    4  A    between atoms: C4_6  and  C5_7 
REMARK    5  A    between atoms: C4_6  and  C20_36 
REMARK       I    between atoms: C5_7  and  N1_9 
REMARK    6  A    between atoms: N1_9  and  C6_11 
REMARK    7  A    between atoms: C6_11  and  C7_12 
REMARK    8  A    between atoms: C6_11  and  C17_33 
REMARK       I    between atoms: C7_12  and  N2_14 
REMARK    9  A    between atoms: N2_14  and  C8_16 
REMARK   10  A    between atoms: C8_16  and  C9_17 
REMARK   11  A    between atoms: C8_16  and  C15_29 
REMARK       I    between atoms: C9_17  and  N3_19 
REMARK   12  A    between atoms: N3_19  and  C10_21 
REMARK   13  A    between atoms: C15_29  and  O6_31 
ROOT
HETATM    1  C7  UNL     1      18.902  20.253  30.808  1.00  0.00     0.265 C 
HETATM    2  O3  UNL     1      17.839  19.651  30.904  1.00  0.00    -0.266 OA
HETATM    3  N2  UNL     1      19.394  20.590  29.521  1.00  0.00    -0.340 N 
ATOM      4  H2  UNL     1      20.302  21.046  29.435  1.00  0.00     0.163 HD
ENDROOT
BRANCH   1   5
HETATM    5  C6  UNL     1      19.637  20.615  32.021  1.00  0.00     0.083 C 
BRANCH   5   6
HETATM    6  N1  UNL     1      20.787  19.865  32.380  1.00  0.00    -0.325 N 
HETATM    7  C5  UNL     1      21.945  19.489  31.787  1.00  0.00     0.226 C 
HETATM    8  O2  UNL     1      22.220  19.871  30.588  1.00  0.00    -0.273 OA
ATOM      9  H1  UNL     1      20.725  19.519  33.337  1.00  0.00     0.168 HD
BRANCH   7  10
HETATM   10  C4  UNL     1      22.970  18.622  32.426  1.00  0.00     0.084 C 
BRANCH  10  11
HETATM   11  C3  UNL     1      23.338  17.506  31.552  1.00  0.00     0.045 C 
BRANCH  11  12
HETATM   12  C2  UNL     1      24.848  17.412  31.339  1.00  0.00     0.114 C 
HETATM   13  C1  UNL     1      25.170  17.426  29.851  1.00  0.00     0.039 C 
BRANCH  12  14
HETATM   14  O1  UNL     1      25.346  16.206  31.837  1.00  0.00    -0.396 OA
ATOM     15  H1  UNL     1      24.780  15.962  32.560  1.00  0.00     0.210 HD
ENDBRANCH  12  14
ENDBRANCH  11  12
ENDBRANCH  10  11
BRANCH  10  16
HETATM   16  C20 UNL     1      22.534  18.277  33.831  1.00  0.00    -0.001 C 
HETATM   17  C21 UNL     1      22.083  16.904  34.093  1.00  0.00     0.005 C 
HETATM   18  C22 UNL     1      23.034  15.994  34.825  1.00  0.00     0.000 C 
HETATM   19  C23 UNL     1      24.328  16.534  35.251  1.00  0.00     0.000 C 
HETATM   20  C24 UNL     1      24.476  17.992  35.453  1.00  0.00     0.000 C 
HETATM   21  C25 UNL     1      23.349  18.808  34.958  1.00  0.00     0.005 C 
ENDBRANCH  10  16
ENDBRANCH   7  10
ENDBRANCH   5   6
BRANCH   5  22
HETATM   22  C17 UNL     1      19.699  22.072  32.365  1.00  0.00     0.033 C 
HETATM   23  C18 UNL     1      20.120  22.156  33.821  1.00  0.00     0.016 C 
HETATM   24  C19 UNL     1      20.617  22.863  31.505  1.00  0.00     0.016 C 
ENDBRANCH   5  22
ENDBRANCH   1   5
BRANCH   3  25
HETATM   25  C8  UNL     1      18.619  20.295  28.311  1.00  0.00     0.205 C 
BRANCH  25  26
HETATM   26  C9  UNL     1      18.808  18.942  27.774  1.00  0.00     0.243 C 
HETATM   27  O4  UNL     1      19.744  18.557  27.069  1.00  0.00    -0.271 OA
HETATM   28  N3  UNL     1      17.806  17.984  28.115  1.00  0.00    -0.354 N 
ATOM     29  H3  UNL     1      17.033  18.292  28.706  1.00  0.00     0.162 HD
BRANCH  28  30
HETATM   30  C10 UNL     1      17.814  16.609  27.680  1.00  0.00     0.094 C 
HETATM   31  C11 UNL     1      16.473  16.273  27.110  1.00  0.00     0.045 C 
HETATM   32  C12 UNL     1      15.479  15.722  28.094  1.00  0.00     0.124 C 
HETATM   33  N4  UNL     1      15.863  16.117  29.434  1.00  0.00    -0.361 N 
HETATM   34  C13 UNL     1      17.172  15.800  29.848  1.00  0.00     0.219 C 
ATOM     35  H4  UNL     1      15.212  16.602  30.052  1.00  0.00     0.162 HD
HETATM   36  O5  UNL     1      17.430  15.649  31.057  1.00  0.00    -0.274 OA
HETATM   37  C14 UNL     1      18.234  15.655  28.774  1.00  0.00     0.128 C 
ENDBRANCH  28  30
ENDBRANCH  25  26
BRANCH  25  38
HETATM   38  C15 UNL     1      18.868  21.416  27.311  1.00  0.00     0.146 C 
HETATM   39  C16 UNL     1      19.797  22.454  27.904  1.00  0.00     0.042 C 
BRANCH  38  40
HETATM   40  O6  UNL     1      19.393  21.017  26.106  1.00  0.00    -0.393 OA
ATOM     41  H6  UNL     1      19.630  20.099  26.053  1.00  0.00     0.210 HD
ENDBRANCH  38  40
ENDBRANCH  25  38
ENDBRANCH   3  25
TORSDOF 13
ENDMDL
