MODEL 1
REMARK VINA RESULT: -7.212884809      0.000      0.000
REMARK  7 active torsions:
REMARK  status: ('A' for Active; 'I' for Inactive)
REMARK    1  A    between atoms: C2_2  and  N1_3 
REMARK    2  A    between atoms: N1_3  and  C3_6 
REMARK    3  A    between atoms: C3_6  and  C4_7 
REMARK    4  A    between atoms: C4_7  and  C5_8 
REMARK    5  A    between atoms: C5_8  and  C7_10 
REMARK    6  A    between atoms: C7_10  and  C8_11 
REMARK    7  A    between atoms: C8_11  and  N2_12 
ROOT
HETATM    1  N2  UNL     1      80.908  60.237  13.275  1.00  0.00    -0.348 N 
HETATM    2  C9  UNL     1      79.675  59.665  12.867  1.00  0.00     0.160 C 
HETATM    3  C10 UNL     1      78.463  60.468  13.200  1.00  0.00    -0.060 C 
HETATM    4  C11 UNL     1      77.304  59.974  12.859  1.00  0.00    -0.021 C 
HETATM    5  C12 UNL     1      75.973  60.569  13.072  1.00  0.00     0.033 C 
HETATM    6  C13 UNL     1      76.046  61.924  13.804  1.00  0.00     0.004 C 
HETATM    7  C14 UNL     1      75.453  61.616  15.120  1.00  0.00     0.016 C 
HETATM    8  C15 UNL     1      73.973  61.502  14.705  1.00  0.00     0.034 C 
HETATM    9  C16 UNL     1      73.750  62.992  14.636  1.00  0.00    -0.022 C 
HETATM   10  C17 UNL     1      74.556  63.611  15.462  1.00  0.00    -0.060 C 
HETATM   11  C18 UNL     1      74.738  65.034  15.785  1.00  0.00     0.034 C 
HETATM   12  C19 UNL     1      74.552  64.998  17.305  1.00  0.00     0.131 C 
HETATM   13  N3  UNL     1      73.838  63.750  17.700  1.00  0.00    -0.359 N 
ATOM     14  H3  UNL     1      73.040  63.824  18.331  1.00  0.00     0.162 HD
HETATM   15  C20 UNL     1      74.223  62.451  17.231  1.00  0.00     0.230 C 
HETATM   16  O1  UNL     1      73.745  61.432  17.635  1.00  0.00    -0.272 OA
HETATM   17  C21 UNL     1      75.290  62.567  16.189  1.00  0.00     0.065 C 
HETATM   18  C22 UNL     1      76.442  62.797  17.068  1.00  0.00     0.031 C 
HETATM   19  C23 UNL     1      75.973  65.545  15.238  1.00  0.00     0.015 C 
HETATM   20  C24 UNL     1      76.327  64.892  13.918  1.00  0.00    -0.009 A 
HETATM   21  C25 UNL     1      77.021  65.940  13.024  1.00  0.00     0.005 A 
HETATM   22  C26 UNL     1      78.176  64.959  12.948  1.00  0.00     0.006 A 
HETATM   23  C27 UNL     1      77.494  64.010  13.900  1.00  0.00    -0.001 A 
HETATM   24  C28 UNL     1      77.307  62.584  13.499  1.00  0.00    -0.028 C 
HETATM   25  C29 UNL     1      77.311  62.728  11.948  1.00  0.00     0.016 C 
HETATM   26  C30 UNL     1      78.473  61.769  13.901  1.00  0.00     0.033 C 
HETATM   27  C31 UNL     1      79.809  62.428  13.808  1.00  0.00     0.113 C 
HETATM   28  C32 UNL     1      80.936  61.478  13.957  1.00  0.00     0.220 C 
HETATM   29  O2  UNL     1      81.923  61.743  14.677  1.00  0.00    -0.273 OA
ENDROOT
BRANCH   1  30
HETATM   30  C8  UNL     1      82.175  59.583  13.012  1.00  0.00     0.126 C 
BRANCH  30  31
HETATM   31  C7  UNL     1      82.948  60.225  11.887  1.00  0.00     0.024 C 
BRANCH  31  32
HETATM   32  C5  UNL     1      84.413  60.000  12.092  1.00  0.00    -0.015 C 
HETATM   33  C6  UNL     1      85.106  60.101  10.748  1.00  0.00     0.010 C 
BRANCH  32  34
HETATM   34  C4  UNL     1      85.044  61.009  13.029  1.00  0.00     0.031 C 
BRANCH  34  35
HETATM   35  C3  UNL     1      85.624  60.258  14.218  1.00  0.00     0.232 C 
BRANCH  35  36
HETATM   36  N1  UNL     1      84.681  60.368  15.290  1.00  0.00    -0.075 N 
ATOM     37  H12 UNL     1      84.260  59.461  15.492  1.00  0.00     0.277 HD
ATOM     38  H11 UNL     1      83.851  60.878  14.988  1.00  0.00     0.277 HD
BRANCH  36  39
HETATM   39  C2  UNL     1      85.228  60.951  16.485  1.00  0.00     0.228 C 
HETATM   40  C1  UNL     1      84.918  62.448  16.492  1.00  0.00     0.034 C 
ENDBRANCH  36  39
ENDBRANCH  35  36
ENDBRANCH  34  35
ENDBRANCH  32  34
ENDBRANCH  31  32
ENDBRANCH  30  31
ENDBRANCH   1  30
TORSDOF 7
ENDMDL
MODEL 2
REMARK VINA RESULT: -7.100107454      1.659      2.235
REMARK  7 active torsions:
REMARK  status: ('A' for Active; 'I' for Inactive)
REMARK    1  A    between atoms: C2_2  and  N1_3 
REMARK    2  A    between atoms: N1_3  and  C3_6 
REMARK    3  A    between atoms: C3_6  and  C4_7 
REMARK    4  A    between atoms: C4_7  and  C5_8 
REMARK    5  A    between atoms: C5_8  and  C7_10 
REMARK    6  A    between atoms: C7_10  and  C8_11 
REMARK    7  A    between atoms: C8_11  and  N2_12 
ROOT
HETATM    1  N2  UNL     1      82.120  61.046  11.809  1.00  0.00    -0.348 N 
HETATM    2  C9  UNL     1      80.954  60.705  11.076  1.00  0.00     0.160 C 
HETATM    3  C10 UNL     1      79.761  61.558  11.349  1.00  0.00    -0.060 C 
HETATM    4  C11 UNL     1      78.659  61.272  10.710  1.00  0.00    -0.021 C 
HETATM    5  C12 UNL     1      77.360  61.960  10.804  1.00  0.00     0.033 C 
HETATM    6  C13 UNL     1      77.386  63.131  11.805  1.00  0.00     0.004 C 
HETATM    7  C14 UNL     1      76.523  62.642  12.900  1.00  0.00     0.016 C 
HETATM    8  C15 UNL     1      75.150  62.777  12.213  1.00  0.00     0.034 C 
HETATM    9  C16 UNL     1      75.054  64.268  12.420  1.00  0.00    -0.022 C 
HETATM   10  C17 UNL     1      75.724  64.621  13.489  1.00  0.00    -0.060 C 
HETATM   11  C18 UNL     1      75.942  65.926  14.132  1.00  0.00     0.034 C 
HETATM   12  C19 UNL     1      75.458  65.618  15.552  1.00  0.00     0.131 C 
HETATM   13  N3  UNL     1      74.591  64.405  15.541  1.00  0.00    -0.359 N 
ATOM     14  H3  UNL     1      73.691  64.445  16.020  1.00  0.00     0.162 HD
HETATM   15  C20 UNL     1      74.965  63.186  14.885  1.00  0.00     0.230 C 
HETATM   16  O1  UNL     1      74.344  62.168  14.973  1.00  0.00    -0.272 OA
HETATM   17  C21 UNL     1      76.223  63.382  14.098  1.00  0.00     0.065 C 
HETATM   18  C22 UNL     1      77.192  63.308  15.197  1.00  0.00     0.031 C 
HETATM   19  C23 UNL     1      77.295  66.392  13.934  1.00  0.00     0.015 C 
HETATM   20  C24 UNL     1      77.854  65.970  12.590  1.00  0.00    -0.009 A 
HETATM   21  C25 UNL     1      78.785  67.087  12.076  1.00  0.00     0.005 A 
HETATM   22  C26 UNL     1      79.858  66.016  12.003  1.00  0.00     0.006 A 
HETATM   23  C27 UNL     1      78.934  64.984  12.595  1.00  0.00    -0.001 A 
HETATM   24  C28 UNL     1      78.726  63.692  11.876  1.00  0.00    -0.028 C 
HETATM   25  C29 UNL     1      79.047  64.132  10.417  1.00  0.00     0.016 C 
HETATM   26  C30 UNL     1      79.727  62.690  12.298  1.00  0.00     0.033 C 
HETATM   27  C31 UNL     1      81.100  63.201  12.587  1.00  0.00     0.113 C 
HETATM   28  C32 UNL     1      82.103  62.121  12.731  1.00  0.00     0.220 C 
HETATM   29  O2  UNL     1      82.945  62.130  13.655  1.00  0.00    -0.273 OA
ENDROOT
BRANCH   1  30
HETATM   30  C8  UNL     1      83.363  60.318  11.644  1.00  0.00     0.126 C 
BRANCH  30  31
HETATM   31  C7  UNL     1      83.321  58.935  12.246  1.00  0.00     0.024 C 
BRANCH  31  32
HETATM   32  C5  UNL     1      84.490  58.749  13.161  1.00  0.00    -0.015 C 
HETATM   33  C6  UNL     1      85.165  57.437  12.815  1.00  0.00     0.010 C 
BRANCH  32  34
HETATM   34  C4  UNL     1      85.516  59.857  13.047  1.00  0.00     0.031 C 
BRANCH  34  35
HETATM   35  C3  UNL     1      85.981  60.223  14.448  1.00  0.00     0.232 C 
BRANCH  35  36
HETATM   36  N1  UNL     1      84.815  60.288  15.277  1.00  0.00    -0.075 N 
ATOM     37  H12 UNL     1      84.403  59.362  15.391  1.00  0.00     0.277 HD
ATOM     38  H11 UNL     1      84.052  60.757  14.790  1.00  0.00     0.277 HD
BRANCH  36  39
HETATM   39  C2  UNL     1      85.050  60.899  16.559  1.00  0.00     0.228 C 
HETATM   40  C1  UNL     1      84.908  62.414  16.417  1.00  0.00     0.034 C 
ENDBRANCH  36  39
ENDBRANCH  35  36
ENDBRANCH  34  35
ENDBRANCH  32  34
ENDBRANCH  31  32
ENDBRANCH  30  31
ENDBRANCH   1  30
TORSDOF 7
ENDMDL
MODEL 3
REMARK VINA RESULT: -6.982907276      4.204      6.683
REMARK  7 active torsions:
REMARK  status: ('A' for Active; 'I' for Inactive)
REMARK    1  A    between atoms: C2_2  and  N1_3 
REMARK    2  A    between atoms: N1_3  and  C3_6 
REMARK    3  A    between atoms: C3_6  and  C4_7 
REMARK    4  A    between atoms: C4_7  and  C5_8 
REMARK    5  A    between atoms: C5_8  and  C7_10 
REMARK    6  A    between atoms: C7_10  and  C8_11 
REMARK    7  A    between atoms: C8_11  and  N2_12 
ROOT
HETATM    1  N2  UNL     1      81.083  62.019  11.734  1.00  0.00    -0.348 N 
HETATM    2  C9  UNL     1      81.068  63.178  12.553  1.00  0.00     0.160 C 
HETATM    3  C10 UNL     1      80.279  64.324  12.015  1.00  0.00    -0.060 C 
HETATM    4  C11 UNL     1      80.249  65.419  12.726  1.00  0.00    -0.021 C 
HETATM    5  C12 UNL     1      79.546  66.676  12.416  1.00  0.00     0.033 C 
HETATM    6  C13 UNL     1      78.798  66.612  11.070  1.00  0.00     0.004 C 
HETATM    7  C14 UNL     1      79.571  67.542  10.223  1.00  0.00     0.016 C 
HETATM    8  C15 UNL     1      79.112  68.879  10.836  1.00  0.00     0.034 C 
HETATM    9  C16 UNL     1      77.781  68.889  10.126  1.00  0.00    -0.022 C 
HETATM   10  C17 UNL     1      77.866  68.237   8.994  1.00  0.00    -0.060 C 
HETATM   11  C18 UNL     1      76.881  67.961   7.936  1.00  0.00     0.034 C 
HETATM   12  C19 UNL     1      77.626  68.513   6.717  1.00  0.00     0.131 C 
HETATM   13  N3  UNL     1      78.696  69.453   7.157  1.00  0.00    -0.359 N 
ATOM     14  H3  UNL     1      78.761  70.364   6.704  1.00  0.00     0.162 HD
HETATM   15  C20 UNL     1      79.637  69.132   8.190  1.00  0.00     0.230 C 
HETATM   16  O1  UNL     1      80.577  69.818   8.468  1.00  0.00    -0.272 OA
HETATM   17  C21 UNL     1      79.271  67.838   8.846  1.00  0.00     0.065 C 
HETATM   18  C22 UNL     1      79.788  66.915   7.829  1.00  0.00     0.031 C 
HETATM   19  C23 UNL     1      76.472  66.576   7.945  1.00  0.00     0.015 C 
HETATM   20  C24 UNL     1      76.443  65.997   9.345  1.00  0.00    -0.009 A 
HETATM   21  C25 UNL     1      75.286  64.980   9.429  1.00  0.00     0.005 A 
HETATM   22  C26 UNL     1      76.339  63.974   9.857  1.00  0.00     0.006 A 
HETATM   23  C27 UNL     1      77.444  64.980   9.669  1.00  0.00    -0.001 A 
HETATM   24  C28 UNL     1      78.391  65.243  10.794  1.00  0.00    -0.028 C 
HETATM   25  C29 UNL     1      77.498  64.844  12.006  1.00  0.00     0.016 C 
HETATM   26  C30 UNL     1      79.545  64.321  10.733  1.00  0.00     0.033 C 
HETATM   27  C31 UNL     1      79.263  62.931  10.270  1.00  0.00     0.113 C 
HETATM   28  C32 UNL     1      80.394  62.003  10.497  1.00  0.00     0.220 C 
HETATM   29  O2  UNL     1      80.764  61.194   9.618  1.00  0.00    -0.273 OA
ENDROOT
BRANCH   1  30
HETATM   30  C8  UNL     1      81.796  60.819  12.126  1.00  0.00     0.126 C 
BRANCH  30  31
HETATM   31  C7  UNL     1      83.027  61.107  12.949  1.00  0.00     0.024 C 
BRANCH  31  32
HETATM   32  C5  UNL     1      84.133  60.186  12.538  1.00  0.00    -0.015 C 
HETATM   33  C6  UNL     1      84.087  60.025  11.032  1.00  0.00     0.010 C 
BRANCH  32  34
HETATM   34  C4  UNL     1      85.506  60.699  12.921  1.00  0.00     0.031 C 
BRANCH  34  35
HETATM   35  C3  UNL     1      85.972  59.939  14.154  1.00  0.00     0.232 C 
BRANCH  35  36
HETATM   36  N1  UNL     1      86.215  60.908  15.181  1.00  0.00    -0.075 N 
ATOM     37  H12 UNL     1      86.354  61.833  14.776  1.00  0.00     0.277 HD
ATOM     38  H11 UNL     1      87.133  60.764  15.601  1.00  0.00     0.277 HD
BRANCH  36  39
HETATM   39  C2  UNL     1      85.194  60.946  16.194  1.00  0.00     0.228 C 
HETATM   40  C1  UNL     1      84.801  62.401  16.446  1.00  0.00     0.034 C 
ENDBRANCH  36  39
ENDBRANCH  35  36
ENDBRANCH  34  35
ENDBRANCH  32  34
ENDBRANCH  31  32
ENDBRANCH  30  31
ENDBRANCH   1  30
TORSDOF 7
ENDMDL
MODEL 4
REMARK VINA RESULT: -6.774840655      2.346      3.432
REMARK  7 active torsions:
REMARK  status: ('A' for Active; 'I' for Inactive)
REMARK    1  A    between atoms: C2_2  and  N1_3 
REMARK    2  A    between atoms: N1_3  and  C3_6 
REMARK    3  A    between atoms: C3_6  and  C4_7 
REMARK    4  A    between atoms: C4_7  and  C5_8 
REMARK    5  A    between atoms: C5_8  and  C7_10 
REMARK    6  A    between atoms: C7_10  and  C8_11 
REMARK    7  A    between atoms: C8_11  and  N2_12 
ROOT
HETATM    1  N2  UNL     1      80.128  62.553  12.692  1.00  0.00    -0.348 N 
HETATM    2  C9  UNL     1      79.679  62.328  14.019  1.00  0.00     0.160 C 
HETATM    3  C10 UNL     1      78.334  62.888  14.338  1.00  0.00    -0.060 C 
HETATM    4  C11 UNL     1      77.885  62.719  15.552  1.00  0.00    -0.021 C 
HETATM    5  C12 UNL     1      76.598  63.173  16.108  1.00  0.00     0.033 C 
HETATM    6  C13 UNL     1      75.750  63.940  15.074  1.00  0.00     0.004 C 
HETATM    7  C14 UNL     1      75.772  65.321  15.596  1.00  0.00     0.016 C 
HETATM    8  C15 UNL     1      74.821  65.148  16.796  1.00  0.00     0.034 C 
HETATM    9  C16 UNL     1      73.564  65.180  15.963  1.00  0.00    -0.022 C 
HETATM   10  C17 UNL     1      73.756  65.890  14.880  1.00  0.00    -0.060 C 
HETATM   11  C18 UNL     1      72.871  66.239  13.758  1.00  0.00     0.034 C 
HETATM   12  C19 UNL     1      72.990  67.766  13.779  1.00  0.00     0.131 C 
HETATM   13  N3  UNL     1      73.495  68.218  15.106  1.00  0.00    -0.359 N 
ATOM     14  H3  UNL     1      73.003  68.973  15.584  1.00  0.00     0.162 HD
HETATM   15  C20 UNL     1      74.642  67.638  15.742  1.00  0.00     0.230 C 
HETATM   16  O1  UNL     1      75.136  68.069  16.741  1.00  0.00    -0.272 OA
HETATM   17  C21 UNL     1      75.113  66.441  14.976  1.00  0.00     0.065 C 
HETATM   18  C22 UNL     1      75.827  67.130  13.896  1.00  0.00     0.031 C 
HETATM   19  C23 UNL     1      73.231  65.520  12.558  1.00  0.00     0.015 C 
HETATM   20  C24 UNL     1      73.761  64.133  12.860  1.00  0.00    -0.009 A 
HETATM   21  C25 UNL     1      73.318  63.184  11.727  1.00  0.00     0.005 A 
HETATM   22  C26 UNL     1      74.794  62.879  11.547  1.00  0.00     0.006 A 
HETATM   23  C27 UNL     1      75.179  63.887  12.599  1.00  0.00    -0.001 A 
HETATM   24  C28 UNL     1      76.051  63.461  13.733  1.00  0.00    -0.028 C 
HETATM   25  C29 UNL     1      75.728  61.939  13.776  1.00  0.00     0.016 C 
HETATM   26  C30 UNL     1      77.478  63.633  13.390  1.00  0.00     0.033 C 
HETATM   27  C31 UNL     1      77.861  63.352  11.974  1.00  0.00     0.113 C 
HETATM   28  C32 UNL     1      79.326  63.274  11.774  1.00  0.00     0.220 C 
HETATM   29  O2  UNL     1      79.884  63.834  10.804  1.00  0.00    -0.273 OA
ENDROOT
BRANCH   1  30
HETATM   30  C8  UNL     1      81.409  62.060  12.227  1.00  0.00     0.126 C 
BRANCH  30  31
HETATM   31  C7  UNL     1      82.478  62.101  13.291  1.00  0.00     0.024 C 
BRANCH  31  32
HETATM   32  C5  UNL     1      83.228  60.806  13.300  1.00  0.00    -0.015 C 
HETATM   33  C6  UNL     1      82.707  59.942  12.170  1.00  0.00     0.010 C 
BRANCH  32  34
HETATM   34  C4  UNL     1      84.720  60.983  13.116  1.00  0.00     0.031 C 
BRANCH  34  35
HETATM   35  C3  UNL     1      85.434  60.099  14.128  1.00  0.00     0.232 C 
BRANCH  35  36
HETATM   36  N1  UNL     1      84.714  60.202  15.361  1.00  0.00    -0.075 N 
ATOM     37  H12 UNL     1      84.483  59.276  15.721  1.00  0.00     0.277 HD
ATOM     38  H11 UNL     1      83.774  60.562  15.200  1.00  0.00     0.277 HD
BRANCH  36  39
HETATM   39  C2  UNL     1      85.391  60.981  16.364  1.00  0.00     0.228 C 
HETATM   40  C1  UNL     1      84.679  62.326  16.509  1.00  0.00     0.034 C 
ENDBRANCH  36  39
ENDBRANCH  35  36
ENDBRANCH  34  35
ENDBRANCH  32  34
ENDBRANCH  31  32
ENDBRANCH  30  31
ENDBRANCH   1  30
TORSDOF 7
ENDMDL
MODEL 5
REMARK VINA RESULT: -6.761142022      3.569      5.205
REMARK  7 active torsions:
REMARK  status: ('A' for Active; 'I' for Inactive)
REMARK    1  A    between atoms: C2_2  and  N1_3 
REMARK    2  A    between atoms: N1_3  and  C3_6 
REMARK    3  A    between atoms: C3_6  and  C4_7 
REMARK    4  A    between atoms: C4_7  and  C5_8 
REMARK    5  A    between atoms: C5_8  and  C7_10 
REMARK    6  A    between atoms: C7_10  and  C8_11 
REMARK    7  A    between atoms: C8_11  and  N2_12 
ROOT
HETATM    1  N2  UNL     1      83.342  59.156  11.509  1.00  0.00    -0.348 N 
HETATM    2  C9  UNL     1      83.549  60.291  12.336  1.00  0.00     0.160 C 
HETATM    3  C10 UNL     1      82.381  61.212  12.452  1.00  0.00    -0.060 C 
HETATM    4  C11 UNL     1      82.529  62.279  13.189  1.00  0.00    -0.021 C 
HETATM    5  C12 UNL     1      81.535  63.331  13.461  1.00  0.00     0.033 C 
HETATM    6  C13 UNL     1      80.196  63.073  12.742  1.00  0.00     0.004 C 
HETATM    7  C14 UNL     1      80.160  64.146  11.727  1.00  0.00     0.016 C 
HETATM    8  C15 UNL     1      79.858  65.346  12.644  1.00  0.00     0.034 C 
HETATM    9  C16 UNL     1      78.390  65.033  12.778  1.00  0.00    -0.022 C 
HETATM   10  C17 UNL     1      77.961  64.402  11.713  1.00  0.00    -0.060 C 
HETATM   11  C18 UNL     1      76.636  63.887  11.336  1.00  0.00     0.034 C 
HETATM   12  C19 UNL     1      76.447  64.579   9.983  1.00  0.00     0.131 C 
HETATM   13  N3  UNL     1      77.362  65.751   9.880  1.00  0.00    -0.359 N 
ATOM     14  H3  UNL     1      76.978  66.645   9.575  1.00  0.00     0.162 HD
HETATM   15  C20 UNL     1      78.761  65.676  10.189  1.00  0.00     0.230 C 
HETATM   16  O1  UNL     1      79.533  66.567   9.991  1.00  0.00    -0.272 OA
HETATM   17  C21 UNL     1      79.094  64.342  10.780  1.00  0.00     0.065 C 
HETATM   18  C22 UNL     1      79.133  63.551   9.545  1.00  0.00     0.031 C 
HETATM   19  C23 UNL     1      76.593  62.445  11.402  1.00  0.00     0.015 C 
HETATM   20  C24 UNL     1      77.465  61.896  12.513  1.00  0.00    -0.009 A 
HETATM   21  C25 UNL     1      76.785  60.638  13.092  1.00  0.00     0.005 A 
HETATM   22  C26 UNL     1      78.076  59.914  12.756  1.00  0.00     0.006 A 
HETATM   23  C27 UNL     1      78.659  61.148  12.119  1.00  0.00    -0.001 A 
HETATM   24  C28 UNL     1      79.993  61.642  12.571  1.00  0.00    -0.028 C 
HETATM   25  C29 UNL     1      80.029  61.064  14.017  1.00  0.00     0.016 C 
HETATM   26  C30 UNL     1      81.077  61.017  11.785  1.00  0.00     0.033 C 
HETATM   27  C31 UNL     1      80.875  59.592  11.388  1.00  0.00     0.113 C 
HETATM   28  C32 UNL     1      82.103  58.959  10.853  1.00  0.00     0.220 C 
HETATM   29  O2  UNL     1      82.077  58.247   9.826  1.00  0.00    -0.273 OA
ENDROOT
BRANCH   1  30
HETATM   30  C8  UNL     1      84.379  58.163  11.307  1.00  0.00     0.126 C 
BRANCH  30  31
HETATM   31  C7  UNL     1      85.118  57.815  12.575  1.00  0.00     0.024 C 
BRANCH  31  32
HETATM   32  C5  UNL     1      86.555  58.211  12.444  1.00  0.00    -0.015 C 
HETATM   33  C6  UNL     1      86.827  58.557  10.994  1.00  0.00     0.010 C 
BRANCH  32  34
HETATM   34  C4  UNL     1      86.920  59.410  13.296  1.00  0.00     0.031 C 
BRANCH  34  35
HETATM   35  C3  UNL     1      85.974  59.455  14.486  1.00  0.00     0.232 C 
BRANCH  35  36
HETATM   36  N1  UNL     1      85.992  60.795  14.990  1.00  0.00    -0.075 N 
ATOM     37  H12 UNL     1      85.690  61.453  14.273  1.00  0.00     0.277 HD
ATOM     38  H11 UNL     1      86.951  61.116  15.125  1.00  0.00     0.277 HD
BRANCH  36  39
HETATM   39  C2  UNL     1      85.225  60.971  16.195  1.00  0.00     0.228 C 
HETATM   40  C1  UNL     1      84.858  62.448  16.336  1.00  0.00     0.034 C 
ENDBRANCH  36  39
ENDBRANCH  35  36
ENDBRANCH  34  35
ENDBRANCH  32  34
ENDBRANCH  31  32
ENDBRANCH  30  31
ENDBRANCH   1  30
TORSDOF 7
ENDMDL
