MODEL 1
REMARK VINA RESULT: -6.482357370      0.000      0.000
REMARK  7 active torsions:
REMARK  status: ('A' for Active; 'I' for Inactive)
REMARK    1  A    between atoms: C10_16  and  C11_17 
REMARK    2  A    between atoms: N4_24  and  C16_25 
REMARK    3  A    between atoms: C16_25  and  C17_26 
REMARK    4  A    between atoms: C17_26  and  C18_27 
REMARK    5  A    between atoms: C24_33  and  C25_34 
REMARK    6  A    between atoms: C25_34  and  C26_35 
REMARK    7  A    between atoms: C26_35  and  C27_36 
ROOT
HETATM    1  O1  UNL     1      83.157  57.955  13.335  1.00  0.00    -0.271 OA
HETATM    2  C1  UNL     1      82.162  58.129  12.559  1.00  0.00     0.247 A 
HETATM    3  N1  UNL     1      81.363  57.083  12.083  1.00  0.00    -0.325 N 
ATOM      4  H1  UNL     1      81.458  56.095  12.321  1.00  0.00     0.169 HD
HETATM    5  C2  UNL     1      80.390  57.648  11.205  1.00  0.00     0.043 A 
HETATM    6  C3  UNL     1      79.429  56.939  10.504  1.00  0.00     0.030 A 
HETATM    7  C4  UNL     1      78.587  57.603   9.675  1.00  0.00     0.002 A 
HETATM    8  C5  UNL     1      78.710  58.972   9.551  1.00  0.00     0.001 A 
HETATM    9  C6  UNL     1      79.673  59.657  10.258  1.00  0.00     0.011 A 
HETATM   10  C7  UNL     1      80.558  59.004  11.124  1.00  0.00    -0.002 A 
HETATM   11  C8  UNL     1      81.636  59.405  12.001  1.00  0.00     0.181 A 
HETATM   12  C9  UNL     1      82.737  59.949  11.151  1.00  0.00     0.244 C 
HETATM   13  O2  UNL     1      82.774  59.714   9.910  1.00  0.00    -0.272 OA
HETATM   14  N2  UNL     1      83.726  60.732  11.801  1.00  0.00    -0.326 N 
ATOM     15  H2  UNL     1      84.708  60.659  11.532  1.00  0.00     0.165 HD
HETATM   16  C10 UNL     1      83.315  61.632  12.847  1.00  0.00     0.360 C 
HETATM   17  N4  UNL     1      81.877  61.653  13.014  1.00  0.00     0.123 N 
HETATM   18  C24 UNL     1      81.290  60.361  13.119  1.00  0.00     0.258 C 
ENDROOT
BRANCH  18  19
HETATM   19  C25 UNL     1      79.842  60.386  13.448  1.00  0.00     0.043 C 
BRANCH  19  20
HETATM   20  C26 UNL     1      79.545  61.444  14.482  1.00  0.00     0.040 C 
BRANCH  20  21
HETATM   21  C27 UNL     1      78.195  62.038  14.298  1.00  0.00    -0.058 A 
HETATM   22  C28 UNL     1      77.434  61.664  13.224  1.00  0.00     0.007 A 
HETATM   23  C29 UNL     1      76.183  62.218  13.072  1.00  0.00     0.001 A 
HETATM   24  C30 UNL     1      75.668  63.134  13.960  1.00  0.00     0.000 A 
HETATM   25  C31 UNL     1      76.468  63.481  15.025  1.00  0.00     0.001 A 
HETATM   26  C32 UNL     1      77.724  62.945  15.203  1.00  0.00     0.007 A 
ENDBRANCH  20  21
ENDBRANCH  19  20
ENDBRANCH  18  19
BRANCH  17  27
HETATM   27  C16 UNL     1      81.244  62.565  12.099  1.00  0.00     0.281 C 
BRANCH  27  28
HETATM   28  C17 UNL     1      81.095  63.964  12.584  1.00  0.00     0.069 C 
BRANCH  28  29
HETATM   29  C18 UNL     1      79.743  64.440  12.125  1.00  0.00    -0.057 A 
HETATM   30  C19 UNL     1      79.064  65.405  12.823  1.00  0.00     0.007 A 
HETATM   31  C20 UNL     1      77.816  65.864  12.420  1.00  0.00     0.001 A 
HETATM   32  C21 UNL     1      77.252  65.325  11.284  1.00  0.00     0.000 A 
HETATM   33  C22 UNL     1      77.920  64.356  10.573  1.00  0.00     0.001 A 
HETATM   34  C23 UNL     1      79.155  63.919  10.992  1.00  0.00     0.007 A 
ENDBRANCH  28  29
ENDBRANCH  27  28
ENDBRANCH  17  27
BRANCH  16  35
HETATM   35  C11 UNL     1      84.047  61.393  14.102  1.00  0.00     0.009 A 
HETATM   36  C12 UNL     1      83.989  62.157  15.233  1.00  0.00     0.014 A 
HETATM   37  C13 UNL     1      84.712  61.820  16.335  1.00  0.00     0.018 A 
HETATM   38  C14 UNL     1      85.510  60.710  16.334  1.00  0.00     0.087 A 
HETATM   39  N3  UNL     1      85.572  59.956  15.229  1.00  0.00    -0.375 N 
HETATM   40  C15 UNL     1      84.870  60.274  14.139  1.00  0.00     0.098 A 
ATOM     41  H3  UNL     1      86.165  59.127  15.221  1.00  0.00     0.164 HD
ENDBRANCH  16  35
TORSDOF 7
ENDMDL
MODEL 2
REMARK VINA RESULT: -6.434602077      2.260      4.588
REMARK  7 active torsions:
REMARK  status: ('A' for Active; 'I' for Inactive)
REMARK    1  A    between atoms: C10_16  and  C11_17 
REMARK    2  A    between atoms: N4_24  and  C16_25 
REMARK    3  A    between atoms: C16_25  and  C17_26 
REMARK    4  A    between atoms: C17_26  and  C18_27 
REMARK    5  A    between atoms: C24_33  and  C25_34 
REMARK    6  A    between atoms: C25_34  and  C26_35 
REMARK    7  A    between atoms: C26_35  and  C27_36 
ROOT
HETATM    1  O1  UNL     1      80.824  61.810  14.886  1.00  0.00    -0.271 OA
HETATM    2  C1  UNL     1      79.763  62.089  14.238  1.00  0.00     0.247 A 
HETATM    3  N1  UNL     1      78.771  62.952  14.719  1.00  0.00    -0.325 N 
ATOM      4  H1  UNL     1      78.795  63.467  15.600  1.00  0.00     0.169 HD
HETATM    5  C2  UNL     1      77.719  62.979  13.755  1.00  0.00     0.043 A 
HETATM    6  C3  UNL     1      76.537  63.692  13.872  1.00  0.00     0.030 A 
HETATM    7  C4  UNL     1      75.606  63.599  12.891  1.00  0.00     0.002 A 
HETATM    8  C5  UNL     1      75.861  62.795  11.799  1.00  0.00     0.001 A 
HETATM    9  C6  UNL     1      77.044  62.096  11.702  1.00  0.00     0.011 A 
HETATM   10  C7  UNL     1      78.028  62.169  12.696  1.00  0.00    -0.002 A 
HETATM   11  C8  UNL     1      79.343  61.601  12.896  1.00  0.00     0.181 A 
HETATM   12  C9  UNL     1      79.184  60.124  13.045  1.00  0.00     0.244 C 
HETATM   13  O2  UNL     1      78.057  59.616  13.305  1.00  0.00    -0.272 OA
HETATM   14  N2  UNL     1      80.350  59.331  12.881  1.00  0.00    -0.326 N 
ATOM     15  H2  UNL     1      80.511  58.514  13.470  1.00  0.00     0.165 HD
HETATM   16  C10 UNL     1      81.301  59.704  11.866  1.00  0.00     0.360 C 
HETATM   17  N4  UNL     1      80.846  60.834  11.083  1.00  0.00     0.123 N 
HETATM   18  C24 UNL     1      80.397  61.934  11.865  1.00  0.00     0.258 C 
ENDROOT
BRANCH  18  19
HETATM   19  C25 UNL     1      80.081  63.147  11.068  1.00  0.00     0.043 C 
BRANCH  19  20
HETATM   20  C26 UNL     1      80.380  64.398  11.856  1.00  0.00     0.040 C 
BRANCH  20  21
HETATM   21  C27 UNL     1      79.268  65.382  11.780  1.00  0.00    -0.058 A 
HETATM   22  C28 UNL     1      78.474  65.417  10.666  1.00  0.00     0.007 A 
HETATM   23  C29 UNL     1      77.444  66.329  10.613  1.00  0.00     0.001 A 
HETATM   24  C30 UNL     1      77.183  67.208  11.640  1.00  0.00     0.000 A 
HETATM   25  C31 UNL     1      78.007  67.137  12.740  1.00  0.00     0.001 A 
HETATM   26  C32 UNL     1      79.045  66.236  12.820  1.00  0.00     0.007 A 
ENDBRANCH  20  21
ENDBRANCH  19  20
ENDBRANCH  18  19
BRANCH  17  27
HETATM   27  C16 UNL     1      79.984  60.428  10.005  1.00  0.00     0.281 C 
BRANCH  27  28
HETATM   28  C17 UNL     1      80.486  60.720   8.635  1.00  0.00     0.069 C 
BRANCH  28  29
HETATM   29  C18 UNL     1      79.655  61.857   8.103  1.00  0.00    -0.057 A 
HETATM   30  C19 UNL     1      78.299  61.891   8.309  1.00  0.00     0.007 A 
HETATM   31  C20 UNL     1      77.509  62.930   7.831  1.00  0.00     0.001 A 
HETATM   32  C21 UNL     1      78.116  63.950   7.130  1.00  0.00     0.000 A 
HETATM   33  C22 UNL     1      79.473  63.930   6.917  1.00  0.00     0.001 A 
HETATM   34  C23 UNL     1      80.234  62.892   7.400  1.00  0.00     0.007 A 
ENDBRANCH  28  29
ENDBRANCH  27  28
ENDBRANCH  17  27
BRANCH  16  35
HETATM   35  C11 UNL     1      82.656  59.878  12.413  1.00  0.00     0.009 A 
HETATM   36  C12 UNL     1      83.693  60.538  11.818  1.00  0.00     0.014 A 
HETATM   37  C13 UNL     1      84.900  60.636  12.439  1.00  0.00     0.018 A 
HETATM   38  C14 UNL     1      85.100  60.076  13.669  1.00  0.00     0.087 A 
HETATM   39  N3  UNL     1      84.089  59.427  14.259  1.00  0.00    -0.375 N 
HETATM   40  C15 UNL     1      82.898  59.322  13.664  1.00  0.00     0.098 A 
ATOM     41  H3  UNL     1      84.229  59.007  15.178  1.00  0.00     0.164 HD
ENDBRANCH  16  35
TORSDOF 7
ENDMDL
MODEL 3
REMARK VINA RESULT: -6.361029444      2.200      6.150
REMARK  7 active torsions:
REMARK  status: ('A' for Active; 'I' for Inactive)
REMARK    1  A    between atoms: C10_16  and  C11_17 
REMARK    2  A    between atoms: N4_24  and  C16_25 
REMARK    3  A    between atoms: C16_25  and  C17_26 
REMARK    4  A    between atoms: C17_26  and  C18_27 
REMARK    5  A    between atoms: C24_33  and  C25_34 
REMARK    6  A    between atoms: C25_34  and  C26_35 
REMARK    7  A    between atoms: C26_35  and  C27_36 
ROOT
HETATM    1  O1  UNL     1      76.961  61.450  11.020  1.00  0.00    -0.271 OA
HETATM    2  C1  UNL     1      77.491  62.568  11.322  1.00  0.00     0.247 A 
HETATM    3  N1  UNL     1      76.783  63.775  11.349  1.00  0.00    -0.325 N 
ATOM      4  H1  UNL     1      75.786  63.893  11.169  1.00  0.00     0.169 HD
HETATM    5  C2  UNL     1      77.709  64.812  11.673  1.00  0.00     0.043 A 
HETATM    6  C3  UNL     1      77.408  66.160  11.767  1.00  0.00     0.030 A 
HETATM    7  C4  UNL     1      78.397  67.043  12.051  1.00  0.00     0.002 A 
HETATM    8  C5  UNL     1      79.681  66.573  12.238  1.00  0.00     0.001 A 
HETATM    9  C6  UNL     1      79.958  65.227  12.141  1.00  0.00     0.011 A 
HETATM   10  C7  UNL     1      78.961  64.288  11.850  1.00  0.00    -0.002 A 
HETATM   11  C8  UNL     1      78.904  62.851  11.698  1.00  0.00     0.181 A 
HETATM   12  C9  UNL     1      79.713  62.487  10.497  1.00  0.00     0.244 C 
HETATM   13  O2  UNL     1      80.030  63.360   9.641  1.00  0.00    -0.272 OA
HETATM   14  N2  UNL     1      80.102  61.128  10.370  1.00  0.00    -0.326 N 
ATOM     15  H2  UNL     1      80.111  60.672   9.457  1.00  0.00     0.165 HD
HETATM   16  C10 UNL     1      80.483  60.406  11.556  1.00  0.00     0.360 C 
HETATM   17  N4  UNL     1      80.490  61.252  12.730  1.00  0.00     0.123 N 
HETATM   18  C24 UNL     1      79.303  62.019  12.896  1.00  0.00     0.258 C 
ENDROOT
BRANCH  18  19
HETATM   19  C25 UNL     1      79.244  62.764  14.179  1.00  0.00     0.043 C 
BRANCH  19  20
HETATM   20  C26 UNL     1      78.368  62.046  15.176  1.00  0.00     0.040 C 
BRANCH  20  21
HETATM   21  C27 UNL     1      77.294  62.925  15.706  1.00  0.00    -0.058 A 
HETATM   22  C28 UNL     1      76.881  62.778  17.002  1.00  0.00     0.007 A 
HETATM   23  C29 UNL     1      75.890  63.605  17.482  1.00  0.00     0.001 A 
HETATM   24  C30 UNL     1      75.298  64.575  16.705  1.00  0.00     0.000 A 
HETATM   25  C31 UNL     1      75.745  64.686  15.408  1.00  0.00     0.001 A 
HETATM   26  C32 UNL     1      76.734  63.874  14.901  1.00  0.00     0.007 A 
ENDBRANCH  20  21
ENDBRANCH  19  20
ENDBRANCH  18  19
BRANCH  17  27
HETATM   27  C16 UNL     1      81.731  61.967  12.870  1.00  0.00     0.281 C 
BRANCH  27  28
HETATM   28  C17 UNL     1      82.963  61.172  12.616  1.00  0.00     0.069 C 
BRANCH  28  29
HETATM   29  C18 UNL     1      83.772  61.211  13.884  1.00  0.00    -0.057 A 
HETATM   30  C19 UNL     1      83.604  62.224  14.793  1.00  0.00     0.007 A 
HETATM   31  C20 UNL     1      84.337  62.283  15.972  1.00  0.00     0.001 A 
HETATM   32  C21 UNL     1      85.258  61.289  16.226  1.00  0.00     0.000 A 
HETATM   33  C22 UNL     1      85.438  60.267  15.324  1.00  0.00     0.001 A 
HETATM   34  C23 UNL     1      84.700  60.231  14.165  1.00  0.00     0.007 A 
ENDBRANCH  28  29
ENDBRANCH  27  28
ENDBRANCH  17  27
BRANCH  16  35
HETATM   35  C11 UNL     1      79.701  59.171  11.728  1.00  0.00     0.009 A 
HETATM   36  C12 UNL     1      78.887  58.589  10.799  1.00  0.00     0.014 A 
HETATM   37  C13 UNL     1      78.224  57.436  11.084  1.00  0.00     0.018 A 
HETATM   38  C14 UNL     1      78.357  56.835  12.304  1.00  0.00     0.087 A 
HETATM   39  N3  UNL     1      79.154  57.400  13.221  1.00  0.00    -0.375 N 
HETATM   40  C15 UNL     1      79.811  58.532  12.957  1.00  0.00     0.098 A 
ATOM     41  H3  UNL     1      79.260  56.958  14.134  1.00  0.00     0.164 HD
ENDBRANCH  16  35
TORSDOF 7
ENDMDL
MODEL 4
REMARK VINA RESULT: -6.353320715      2.345      5.091
REMARK  7 active torsions:
REMARK  status: ('A' for Active; 'I' for Inactive)
REMARK    1  A    between atoms: C10_16  and  C11_17 
REMARK    2  A    between atoms: N4_24  and  C16_25 
REMARK    3  A    between atoms: C16_25  and  C17_26 
REMARK    4  A    between atoms: C17_26  and  C18_27 
REMARK    5  A    between atoms: C24_33  and  C25_34 
REMARK    6  A    between atoms: C25_34  and  C26_35 
REMARK    7  A    between atoms: C26_35  and  C27_36 
ROOT
HETATM    1  O1  UNL     1      80.800  61.820  14.889  1.00  0.00    -0.271 OA
HETATM    2  C1  UNL     1      79.739  62.067  14.230  1.00  0.00     0.247 A 
HETATM    3  N1  UNL     1      78.722  62.911  14.693  1.00  0.00    -0.325 N 
ATOM      4  H1  UNL     1      78.728  63.437  15.567  1.00  0.00     0.169 HD
HETATM    5  C2  UNL     1      77.677  62.903  13.721  1.00  0.00     0.043 A 
HETATM    6  C3  UNL     1      76.479  63.588  13.821  1.00  0.00     0.030 A 
HETATM    7  C4  UNL     1      75.557  63.462  12.834  1.00  0.00     0.002 A 
HETATM    8  C5  UNL     1      75.839  62.651  11.754  1.00  0.00     0.001 A 
HETATM    9  C6  UNL     1      77.039  61.979  11.674  1.00  0.00     0.011 A 
HETATM   10  C7  UNL     1      78.013  62.087  12.674  1.00  0.00    -0.002 A 
HETATM   11  C8  UNL     1      79.340  61.553  12.890  1.00  0.00     0.181 A 
HETATM   12  C9  UNL     1      79.215  60.074  13.056  1.00  0.00     0.244 C 
HETATM   13  O2  UNL     1      78.098  59.543  13.314  1.00  0.00    -0.272 OA
HETATM   14  N2  UNL     1      80.400  59.307  12.911  1.00  0.00    -0.326 N 
ATOM     15  H2  UNL     1      80.576  58.501  13.511  1.00  0.00     0.165 HD
HETATM   16  C10 UNL     1      81.350  59.690  11.898  1.00  0.00     0.360 C 
HETATM   17  N4  UNL     1      80.874  60.800  11.098  1.00  0.00     0.123 N 
HETATM   18  C24 UNL     1      80.393  61.898  11.863  1.00  0.00     0.258 C 
ENDROOT
BRANCH  18  19
HETATM   19  C25 UNL     1      80.055  63.093  11.049  1.00  0.00     0.043 C 
BRANCH  19  20
HETATM   20  C26 UNL     1      80.397  64.362  11.792  1.00  0.00     0.040 C 
BRANCH  20  21
HETATM   21  C27 UNL     1      79.256  65.312  11.823  1.00  0.00    -0.058 A 
HETATM   22  C28 UNL     1      78.377  65.346  10.775  1.00  0.00     0.007 A 
HETATM   23  C29 UNL     1      77.320  66.227  10.822  1.00  0.00     0.001 A 
HETATM   24  C30 UNL     1      77.114  67.077  11.884  1.00  0.00     0.000 A 
HETATM   25  C31 UNL     1      78.023  67.009  12.916  1.00  0.00     0.001 A 
HETATM   26  C32 UNL     1      79.089  66.138  12.897  1.00  0.00     0.007 A 
ENDBRANCH  20  21
ENDBRANCH  19  20
ENDBRANCH  18  19
BRANCH  17  27
HETATM   27  C16 UNL     1      80.030  60.360  10.019  1.00  0.00     0.281 C 
BRANCH  27  28
HETATM   28  C17 UNL     1      80.628  59.349   9.105  1.00  0.00     0.069 C 
BRANCH  28  29
HETATM   29  C18 UNL     1      81.584  60.088   8.208  1.00  0.00    -0.057 A 
HETATM   30  C19 UNL     1      81.125  61.012   7.303  1.00  0.00     0.007 A 
HETATM   31  C20 UNL     1      81.986  61.709   6.464  1.00  0.00     0.001 A 
HETATM   32  C21 UNL     1      83.339  61.457   6.552  1.00  0.00     0.000 A 
HETATM   33  C22 UNL     1      83.813  60.535   7.453  1.00  0.00     0.001 A 
HETATM   34  C23 UNL     1      82.942  59.858   8.273  1.00  0.00     0.007 A 
ENDBRANCH  28  29
ENDBRANCH  27  28
ENDBRANCH  17  27
BRANCH  16  35
HETATM   35  C11 UNL     1      82.696  59.903  12.453  1.00  0.00     0.009 A 
HETATM   36  C12 UNL     1      83.718  60.591  11.863  1.00  0.00     0.014 A 
HETATM   37  C13 UNL     1      84.918  60.723  12.491  1.00  0.00     0.018 A 
HETATM   38  C14 UNL     1      85.127  60.171  13.723  1.00  0.00     0.087 A 
HETATM   39  N3  UNL     1      84.130  59.494  14.308  1.00  0.00    -0.375 N 
HETATM   40  C15 UNL     1      82.947  59.355  13.705  1.00  0.00     0.098 A 
ATOM     41  H3  UNL     1      84.277  59.079  15.228  1.00  0.00     0.164 HD
ENDBRANCH  16  35
TORSDOF 7
ENDMDL
MODEL 5
REMARK VINA RESULT: -6.336681562      3.311      6.477
REMARK  7 active torsions:
REMARK  status: ('A' for Active; 'I' for Inactive)
REMARK    1  A    between atoms: C10_16  and  C11_17 
REMARK    2  A    between atoms: N4_24  and  C16_25 
REMARK    3  A    between atoms: C16_25  and  C17_26 
REMARK    4  A    between atoms: C17_26  and  C18_27 
REMARK    5  A    between atoms: C24_33  and  C25_34 
REMARK    6  A    between atoms: C25_34  and  C26_35 
REMARK    7  A    between atoms: C26_35  and  C27_36 
ROOT
HETATM    1  O1  UNL     1      77.947  62.632  16.031  1.00  0.00    -0.271 OA
HETATM    2  C1  UNL     1      76.740  62.877  15.709  1.00  0.00     0.247 A 
HETATM    3  N1  UNL     1      75.791  63.387  16.604  1.00  0.00    -0.325 N 
ATOM      4  H1  UNL     1      75.958  63.645  17.576  1.00  0.00     0.169 HD
HETATM    5  C2  UNL     1      74.548  63.479  15.909  1.00  0.00     0.043 A 
HETATM    6  C3  UNL     1      73.350  63.909  16.454  1.00  0.00     0.030 A 
HETATM    7  C4  UNL     1      72.234  63.914  15.685  1.00  0.00     0.002 A 
HETATM    8  C5  UNL     1      72.321  63.488  14.375  1.00  0.00     0.001 A 
HETATM    9  C6  UNL     1      73.524  63.066  13.852  1.00  0.00     0.011 A 
HETATM   10  C7  UNL     1      74.696  63.049  14.618  1.00  0.00    -0.002 A 
HETATM   11  C8  UNL     1      76.079  62.696  14.387  1.00  0.00     0.181 A 
HETATM   12  C9  UNL     1      76.136  61.229  14.115  1.00  0.00     0.244 C 
HETATM   13  O2  UNL     1      75.169  60.475  14.419  1.00  0.00    -0.272 OA
HETATM   14  N2  UNL     1      77.318  60.732  13.505  1.00  0.00    -0.326 N 
ATOM     15  H2  UNL     1      77.708  59.830  13.782  1.00  0.00     0.165 HD
HETATM   16  C10 UNL     1      77.955  61.527  12.487  1.00  0.00     0.360 C 
HETATM   17  N4  UNL     1      77.199  62.723  12.178  1.00  0.00     0.123 N 
HETATM   18  C24 UNL     1      76.817  63.475  13.322  1.00  0.00     0.258 C 
ENDROOT
BRANCH  18  19
HETATM   19  C25 UNL     1      76.182  64.778  12.998  1.00  0.00     0.043 C 
BRANCH  19  20
HETATM   20  C26 UNL     1      76.889  65.909  13.705  1.00  0.00     0.040 C 
BRANCH  20  21
HETATM   21  C27 UNL     1      77.843  66.614  12.811  1.00  0.00    -0.058 A 
HETATM   22  C28 UNL     1      77.443  67.751  12.161  1.00  0.00     0.007 A 
HETATM   23  C29 UNL     1      78.341  68.397  11.341  1.00  0.00     0.001 A 
HETATM   24  C30 UNL     1      79.626  67.943  11.149  1.00  0.00     0.000 A 
HETATM   25  C31 UNL     1      79.983  66.797  11.823  1.00  0.00     0.001 A 
HETATM   26  C32 UNL     1      79.108  66.129  12.649  1.00  0.00     0.007 A 
ENDBRANCH  20  21
ENDBRANCH  19  20
ENDBRANCH  18  19
BRANCH  17  27
HETATM   27  C16 UNL     1      76.164  62.469  11.211  1.00  0.00     0.281 C 
BRANCH  27  28
HETATM   28  C17 UNL     1      76.624  62.301   9.805  1.00  0.00     0.069 C 
BRANCH  28  29
HETATM   29  C18 UNL     1      77.180  63.631   9.371  1.00  0.00    -0.057 A 
HETATM   30  C19 UNL     1      78.507  63.767   9.052  1.00  0.00     0.007 A 
HETATM   31  C20 UNL     1      79.045  64.982   8.647  1.00  0.00     0.001 A 
HETATM   32  C21 UNL     1      78.211  66.077   8.567  1.00  0.00     0.000 A 
HETATM   33  C22 UNL     1      76.879  65.957   8.882  1.00  0.00     0.001 A 
HETATM   34  C23 UNL     1      76.370  64.743   9.280  1.00  0.00     0.007 A 
ENDBRANCH  28  29
ENDBRANCH  27  28
ENDBRANCH  17  27
BRANCH  16  35
HETATM   35  C11 UNL     1      79.370  61.791  12.795  1.00  0.00     0.009 A 
HETATM   36  C12 UNL     1      80.166  62.731  12.206  1.00  0.00     0.014 A 
HETATM   37  C13 UNL     1      81.462  62.881  12.591  1.00  0.00     0.018 A 
HETATM   38  C14 UNL     1      81.995  62.095  13.575  1.00  0.00     0.087 A 
HETATM   39  N3  UNL     1      81.220  61.171  14.157  1.00  0.00    -0.375 N 
HETATM   40  C15 UNL     1      79.946  61.011  13.790  1.00  0.00     0.098 A 
ATOM     41  H3  UNL     1      81.609  60.581  14.892  1.00  0.00     0.164 HD
ENDBRANCH  16  35
TORSDOF 7
ENDMDL
