MODEL 1
REMARK VINA RESULT: -6.707060713      0.000      0.000
REMARK  7 active torsions:
REMARK  status: ('A' for Active; 'I' for Inactive)
REMARK    1  A    between atoms: C2_2  and  N1_3 
REMARK    2  A    between atoms: N1_3  and  C3_4 
REMARK    3  A    between atoms: N1_3  and  S1_6 
REMARK    4  A    between atoms: S1_6  and  C5_9 
REMARK    5  A    between atoms: C8_12  and  C9_13 
REMARK    6  A    between atoms: C12_16  and  N2_17 
REMARK       I    between atoms: N2_17  and  C13_19 
REMARK    7  A    between atoms: C13_19  and  C14_21 
ROOT
HETATM    1  C9  UNL     1      81.157  62.525  13.056  1.00  0.00    -0.026 A 
HETATM    2  C10 UNL     1      80.921  63.567  12.201  1.00  0.00     0.014 A 
HETATM    3  C11 UNL     1      79.798  64.389  12.383  1.00  0.00     0.030 A 
HETATM    4  C12 UNL     1      78.902  64.192  13.402  1.00  0.00     0.035 A 
HETATM    5  C24 UNL     1      79.183  63.112  14.255  1.00  0.00     0.030 A 
HETATM    6  C25 UNL     1      80.262  62.315  14.090  1.00  0.00     0.014 A 
ENDROOT
BRANCH   4   7
HETATM    7  N2  UNL     1      77.767  64.975  13.638  1.00  0.00    -0.323 N 
HETATM    8  C13 UNL     1      76.454  64.678  13.340  1.00  0.00     0.256 C 
HETATM    9  O3  UNL     1      76.113  63.600  12.756  1.00  0.00    -0.267 OA
ATOM     10  H2  UNL     1      77.930  65.876  14.086  1.00  0.00     0.169 HD
BRANCH   8  11
HETATM   11  C14 UNL     1      75.394  65.619  13.688  1.00  0.00     0.039 A 
HETATM   12  C15 UNL     1      75.050  66.606  12.781  1.00  0.00     0.020 A 
HETATM   13  C16 UNL     1      74.117  67.602  13.073  1.00  0.00     0.033 A 
HETATM   14  C17 UNL     1      73.529  67.583  14.320  1.00  0.00     0.063 A 
HETATM   15  N3  UNL     1      72.612  68.351  14.979  1.00  0.00    -0.296 N 
HETATM   16  C20 UNL     1      73.877  66.600  15.206  1.00  0.00     0.052 A 
HETATM   17  N4  UNL     1      72.419  67.850  16.213  1.00  0.00    -0.274 N 
ATOM     18  H3  UNL     1      72.147  69.174  14.598  1.00  0.00     0.187 HD
HETATM   19  C18 UNL     1      71.527  68.405  17.174  1.00  0.00     0.180 C 
HETATM   20  C19 UNL     1      73.195  66.769  16.371  1.00  0.00     0.172 A 
HETATM   21  O4  UNL     1      73.464  65.824  17.382  1.00  0.00    -0.334 OA
HETATM   22  C23 UNL     1      74.794  65.230  17.330  1.00  0.00     0.182 C 
HETATM   23  C22 UNL     1      74.960  64.562  15.958  1.00  0.00     0.067 C 
HETATM   24  C21 UNL     1      74.805  65.597  14.926  1.00  0.00    -0.024 A 
ENDBRANCH   8  11
ENDBRANCH   4   7
BRANCH   1  25
HETATM   25  C8  UNL     1      82.288  61.639  12.909  1.00  0.00    -0.026 A 
HETATM   26  C7  UNL     1      83.358  61.756  13.798  1.00  0.00     0.014 A 
HETATM   27  C6  UNL     1      84.453  60.937  13.735  1.00  0.00     0.025 A 
HETATM   28  C5  UNL     1      84.533  59.958  12.776  1.00  0.00     0.074 A 
HETATM   29  C27 UNL     1      83.506  59.813  11.886  1.00  0.00     0.025 A 
HETATM   30  C26 UNL     1      82.385  60.651  11.953  1.00  0.00     0.014 A 
BRANCH  28  31
HETATM   31  S1  UNL     1      85.922  58.929  12.725  1.00  0.00     0.243 S 
HETATM   32  O1  UNL     1      85.674  57.592  12.117  1.00  0.00    -0.206 OA
HETATM   33  O2  UNL     1      86.370  58.651  14.156  1.00  0.00    -0.206 OA
BRANCH  31  34
HETATM   34  N1  UNL     1      87.223  59.763  11.981  1.00  0.00    -0.207 NA
BRANCH  34  35
HETATM   35  C2  UNL     1      88.168  60.325  12.897  1.00  0.00     0.103 C 
HETATM   36  C1  UNL     1      89.533  60.332  12.288  1.00  0.00     0.021 C 
ENDBRANCH  34  35
BRANCH  34  37
HETATM   37  C3  UNL     1      86.782  60.706  10.978  1.00  0.00     0.103 C 
HETATM   38  C4  UNL     1      86.533  60.131   9.631  1.00  0.00     0.021 C 
ENDBRANCH  34  37
ENDBRANCH  31  34
ENDBRANCH  28  31
ENDBRANCH   1  25
TORSDOF 7
ENDMDL
MODEL 2
REMARK VINA RESULT: -6.703459631      0.396      1.142
REMARK  7 active torsions:
REMARK  status: ('A' for Active; 'I' for Inactive)
REMARK    1  A    between atoms: C2_2  and  N1_3 
REMARK    2  A    between atoms: N1_3  and  C3_4 
REMARK    3  A    between atoms: N1_3  and  S1_6 
REMARK    4  A    between atoms: S1_6  and  C5_9 
REMARK    5  A    between atoms: C8_12  and  C9_13 
REMARK    6  A    between atoms: C12_16  and  N2_17 
REMARK       I    between atoms: N2_17  and  C13_19 
REMARK    7  A    between atoms: C13_19  and  C14_21 
ROOT
HETATM    1  C9  UNL     1      81.195  62.506  13.100  1.00  0.00    -0.026 A 
HETATM    2  C10 UNL     1      80.920  63.571  12.285  1.00  0.00     0.014 A 
HETATM    3  C11 UNL     1      79.763  64.338  12.491  1.00  0.00     0.030 A 
HETATM    4  C12 UNL     1      78.871  64.065  13.496  1.00  0.00     0.035 A 
HETATM    5  C24 UNL     1      79.192  62.965  14.308  1.00  0.00     0.030 A 
HETATM    6  C25 UNL     1      80.304  62.220  14.119  1.00  0.00     0.014 A 
ENDROOT
BRANCH   4   7
HETATM    7  N2  UNL     1      77.703  64.791  13.756  1.00  0.00    -0.323 N 
HETATM    8  C13 UNL     1      76.412  64.480  13.385  1.00  0.00     0.256 C 
HETATM    9  O3  UNL     1      76.127  63.447  12.701  1.00  0.00    -0.267 OA
ATOM     10  H2  UNL     1      77.822  65.655  14.284  1.00  0.00     0.169 HD
BRANCH   8  11
HETATM   11  C14 UNL     1      75.310  65.356  13.772  1.00  0.00     0.039 A 
HETATM   12  C15 UNL     1      74.855  66.300  12.867  1.00  0.00     0.020 A 
HETATM   13  C16 UNL     1      73.873  67.238  13.191  1.00  0.00     0.033 A 
HETATM   14  C17 UNL     1      73.352  67.206  14.466  1.00  0.00     0.063 A 
HETATM   15  N3  UNL     1      72.420  67.925  15.160  1.00  0.00    -0.296 N 
HETATM   16  C20 UNL     1      73.810  66.266  15.350  1.00  0.00     0.052 A 
HETATM   17  N4  UNL     1      72.325  67.438  16.410  1.00  0.00    -0.274 N 
ATOM     18  H3  UNL     1      71.882  68.707  14.788  1.00  0.00     0.187 HD
HETATM   19  C18 UNL     1      71.448  67.952  17.406  1.00  0.00     0.180 C 
HETATM   20  C19 UNL     1      73.178  66.414  16.546  1.00  0.00     0.172 A 
HETATM   21  O4  UNL     1      73.561  65.510  17.558  1.00  0.00    -0.334 OA
HETATM   22  C23 UNL     1      74.924  65.004  17.447  1.00  0.00     0.182 C 
HETATM   23  C22 UNL     1      75.064  64.320  16.079  1.00  0.00     0.067 C 
HETATM   24  C21 UNL     1      74.788  65.321  15.039  1.00  0.00    -0.024 A 
ENDBRANCH   8  11
ENDBRANCH   4   7
BRANCH   1  25
HETATM   25  C8  UNL     1      82.362  61.674  12.926  1.00  0.00    -0.026 A 
HETATM   26  C7  UNL     1      83.421  61.799  13.827  1.00  0.00     0.014 A 
HETATM   27  C6  UNL     1      84.550  61.029  13.739  1.00  0.00     0.025 A 
HETATM   28  C5  UNL     1      84.675  60.094  12.742  1.00  0.00     0.074 A 
HETATM   29  C27 UNL     1      83.660  59.943  11.839  1.00  0.00     0.025 A 
HETATM   30  C26 UNL     1      82.505  60.732  11.931  1.00  0.00     0.014 A 
BRANCH  28  31
HETATM   31  S1  UNL     1      86.106  59.126  12.659  1.00  0.00     0.243 S 
HETATM   32  O1  UNL     1      85.894  57.764  12.097  1.00  0.00    -0.206 OA
HETATM   33  O2  UNL     1      86.622  58.906  14.078  1.00  0.00    -0.206 OA
BRANCH  31  34
HETATM   34  N1  UNL     1      87.337  59.996  11.842  1.00  0.00    -0.207 NA
BRANCH  34  35
HETATM   35  C2  UNL     1      87.626  59.518  10.525  1.00  0.00     0.103 C 
HETATM   36  C1  UNL     1      86.661  60.100   9.543  1.00  0.00     0.021 C 
ENDBRANCH  34  35
BRANCH  34  37
HETATM   37  C3  UNL     1      88.523  60.177  12.649  1.00  0.00     0.103 C 
HETATM   38  C4  UNL     1      89.700  60.732  11.933  1.00  0.00     0.021 C 
ENDBRANCH  34  37
ENDBRANCH  31  34
ENDBRANCH  28  31
ENDBRANCH   1  25
TORSDOF 7
ENDMDL
MODEL 3
REMARK VINA RESULT: -6.645298270      1.229      1.442
REMARK  7 active torsions:
REMARK  status: ('A' for Active; 'I' for Inactive)
REMARK    1  A    between atoms: C2_2  and  N1_3 
REMARK    2  A    between atoms: N1_3  and  C3_4 
REMARK    3  A    between atoms: N1_3  and  S1_6 
REMARK    4  A    between atoms: S1_6  and  C5_9 
REMARK    5  A    between atoms: C8_12  and  C9_13 
REMARK    6  A    between atoms: C12_16  and  N2_17 
REMARK       I    between atoms: N2_17  and  C13_19 
REMARK    7  A    between atoms: C13_19  and  C14_21 
ROOT
HETATM    1  C9  UNL     1      81.405  62.441  13.238  1.00  0.00    -0.026 A 
HETATM    2  C10 UNL     1      81.050  63.444  12.376  1.00  0.00     0.014 A 
HETATM    3  C11 UNL     1      79.839  64.130  12.551  1.00  0.00     0.030 A 
HETATM    4  C12 UNL     1      78.970  63.837  13.571  1.00  0.00     0.035 A 
HETATM    5  C24 UNL     1      79.374  62.804  14.432  1.00  0.00     0.030 A 
HETATM    6  C25 UNL     1      80.539  62.136  14.273  1.00  0.00     0.014 A 
ENDROOT
BRANCH   4   7
HETATM    7  N2  UNL     1      77.752  64.485  13.802  1.00  0.00    -0.323 N 
HETATM    8  C13 UNL     1      76.480  64.008  13.562  1.00  0.00     0.256 C 
HETATM    9  O3  UNL     1      76.264  62.865  13.049  1.00  0.00    -0.267 OA
ATOM     10  H2  UNL     1      77.811  65.423  14.195  1.00  0.00     0.169 HD
BRANCH   8  11
HETATM   11  C14 UNL     1      75.318  64.828  13.893  1.00  0.00     0.039 A 
HETATM   12  C15 UNL     1      74.739  65.600  12.901  1.00  0.00     0.020 A 
HETATM   13  C16 UNL     1      73.688  66.483  13.156  1.00  0.00     0.033 A 
HETATM   14  C17 UNL     1      73.227  66.574  14.451  1.00  0.00     0.063 A 
HETATM   15  N3  UNL     1      72.262  67.294  15.096  1.00  0.00    -0.296 N 
HETATM   16  C20 UNL     1      73.808  65.803  15.421  1.00  0.00     0.052 A 
HETATM   17  N4  UNL     1      72.265  66.970  16.402  1.00  0.00    -0.274 N 
ATOM     18  H3  UNL     1      71.637  67.971  14.658  1.00  0.00     0.187 HD
HETATM   19  C18 UNL     1      71.387  67.532  17.370  1.00  0.00     0.180 C 
HETATM   20  C19 UNL     1      73.215  66.051  16.621  1.00  0.00     0.172 A 
HETATM   21  O4  UNL     1      73.724  65.326  17.718  1.00  0.00    -0.334 OA
HETATM   22  C23 UNL     1      75.123  64.931  17.598  1.00  0.00     0.182 C 
HETATM   23  C22 UNL     1      75.268  64.088  16.324  1.00  0.00     0.067 C 
HETATM   24  C21 UNL     1      74.855  64.915  15.181  1.00  0.00    -0.024 A 
ENDBRANCH   8  11
ENDBRANCH   4   7
BRANCH   1  25
HETATM   25  C8  UNL     1      82.631  61.692  13.098  1.00  0.00    -0.026 A 
HETATM   26  C7  UNL     1      83.646  61.876  14.038  1.00  0.00     0.014 A 
HETATM   27  C6  UNL     1      84.827  61.185  13.983  1.00  0.00     0.025 A 
HETATM   28  C5  UNL     1      85.051  60.274  12.982  1.00  0.00     0.074 A 
HETATM   29  C27 UNL     1      84.082  60.067  12.041  1.00  0.00     0.025 A 
HETATM   30  C26 UNL     1      82.874  60.775  12.099  1.00  0.00     0.014 A 
BRANCH  28  31
HETATM   31  S1  UNL     1      86.546  59.405  12.941  1.00  0.00     0.243 S 
HETATM   32  O1  UNL     1      86.772  58.515  14.113  1.00  0.00    -0.206 OA
HETATM   33  O2  UNL     1      87.691  60.414  12.967  1.00  0.00    -0.206 OA
BRANCH  31  34
HETATM   34  N1  UNL     1      86.685  58.578  11.445  1.00  0.00    -0.207 NA
BRANCH  34  35
HETATM   35  C2  UNL     1      87.053  57.200  11.561  1.00  0.00     0.103 C 
HETATM   36  C1  UNL     1      85.836  56.336  11.504  1.00  0.00     0.021 C 
ENDBRANCH  34  35
BRANCH  34  37
HETATM   37  C3  UNL     1      87.487  59.297  10.481  1.00  0.00     0.103 C 
HETATM   38  C4  UNL     1      86.726  59.989   9.409  1.00  0.00     0.021 C 
ENDBRANCH  34  37
ENDBRANCH  31  34
ENDBRANCH  28  31
ENDBRANCH   1  25
TORSDOF 7
ENDMDL
MODEL 4
REMARK VINA RESULT: -6.612273927      1.450      2.057
REMARK  7 active torsions:
REMARK  status: ('A' for Active; 'I' for Inactive)
REMARK    1  A    between atoms: C2_2  and  N1_3 
REMARK    2  A    between atoms: N1_3  and  C3_4 
REMARK    3  A    between atoms: N1_3  and  S1_6 
REMARK    4  A    between atoms: S1_6  and  C5_9 
REMARK    5  A    between atoms: C8_12  and  C9_13 
REMARK    6  A    between atoms: C12_16  and  N2_17 
REMARK       I    between atoms: N2_17  and  C13_19 
REMARK    7  A    between atoms: C13_19  and  C14_21 
ROOT
HETATM    1  C9  UNL     1      81.366  62.440  13.200  1.00  0.00    -0.026 A 
HETATM    2  C10 UNL     1      81.033  63.420  12.304  1.00  0.00     0.014 A 
HETATM    3  C11 UNL     1      79.852  64.158  12.471  1.00  0.00     0.030 A 
HETATM    4  C12 UNL     1      78.991  63.939  13.516  1.00  0.00     0.035 A 
HETATM    5  C24 UNL     1      79.372  62.926  14.411  1.00  0.00     0.030 A 
HETATM    6  C25 UNL     1      80.508  62.209  14.260  1.00  0.00     0.014 A 
ENDROOT
BRANCH   4   7
HETATM    7  N2  UNL     1      77.802  64.641  13.740  1.00  0.00    -0.323 N 
HETATM    8  C13 UNL     1      76.516  64.247  13.438  1.00  0.00     0.256 C 
HETATM    9  O3  UNL     1      76.256  63.143  12.863  1.00  0.00    -0.267 OA
ATOM     10  H2  UNL     1      77.898  65.555  14.181  1.00  0.00     0.169 HD
BRANCH   8  11
HETATM   11  C14 UNL     1      75.388  65.112  13.773  1.00  0.00     0.039 A 
HETATM   12  C15 UNL     1      74.894  65.971  12.807  1.00  0.00     0.020 A 
HETATM   13  C16 UNL     1      73.884  66.898  13.073  1.00  0.00     0.033 A 
HETATM   14  C17 UNL     1      73.376  66.942  14.353  1.00  0.00     0.063 A 
HETATM   15  N3  UNL     1      72.427  67.679  15.003  1.00  0.00    -0.296 N 
HETATM   16  C20 UNL     1      73.873  66.085  15.297  1.00  0.00     0.052 A 
HETATM   17  N4  UNL     1      72.359  67.281  16.287  1.00  0.00    -0.274 N 
ATOM     18  H3  UNL     1      71.860  68.414  14.582  1.00  0.00     0.187 HD
HETATM   19  C18 UNL     1      71.474  67.838  17.253  1.00  0.00     0.180 C 
HETATM   20  C19 UNL     1      73.247  66.299  16.487  1.00  0.00     0.172 A 
HETATM   21  O4  UNL     1      73.670  65.484  17.557  1.00  0.00    -0.334 OA
HETATM   22  C23 UNL     1      75.048  65.016  17.468  1.00  0.00     0.182 C 
HETATM   23  C22 UNL     1      75.198  64.239  16.152  1.00  0.00     0.067 C 
HETATM   24  C21 UNL     1      74.879  65.152  15.045  1.00  0.00    -0.024 A 
ENDBRANCH   8  11
ENDBRANCH   4   7
BRANCH   1  25
HETATM   25  C8  UNL     1      82.561  61.640  13.069  1.00  0.00    -0.026 A 
HETATM   26  C7  UNL     1      82.664  60.750  11.999  1.00  0.00     0.014 A 
HETATM   27  C6  UNL     1      83.775  59.976  11.797  1.00  0.00     0.025 A 
HETATM   28  C5  UNL     1      84.840  60.053  12.658  1.00  0.00     0.074 A 
HETATM   29  C27 UNL     1      84.777  60.912  13.720  1.00  0.00     0.025 A 
HETATM   30  C26 UNL     1      83.639  61.704  13.925  1.00  0.00     0.014 A 
BRANCH  28  31
HETATM   31  S1  UNL     1      86.237  59.073  12.375  1.00  0.00     0.243 S 
HETATM   32  O1  UNL     1      87.123  58.909  13.560  1.00  0.00    -0.206 OA
HETATM   33  O2  UNL     1      87.095  59.752  11.312  1.00  0.00    -0.206 OA
BRANCH  31  34
HETATM   34  N1  UNL     1      85.753  57.573  11.698  1.00  0.00    -0.207 NA
BRANCH  34  35
HETATM   35  C2  UNL     1      85.405  56.572  12.660  1.00  0.00     0.103 C 
HETATM   36  C1  UNL     1      83.921  56.409  12.719  1.00  0.00     0.021 C 
ENDBRANCH  34  35
BRANCH  34  37
HETATM   37  C3  UNL     1      86.672  57.091  10.691  1.00  0.00     0.103 C 
HETATM   38  C4  UNL     1      87.758  56.210  11.192  1.00  0.00     0.021 C 
ENDBRANCH  34  37
ENDBRANCH  31  34
ENDBRANCH  28  31
ENDBRANCH   1  25
TORSDOF 7
ENDMDL
MODEL 5
REMARK VINA RESULT: -6.571154872      3.560     13.640
REMARK  7 active torsions:
REMARK  status: ('A' for Active; 'I' for Inactive)
REMARK    1  A    between atoms: C2_2  and  N1_3 
REMARK    2  A    between atoms: N1_3  and  C3_4 
REMARK    3  A    between atoms: N1_3  and  S1_6 
REMARK    4  A    between atoms: S1_6  and  C5_9 
REMARK    5  A    between atoms: C8_12  and  C9_13 
REMARK    6  A    between atoms: C12_16  and  N2_17 
REMARK       I    between atoms: N2_17  and  C13_19 
REMARK    7  A    between atoms: C13_19  and  C14_21 
ROOT
HETATM    1  C9  UNL     1      82.600  61.863  13.434  1.00  0.00    -0.026 A 
HETATM    2  C10 UNL     1      83.488  62.142  14.437  1.00  0.00     0.014 A 
HETATM    3  C11 UNL     1      84.788  61.615  14.397  1.00  0.00     0.030 A 
HETATM    4  C12 UNL     1      85.223  60.811  13.374  1.00  0.00     0.035 A 
HETATM    5  C24 UNL     1      84.279  60.551  12.366  1.00  0.00     0.030 A 
HETATM    6  C25 UNL     1      83.025  61.054  12.395  1.00  0.00     0.014 A 
ENDROOT
BRANCH   4   7
HETATM    7  N2  UNL     1      86.503  60.257  13.274  1.00  0.00    -0.323 N 
HETATM    8  C13 UNL     1      87.496  60.576  12.372  1.00  0.00     0.256 C 
HETATM    9  O3  UNL     1      87.337  61.446  11.458  1.00  0.00    -0.267 OA
ATOM     10  H2  UNL     1      86.730  59.529  13.950  1.00  0.00     0.169 HD
BRANCH   8  11
HETATM   11  C14 UNL     1      88.789  59.900  12.439  1.00  0.00     0.039 A 
HETATM   12  C15 UNL     1      89.934  60.660  12.606  1.00  0.00     0.020 A 
HETATM   13  C16 UNL     1      91.214  60.103  12.584  1.00  0.00     0.033 A 
HETATM   14  C17 UNL     1      91.317  58.744  12.384  1.00  0.00     0.063 A 
HETATM   15  N3  UNL     1      92.342  57.845  12.289  1.00  0.00    -0.296 N 
HETATM   16  C20 UNL     1      90.177  58.005  12.222  1.00  0.00     0.052 A 
HETATM   17  N4  UNL     1      91.836  56.616  12.076  1.00  0.00    -0.274 N 
ATOM     18  H3  UNL     1      93.333  58.069  12.367  1.00  0.00     0.187 HD
HETATM   19  C18 UNL     1      92.623  55.440  11.927  1.00  0.00     0.180 C 
HETATM   20  C19 UNL     1      90.500  56.697  12.030  1.00  0.00     0.172 A 
HETATM   21  O4  UNL     1      89.413  55.818  11.840  1.00  0.00    -0.334 OA
HETATM   22  C23 UNL     1      88.224  56.428  11.258  1.00  0.00     0.182 C 
HETATM   23  C22 UNL     1      87.787  57.580  12.173  1.00  0.00     0.067 C 
HETATM   24  C21 UNL     1      88.892  58.547  12.246  1.00  0.00    -0.024 A 
ENDBRANCH   8  11
ENDBRANCH   4   7
BRANCH   1  25
HETATM   25  C8  UNL     1      81.246  62.366  13.431  1.00  0.00    -0.026 A 
HETATM   26  C7  UNL     1      80.340  61.871  14.371  1.00  0.00     0.014 A 
HETATM   27  C6  UNL     1      79.048  62.316  14.445  1.00  0.00     0.025 A 
HETATM   28  C5  UNL     1      78.596  63.280  13.578  1.00  0.00     0.074 A 
HETATM   29  C27 UNL     1      79.452  63.787  12.642  1.00  0.00     0.025 A 
HETATM   30  C26 UNL     1      80.775  63.332  12.569  1.00  0.00     0.014 A 
BRANCH  28  31
HETATM   31  S1  UNL     1      76.962  63.833  13.699  1.00  0.00     0.243 S 
HETATM   32  O1  UNL     1      76.211  63.818  12.413  1.00  0.00    -0.206 OA
HETATM   33  O2  UNL     1      76.978  65.292  14.144  1.00  0.00    -0.206 OA
BRANCH  31  34
HETATM   34  N1  UNL     1      76.158  62.972  14.945  1.00  0.00    -0.207 NA
BRANCH  34  35
HETATM   35  C2  UNL     1      74.882  62.442  14.572  1.00  0.00     0.103 C 
HETATM   36  C1  UNL     1      74.955  60.954  14.464  1.00  0.00     0.021 C 
ENDBRANCH  34  35
BRANCH  34  37
HETATM   37  C3  UNL     1      76.123  63.699  16.194  1.00  0.00     0.103 C 
HETATM   38  C4  UNL     1      76.595  62.943  17.383  1.00  0.00     0.021 C 
ENDBRANCH  34  37
ENDBRANCH  31  34
ENDBRANCH  28  31
ENDBRANCH   1  25
TORSDOF 7
ENDMDL
