MODEL 1
REMARK VINA RESULT: -7.084991419      0.000      0.000
REMARK  7 active torsions:
REMARK  status: ('A' for Active; 'I' for Inactive)
REMARK    1  A    between atoms: C2_2  and  N1_3 
REMARK    2  A    between atoms: N1_3  and  C3_4 
REMARK    3  A    between atoms: N1_3  and  C5_8 
REMARK    4  A    between atoms: C3_4  and  C4_5 
REMARK    5  A    between atoms: C15_18  and  C17_20 
REMARK    6  A    between atoms: C17_20  and  N2_21 
REMARK    7  A    between atoms: N2_21  and  S1_23 
ROOT
HETATM    1  C5  UNL     1      84.095  59.909  13.389  1.00  0.00     0.010 C 
HETATM    2  C6  UNL     1      84.765  61.107  14.134  1.00  0.00     0.068 C 
HETATM    3  C7  UNL     1      82.691  60.141  13.389  1.00  0.00    -0.049 C 
HETATM    4  C8  UNL     1      81.790  58.923  13.100  1.00  0.00     0.037 C 
HETATM    5  C9  UNL     1      80.380  59.495  13.053  1.00  0.00     0.010 C 
HETATM    6  C10 UNL     1      80.575  60.891  13.539  1.00  0.00     0.003 C 
HETATM    7  C11 UNL     1      79.475  61.817  13.421  1.00  0.00    -0.001 C 
HETATM    8  C12 UNL     1      78.280  61.368  12.571  1.00  0.00     0.033 C 
HETATM    9  C13 UNL     1      77.131  62.277  12.902  1.00  0.00    -0.022 C 
HETATM   10  C14 UNL     1      77.360  63.605  12.872  1.00  0.00    -0.065 C 
HETATM   11  C15 UNL     1      76.226  64.476  13.200  1.00  0.00    -0.004 C 
HETATM   12  C16 UNL     1      75.014  63.999  12.426  1.00  0.00     0.021 C 
HETATM   13  C19 UNL     1      76.435  65.923  12.898  1.00  0.00     0.015 C 
HETATM   14  C20 UNL     1      77.753  66.275  12.281  1.00  0.00     0.002 C 
HETATM   15  C21 UNL     1      78.821  65.512  12.992  1.00  0.00     0.014 C 
HETATM   16  C22 UNL     1      78.731  64.054  12.504  1.00  0.00    -0.016 C 
HETATM   17  C23 UNL     1      78.812  64.133  11.023  1.00  0.00     0.020 C 
HETATM   18  C24 UNL     1      79.801  63.272  13.193  1.00  0.00     0.003 C 
HETATM   19  C25 UNL     1      81.115  63.502  12.542  1.00  0.00     0.007 C 
HETATM   20  C26 UNL     1      82.221  62.632  13.169  1.00  0.00     0.014 C 
HETATM   21  C27 UNL     1      81.906  61.232  12.805  1.00  0.00    -0.015 C 
HETATM   22  C28 UNL     1      81.675  61.154  11.317  1.00  0.00     0.020 C 
ENDROOT
BRANCH   1  23
HETATM   23  N1  UNL     1      84.912  59.425  12.382  1.00  0.00    -0.354 N 
BRANCH  23  24
HETATM   24  C2  UNL     1      85.729  58.300  12.791  1.00  0.00     0.124 C 
HETATM   25  C1  UNL     1      85.123  56.948  12.669  1.00  0.00     0.027 C 
ENDBRANCH  23  24
BRANCH  23  26
HETATM   26  C3  UNL     1      85.132  59.941  11.128  1.00  0.00     0.175 C 
BRANCH  26  27
HETATM   27  C4  UNL     1      86.347  60.695  10.802  1.00  0.00     0.214 C 
HETATM   28  O1  UNL     1      87.149  60.322   9.906  1.00  0.00    -0.643 OA
HETATM   29  O2  UNL     1      86.677  61.860  11.453  1.00  0.00    -0.643 OA
ENDBRANCH  26  27
ENDBRANCH  23  26
ENDBRANCH   1  23
BRANCH  11  30
HETATM   30  C17 UNL     1      75.913  64.248  14.680  1.00  0.00     0.145 C 
BRANCH  30  31
HETATM   31  N2  UNL     1      76.163  65.403  15.468  1.00  0.00    -0.319 N 
ATOM     32  H2  UNL     1      77.088  65.832  15.521  1.00  0.00     0.172 HD
BRANCH  31  33
HETATM   33  S1  UNL     1      74.834  66.026  16.311  1.00  0.00     0.222 S 
HETATM   34  C18 UNL     1      73.307  65.880  15.407  1.00  0.00     0.185 C 
HETATM   35  O3  UNL     1      75.066  67.520  16.500  1.00  0.00    -0.206 OA
HETATM   36  O4  UNL     1      74.687  65.456  17.692  1.00  0.00    -0.206 OA
ENDBRANCH  31  33
ENDBRANCH  30  31
ENDBRANCH  11  30
TORSDOF 7
ENDMDL
MODEL 2
REMARK VINA RESULT: -6.878912023      1.601      2.029
REMARK  7 active torsions:
REMARK  status: ('A' for Active; 'I' for Inactive)
REMARK    1  A    between atoms: C2_2  and  N1_3 
REMARK    2  A    between atoms: N1_3  and  C3_4 
REMARK    3  A    between atoms: N1_3  and  C5_8 
REMARK    4  A    between atoms: C3_4  and  C4_5 
REMARK    5  A    between atoms: C15_18  and  C17_20 
REMARK    6  A    between atoms: C17_20  and  N2_21 
REMARK    7  A    between atoms: N2_21  and  S1_23 
ROOT
HETATM    1  C5  UNL     1      83.459  59.226  13.296  1.00  0.00     0.010 C 
HETATM    2  C6  UNL     1      84.297  60.222  14.157  1.00  0.00     0.068 C 
HETATM    3  C7  UNL     1      82.131  59.734  13.231  1.00  0.00    -0.049 C 
HETATM    4  C8  UNL     1      81.030  58.740  12.810  1.00  0.00     0.037 C 
HETATM    5  C9  UNL     1      79.767  59.584  12.721  1.00  0.00     0.010 C 
HETATM    6  C10 UNL     1      80.199  60.884  13.310  1.00  0.00     0.003 C 
HETATM    7  C11 UNL     1      79.313  62.017  13.192  1.00  0.00    -0.001 C 
HETATM    8  C12 UNL     1      78.115  61.864  12.247  1.00  0.00     0.033 C 
HETATM    9  C13 UNL     1      77.147  62.966  12.573  1.00  0.00    -0.022 C 
HETATM   10  C14 UNL     1      77.635  64.220  12.645  1.00  0.00    -0.065 C 
HETATM   11  C15 UNL     1      76.674  65.281  12.965  1.00  0.00    -0.004 C 
HETATM   12  C16 UNL     1      75.449  65.100  12.093  1.00  0.00     0.021 C 
HETATM   13  C19 UNL     1      77.184  66.671  12.774  1.00  0.00     0.015 C 
HETATM   14  C20 UNL     1      78.585  66.785  12.259  1.00  0.00     0.002 C 
HETATM   15  C21 UNL     1      79.430  65.786  12.977  1.00  0.00     0.014 C 
HETATM   16  C22 UNL     1      79.090  64.405  12.387  1.00  0.00    -0.016 C 
HETATM   17  C23 UNL     1      79.287  64.546  10.922  1.00  0.00     0.020 C 
HETATM   18  C24 UNL     1      79.934  63.387  13.082  1.00  0.00     0.003 C 
HETATM   19  C25 UNL     1      81.310  63.385  12.524  1.00  0.00     0.007 C 
HETATM   20  C26 UNL     1      82.177  62.277  13.154  1.00  0.00     0.014 C 
HETATM   21  C27 UNL     1      81.619  60.991  12.678  1.00  0.00    -0.015 C 
HETATM   22  C28 UNL     1      81.481  61.042  11.178  1.00  0.00     0.020 C 
ENDROOT
BRANCH   1  23
HETATM   23  N1  UNL     1      84.232  58.643  12.307  1.00  0.00    -0.354 N 
BRANCH  23  24
HETATM   24  C2  UNL     1      85.186  59.555  11.707  1.00  0.00     0.124 C 
HETATM   25  C1  UNL     1      84.985  59.891  10.274  1.00  0.00     0.027 C 
ENDBRANCH  23  24
BRANCH  23  26
HETATM   26  C3  UNL     1      84.123  57.391  11.753  1.00  0.00     0.175 C 
BRANCH  26  27
HETATM   27  C4  UNL     1      84.757  56.216  12.361  1.00  0.00     0.214 C 
HETATM   28  O1  UNL     1      85.947  55.889  12.109  1.00  0.00    -0.643 OA
HETATM   29  O2  UNL     1      84.089  55.405  13.248  1.00  0.00    -0.643 OA
ENDBRANCH  26  27
ENDBRANCH  23  26
ENDBRANCH   1  23
BRANCH  11  30
HETATM   30  C17 UNL     1      76.220  65.040  14.406  1.00  0.00     0.145 C 
BRANCH  30  31
HETATM   31  N2  UNL     1      76.331  66.207  15.209  1.00  0.00    -0.319 N 
ATOM     32  H2  UNL     1      77.205  66.726  15.291  1.00  0.00     0.172 HD
BRANCH  31  33
HETATM   33  S1  UNL     1      74.923  66.685  16.018  1.00  0.00     0.222 S 
HETATM   34  C18 UNL     1      73.475  66.637  14.982  1.00  0.00     0.185 C 
HETATM   35  O3  UNL     1      75.097  68.143  16.425  1.00  0.00    -0.206 OA
HETATM   36  O4  UNL     1      74.685  65.929  17.293  1.00  0.00    -0.206 OA
ENDBRANCH  31  33
ENDBRANCH  30  31
ENDBRANCH  11  30
TORSDOF 7
ENDMDL
MODEL 3
REMARK VINA RESULT: -6.820394839      1.148      1.333
REMARK  7 active torsions:
REMARK  status: ('A' for Active; 'I' for Inactive)
REMARK    1  A    between atoms: C2_2  and  N1_3 
REMARK    2  A    between atoms: N1_3  and  C3_4 
REMARK    3  A    between atoms: N1_3  and  C5_8 
REMARK    4  A    between atoms: C3_4  and  C4_5 
REMARK    5  A    between atoms: C15_18  and  C17_20 
REMARK    6  A    between atoms: C17_20  and  N2_21 
REMARK    7  A    between atoms: N2_21  and  S1_23 
ROOT
HETATM    1  C5  UNL     1      83.631  59.264  13.406  1.00  0.00     0.010 C 
HETATM    2  C6  UNL     1      84.430  60.295  14.265  1.00  0.00     0.068 C 
HETATM    3  C7  UNL     1      82.287  59.726  13.331  1.00  0.00    -0.049 C 
HETATM    4  C8  UNL     1      81.223  58.691  12.911  1.00  0.00     0.037 C 
HETATM    5  C9  UNL     1      79.932  59.491  12.810  1.00  0.00     0.010 C 
HETATM    6  C10 UNL     1      80.315  60.809  13.393  1.00  0.00     0.003 C 
HETATM    7  C11 UNL     1      79.391  61.909  13.263  1.00  0.00    -0.001 C 
HETATM    8  C12 UNL     1      78.204  61.708  12.313  1.00  0.00     0.033 C 
HETATM    9  C13 UNL     1      77.197  62.778  12.626  1.00  0.00    -0.022 C 
HETATM   10  C14 UNL     1      77.640  64.049  12.694  1.00  0.00    -0.065 C 
HETATM   11  C15 UNL     1      76.641  65.078  13.002  1.00  0.00    -0.004 C 
HETATM   12  C16 UNL     1      75.428  64.849  12.124  1.00  0.00     0.021 C 
HETATM   13  C19 UNL     1      77.104  66.484  12.804  1.00  0.00     0.015 C 
HETATM   14  C20 UNL     1      78.503  66.643  12.296  1.00  0.00     0.002 C 
HETATM   15  C21 UNL     1      79.378  65.678  13.024  1.00  0.00     0.014 C 
HETATM   16  C22 UNL     1      79.089  64.282  12.441  1.00  0.00    -0.016 C 
HETATM   17  C23 UNL     1      79.289  64.422  10.977  1.00  0.00     0.020 C 
HETATM   18  C24 UNL     1      79.965  63.299  13.148  1.00  0.00     0.003 C 
HETATM   19  C25 UNL     1      81.343  63.341  12.596  1.00  0.00     0.007 C 
HETATM   20  C26 UNL     1      82.244  62.268  13.237  1.00  0.00     0.014 C 
HETATM   21  C27 UNL     1      81.734  60.960  12.768  1.00  0.00    -0.015 C 
HETATM   22  C28 UNL     1      81.602  60.998  11.266  1.00  0.00     0.020 C 
ENDROOT
BRANCH   1  23
HETATM   23  N1  UNL     1      84.429  58.703  12.425  1.00  0.00    -0.354 N 
BRANCH  23  24
HETATM   24  C2  UNL     1      85.045  57.453  12.825  1.00  0.00     0.124 C 
HETATM   25  C1  UNL     1      84.165  56.256  12.876  1.00  0.00     0.027 C 
ENDBRANCH  23  24
BRANCH  23  26
HETATM   26  C3  UNL     1      84.802  59.229  11.212  1.00  0.00     0.175 C 
BRANCH  26  27
HETATM   27  C4  UNL     1      84.171  58.807   9.957  1.00  0.00     0.214 C 
HETATM   28  O1  UNL     1      83.162  58.054   9.931  1.00  0.00    -0.643 OA
HETATM   29  O2  UNL     1      84.642  59.217   8.731  1.00  0.00    -0.643 OA
ENDBRANCH  26  27
ENDBRANCH  23  26
ENDBRANCH   1  23
BRANCH  11  30
HETATM   30  C17 UNL     1      76.189  64.830  14.442  1.00  0.00     0.145 C 
BRANCH  30  31
HETATM   31  N2  UNL     1      76.302  65.994  15.250  1.00  0.00    -0.319 N 
ATOM     32  H2  UNL     1      77.178  66.508  15.337  1.00  0.00     0.172 HD
BRANCH  31  33
HETATM   33  S1  UNL     1      74.894  66.473  16.058  1.00  0.00     0.222 S 
HETATM   34  C18 UNL     1      73.438  66.377  15.036  1.00  0.00     0.185 C 
HETATM   35  O3  UNL     1      75.050  67.943  16.424  1.00  0.00    -0.206 OA
HETATM   36  O4  UNL     1      74.677  65.749  17.355  1.00  0.00    -0.206 OA
ENDBRANCH  31  33
ENDBRANCH  30  31
ENDBRANCH  11  30
TORSDOF 7
ENDMDL
MODEL 4
REMARK VINA RESULT: -6.749702904      0.975      1.190
REMARK  7 active torsions:
REMARK  status: ('A' for Active; 'I' for Inactive)
REMARK    1  A    between atoms: C2_2  and  N1_3 
REMARK    2  A    between atoms: N1_3  and  C3_4 
REMARK    3  A    between atoms: N1_3  and  C5_8 
REMARK    4  A    between atoms: C3_4  and  C4_5 
REMARK    5  A    between atoms: C15_18  and  C17_20 
REMARK    6  A    between atoms: C17_20  and  N2_21 
REMARK    7  A    between atoms: N2_21  and  S1_23 
ROOT
HETATM    1  C5  UNL     1      84.504  59.507  13.353  1.00  0.00     0.010 C 
HETATM    2  C6  UNL     1      85.124  60.639  14.231  1.00  0.00     0.068 C 
HETATM    3  C7  UNL     1      83.096  59.709  13.331  1.00  0.00    -0.049 C 
HETATM    4  C8  UNL     1      82.232  58.507  12.897  1.00  0.00     0.037 C 
HETATM    5  C9  UNL     1      80.811  59.052  12.862  1.00  0.00     0.010 C 
HETATM    6  C10 UNL     1      80.959  60.398  13.488  1.00  0.00     0.003 C 
HETATM    7  C11 UNL     1      79.842  61.308  13.427  1.00  0.00    -0.001 C 
HETATM    8  C12 UNL     1      78.683  60.920  12.500  1.00  0.00     0.033 C 
HETATM    9  C13 UNL     1      77.504  61.769  12.882  1.00  0.00    -0.022 C 
HETATM   10  C14 UNL     1      77.703  63.098  12.989  1.00  0.00    -0.065 C 
HETATM   11  C15 UNL     1      76.540  63.909  13.365  1.00  0.00    -0.004 C 
HETATM   12  C16 UNL     1      75.362  63.486  12.510  1.00  0.00     0.021 C 
HETATM   13  C19 UNL     1      76.724  65.383  13.212  1.00  0.00     0.015 C 
HETATM   14  C20 UNL     1      78.050  65.820  12.675  1.00  0.00     0.002 C 
HETATM   15  C21 UNL     1      79.115  65.013  13.340  1.00  0.00     0.014 C 
HETATM   16  C22 UNL     1      79.073  63.609  12.709  1.00  0.00    -0.016 C 
HETATM   17  C23 UNL     1      79.195  63.834  11.247  1.00  0.00     0.020 C 
HETATM   18  C24 UNL     1      80.140  62.784  13.353  1.00  0.00     0.003 C 
HETATM   19  C25 UNL     1      81.467  63.105  12.768  1.00  0.00     0.007 C 
HETATM   20  C26 UNL     1      82.575  62.199  13.342  1.00  0.00     0.014 C 
HETATM   21  C27 UNL     1      82.303  60.836  12.833  1.00  0.00    -0.015 C 
HETATM   22  C28 UNL     1      82.118  60.900  11.338  1.00  0.00     0.020 C 
ENDROOT
BRANCH   1  23
HETATM   23  N1  UNL     1      85.361  59.140  12.329  1.00  0.00    -0.354 N 
BRANCH  23  24
HETATM   24  C2  UNL     1      86.167  57.976  12.639  1.00  0.00     0.124 C 
HETATM   25  C1  UNL     1      85.595  56.650  12.289  1.00  0.00     0.027 C 
ENDBRANCH  23  24
BRANCH  23  26
HETATM   26  C3  UNL     1      85.627  59.796  11.152  1.00  0.00     0.175 C 
BRANCH  26  27
HETATM   27  C4  UNL     1      86.785  60.683  11.002  1.00  0.00     0.214 C 
HETATM   28  O1  UNL     1      87.854  60.306  10.453  1.00  0.00    -0.643 OA
HETATM   29  O2  UNL     1      86.768  61.984  11.448  1.00  0.00    -0.643 OA
ENDBRANCH  26  27
ENDBRANCH  23  26
ENDBRANCH   1  23
BRANCH  11  30
HETATM   30  C17 UNL     1      76.189  63.530  14.805  1.00  0.00     0.145 C 
BRANCH  30  31
HETATM   31  N2  UNL     1      76.218  64.650  15.679  1.00  0.00    -0.319 N 
ATOM     32  H2  UNL     1      76.840  65.443  15.521  1.00  0.00     0.172 HD
BRANCH  31  33
HETATM   33  S1  UNL     1      75.157  64.589  16.996  1.00  0.00     0.222 S 
HETATM   34  C18 UNL     1      75.802  63.649  18.365  1.00  0.00     0.185 C 
HETATM   35  O3  UNL     1      73.900  63.858  16.543  1.00  0.00    -0.206 OA
HETATM   36  O4  UNL     1      74.701  65.943  17.455  1.00  0.00    -0.206 OA
ENDBRANCH  31  33
ENDBRANCH  30  31
ENDBRANCH  11  30
TORSDOF 7
ENDMDL
MODEL 5
REMARK VINA RESULT: -6.667365161      1.498      1.775
REMARK  7 active torsions:
REMARK  status: ('A' for Active; 'I' for Inactive)
REMARK    1  A    between atoms: C2_2  and  N1_3 
REMARK    2  A    between atoms: N1_3  and  C3_4 
REMARK    3  A    between atoms: N1_3  and  C5_8 
REMARK    4  A    between atoms: C3_4  and  C4_5 
REMARK    5  A    between atoms: C15_18  and  C17_20 
REMARK    6  A    between atoms: C17_20  and  N2_21 
REMARK    7  A    between atoms: N2_21  and  S1_23 
ROOT
HETATM    1  C5  UNL     1      85.032  59.309  13.220  1.00  0.00     0.010 C 
HETATM    2  C6  UNL     1      85.597  60.467  14.103  1.00  0.00     0.068 C 
HETATM    3  C7  UNL     1      83.613  59.392  13.268  1.00  0.00    -0.049 C 
HETATM    4  C8  UNL     1      82.831  58.134  12.838  1.00  0.00     0.037 C 
HETATM    5  C9  UNL     1      81.371  58.558  12.884  1.00  0.00     0.010 C 
HETATM    6  C10 UNL     1      81.436  59.894  13.542  1.00  0.00     0.003 C 
HETATM    7  C11 UNL     1      80.246  60.709  13.558  1.00  0.00    -0.001 C 
HETATM    8  C12 UNL     1      79.080  60.249  12.675  1.00  0.00     0.033 C 
HETATM    9  C13 UNL     1      77.854  60.985  13.135  1.00  0.00    -0.022 C 
HETATM   10  C14 UNL     1      77.947  62.323  13.272  1.00  0.00    -0.065 C 
HETATM   11  C15 UNL     1      76.740  63.023  13.723  1.00  0.00    -0.004 C 
HETATM   12  C16 UNL     1      75.562  62.524  12.911  1.00  0.00     0.021 C 
HETATM   13  C19 UNL     1      76.793  64.510  13.606  1.00  0.00     0.015 C 
HETATM   14  C20 UNL     1      78.052  65.072  13.022  1.00  0.00     0.002 C 
HETATM   15  C21 UNL     1      79.210  64.341  13.614  1.00  0.00     0.014 C 
HETATM   16  C22 UNL     1      79.255  62.954  12.945  1.00  0.00    -0.016 C 
HETATM   17  C23 UNL     1      79.288  63.227  11.486  1.00  0.00     0.020 C 
HETATM   18  C24 UNL     1      80.416  62.206  13.514  1.00  0.00     0.003 C 
HETATM   19  C25 UNL     1      81.683  62.652  12.880  1.00  0.00     0.007 C 
HETATM   20  C26 UNL     1      82.888  61.829  13.376  1.00  0.00     0.014 C 
HETATM   21  C27 UNL     1      82.706  60.461  12.840  1.00  0.00    -0.015 C 
HETATM   22  C28 UNL     1      82.445  60.547  11.357  1.00  0.00     0.020 C 
ENDROOT
BRANCH   1  23
HETATM   23  N1  UNL     1      85.867  59.043  12.148  1.00  0.00    -0.354 N 
BRANCH  23  24
HETATM   24  C2  UNL     1      86.670  57.849  12.324  1.00  0.00     0.124 C 
HETATM   25  C1  UNL     1      86.193  56.612  11.652  1.00  0.00     0.027 C 
ENDBRANCH  23  24
BRANCH  23  26
HETATM   26  C3  UNL     1      86.115  59.811  11.038  1.00  0.00     0.175 C 
BRANCH  26  27
HETATM   27  C4  UNL     1      87.431  60.407  10.784  1.00  0.00     0.214 C 
HETATM   28  O1  UNL     1      88.167  60.033   9.833  1.00  0.00    -0.643 OA
HETATM   29  O2  UNL     1      87.936  61.417  11.569  1.00  0.00    -0.643 OA
ENDBRANCH  26  27
ENDBRANCH  23  26
ENDBRANCH   1  23
BRANCH  11  30
HETATM   30  C17 UNL     1      76.491  62.579  15.166  1.00  0.00     0.145 C 
BRANCH  30  31
HETATM   31  N2  UNL     1      76.482  63.673  16.072  1.00  0.00    -0.319 N 
ATOM     32  H2  UNL     1      76.803  64.603  15.801  1.00  0.00     0.172 HD
BRANCH  31  33
HETATM   33  S1  UNL     1      75.907  63.341  17.629  1.00  0.00     0.222 S 
HETATM   34  C18 UNL     1      74.709  62.023  17.661  1.00  0.00     0.185 C 
HETATM   35  O3  UNL     1      75.175  64.581  18.125  1.00  0.00    -0.206 OA
HETATM   36  O4  UNL     1      77.001  63.084  18.624  1.00  0.00    -0.206 OA
ENDBRANCH  31  33
ENDBRANCH  30  31
ENDBRANCH  11  30
TORSDOF 7
ENDMDL
