MODEL 1
REMARK VINA RESULT: -6.808688173      0.000      0.000
REMARK  9 active torsions:
REMARK  status: ('A' for Active; 'I' for Inactive)
REMARK    1  A    between atoms: C5_5  and  N1_6 
REMARK       I    between atoms: N1_6  and  C6_7 
REMARK       I    between atoms: N1_6  and  C13_21 
REMARK    2  A    between atoms: C6_7  and  C7_9 
REMARK    3  A    between atoms: C7_9  and  C8_10 
REMARK    4  A    between atoms: C8_10  and  C9_11 
REMARK       I    between atoms: C9_11  and  N2_13 
REMARK    5  A    between atoms: N2_13  and  C10_15 
REMARK    6  A    between atoms: C13_21  and  C14_23 
REMARK       I    between atoms: C14_23  and  N4_25 
REMARK    7  A    between atoms: N4_25  and  C15_27 
REMARK    8  A    between atoms: C15_27  and  C16_28 
REMARK    9  A    between atoms: C19_31  and  C20_32 
ROOT
HETATM    1  N1  UNL     1      78.923  62.572  13.427  1.00  0.00    -0.244 N 
HETATM    2  C6  UNL     1      79.998  61.593  13.290  1.00  0.00     0.232 C 
HETATM    3  O1  UNL     1      79.829  60.495  13.846  1.00  0.00    -0.273 OA
HETATM    4  C13 UNL     1      77.774  62.187  14.102  1.00  0.00     0.323 C 
HETATM    5  O3  UNL     1      77.683  61.027  14.572  1.00  0.00    -0.261 OA
ENDROOT
BRANCH   1   6
HETATM    6  C5  UNL     1      79.123  63.854  12.818  1.00  0.00     0.045 A 
HETATM    7  C4  UNL     1      78.706  64.203  11.570  1.00  0.00     0.031 A 
HETATM    8  C3  UNL     1      78.900  65.470  11.046  1.00  0.00     0.009 A 
HETATM    9  C2  UNL     1      79.533  66.452  11.768  1.00  0.00    -0.062 A 
HETATM   10  C1  UNL     1      79.769  67.812  11.184  1.00  0.00     0.048 C 
HETATM   11  C27 UNL     1      79.958  66.107  13.034  1.00  0.00     0.009 A 
HETATM   12  C26 UNL     1      79.762  64.836  13.557  1.00  0.00     0.031 A 
ENDBRANCH   1   6
BRANCH   2  13
HETATM   13  C7  UNL     1      81.226  61.854  12.541  1.00  0.00     0.113 C 
BRANCH  13  14
HETATM   14  C8  UNL     1      81.926  60.611  12.090  1.00  0.00     0.112 C 
BRANCH  14  15
HETATM   15  C9  UNL     1      83.171  60.394  12.914  1.00  0.00     0.224 C 
HETATM   16  O2  UNL     1      84.253  60.597  12.309  1.00  0.00    -0.273 OA
HETATM   17  N2  UNL     1      83.002  59.993  14.242  1.00  0.00    -0.307 N 
ATOM     18  H2  UNL     1      82.255  59.351  14.510  1.00  0.00     0.171 HD
BRANCH  17  19
HETATM   19  C10 UNL     1      83.853  60.480  15.146  1.00  0.00     0.150 A 
HETATM   20  N3  UNL     1      84.712  59.914  15.935  1.00  0.00    -0.346 N 
HETATM   21  C11 UNL     1      85.387  60.645  16.805  1.00  0.00     0.097 A 
ATOM     22  H3  UNL     1      84.866  58.907  15.884  1.00  0.00     0.167 HD
HETATM   23  C12 UNL     1      85.139  61.983  16.822  1.00  0.00     0.070 A 
HETATM   24  S1  UNL     1      83.958  62.158  15.607  1.00  0.00    -0.064 SA
ENDBRANCH  17  19
ENDBRANCH  14  15
ENDBRANCH  13  14
ENDBRANCH   2  13
BRANCH   4  25
HETATM   25  C14 UNL     1      76.608  63.043  14.320  1.00  0.00     0.310 C 
HETATM   26  O4  UNL     1      75.515  62.918  13.725  1.00  0.00    -0.262 OA
HETATM   27  N4  UNL     1      76.688  64.107  15.281  1.00  0.00    -0.349 N 
ATOM     28  H4  UNL     1      77.564  64.211  15.793  1.00  0.00     0.163 HD
BRANCH  27  29
HETATM   29  C15 UNL     1      75.651  65.025  15.576  1.00  0.00     0.161 C 
BRANCH  29  30
HETATM   30  C16 UNL     1      75.935  66.351  14.982  1.00  0.00    -0.041 A 
HETATM   31  C17 UNL     1      76.347  66.520  13.700  1.00  0.00     0.009 A 
HETATM   32  C18 UNL     1      76.494  67.818  13.157  1.00  0.00     0.008 A 
HETATM   33  C19 UNL     1      76.228  68.945  13.901  1.00  0.00    -0.051 A 
HETATM   34  C24 UNL     1      75.820  68.753  15.189  1.00  0.00     0.008 A 
HETATM   35  C25 UNL     1      75.666  67.507  15.750  1.00  0.00     0.009 A 
BRANCH  33  36
HETATM   36  C20 UNL     1      76.308  70.340  13.410  1.00  0.00    -0.024 C 
HETATM   37  C21 UNL     1      77.301  70.549  12.302  1.00  0.00     0.019 C 
HETATM   38  C22 UNL     1      76.605  71.231  14.559  1.00  0.00     0.019 C 
HETATM   39  C23 UNL     1      74.911  70.738  12.899  1.00  0.00     0.019 C 
ENDBRANCH  33  36
ENDBRANCH  29  30
ENDBRANCH  27  29
ENDBRANCH   4  25
TORSDOF 9
ENDMDL
MODEL 2
REMARK VINA RESULT: -6.739432958      1.846      2.186
REMARK  9 active torsions:
REMARK  status: ('A' for Active; 'I' for Inactive)
REMARK    1  A    between atoms: C5_5  and  N1_6 
REMARK       I    between atoms: N1_6  and  C6_7 
REMARK       I    between atoms: N1_6  and  C13_21 
REMARK    2  A    between atoms: C6_7  and  C7_9 
REMARK    3  A    between atoms: C7_9  and  C8_10 
REMARK    4  A    between atoms: C8_10  and  C9_11 
REMARK       I    between atoms: C9_11  and  N2_13 
REMARK    5  A    between atoms: N2_13  and  C10_15 
REMARK    6  A    between atoms: C13_21  and  C14_23 
REMARK       I    between atoms: C14_23  and  N4_25 
REMARK    7  A    between atoms: N4_25  and  C15_27 
REMARK    8  A    between atoms: C15_27  and  C16_28 
REMARK    9  A    between atoms: C19_31  and  C20_32 
ROOT
HETATM    1  N1  UNL     1      78.937  63.181  14.156  1.00  0.00    -0.244 N 
HETATM    2  C6  UNL     1      80.086  62.300  14.348  1.00  0.00     0.232 C 
HETATM    3  O1  UNL     1      80.017  61.485  15.282  1.00  0.00    -0.273 OA
HETATM    4  C13 UNL     1      77.835  63.001  14.978  1.00  0.00     0.323 C 
HETATM    5  O3  UNL     1      77.846  62.100  15.853  1.00  0.00    -0.261 OA
ENDROOT
BRANCH   1   6
HETATM    6  C5  UNL     1      79.022  64.148  13.102  1.00  0.00     0.045 A 
HETATM    7  C4  UNL     1      78.638  63.939  11.813  1.00  0.00     0.031 A 
HETATM    8  C3  UNL     1      78.714  64.925  10.843  1.00  0.00     0.009 A 
HETATM    9  C2  UNL     1      79.188  66.180  11.135  1.00  0.00    -0.062 A 
HETATM   10  C1  UNL     1      79.298  67.233  10.075  1.00  0.00     0.048 C 
HETATM   11  C27 UNL     1      79.578  66.401  12.440  1.00  0.00     0.009 A 
HETATM   12  C26 UNL     1      79.500  65.411  13.411  1.00  0.00     0.031 A 
ENDBRANCH   1   6
BRANCH   2  13
HETATM   13  C7  UNL     1      81.277  62.345  13.500  1.00  0.00     0.113 C 
BRANCH  13  14
HETATM   14  C8  UNL     1      81.916  61.006  13.298  1.00  0.00     0.112 C 
BRANCH  14  15
HETATM   15  C9  UNL     1      83.415  61.130  13.408  1.00  0.00     0.224 C 
HETATM   16  O2  UNL     1      83.822  61.893  14.319  1.00  0.00    -0.273 OA
HETATM   17  N2  UNL     1      84.189  60.402  12.499  1.00  0.00    -0.307 N 
ATOM     18  H2  UNL     1      83.889  60.275  11.531  1.00  0.00     0.171 HD
BRANCH  17  19
HETATM   19  C10 UNL     1      85.333  59.880  12.944  1.00  0.00     0.150 A 
HETATM   20  N3  UNL     1      86.354  60.398  13.552  1.00  0.00    -0.346 N 
HETATM   21  C11 UNL     1      87.411  59.650  13.815  1.00  0.00     0.097 A 
ATOM     22  H3  UNL     1      86.341  61.380  13.826  1.00  0.00     0.167 HD
HETATM   23  C12 UNL     1      87.365  58.345  13.428  1.00  0.00     0.070 A 
HETATM   24  S1  UNL     1      85.829  58.226  12.702  1.00  0.00    -0.064 SA
ENDBRANCH  17  19
ENDBRANCH  14  15
ENDBRANCH  13  14
ENDBRANCH   2  13
BRANCH   4  25
HETATM   25  C14 UNL     1      76.606  63.792  14.912  1.00  0.00     0.310 C 
HETATM   26  O4  UNL     1      75.540  63.404  14.383  1.00  0.00    -0.262 OA
HETATM   27  N4  UNL     1      76.585  65.106  15.488  1.00  0.00    -0.349 N 
ATOM     28  H4  UNL     1      77.438  65.431  15.944  1.00  0.00     0.163 HD
BRANCH  27  29
HETATM   29  C15 UNL     1      75.479  65.990  15.476  1.00  0.00     0.161 C 
BRANCH  29  30
HETATM   30  C16 UNL     1      75.697  67.096  14.517  1.00  0.00    -0.041 A 
HETATM   31  C17 UNL     1      75.927  68.378  14.900  1.00  0.00     0.009 A 
HETATM   32  C18 UNL     1      76.239  69.370  13.941  1.00  0.00     0.008 A 
HETATM   33  C19 UNL     1      76.322  69.075  12.599  1.00  0.00    -0.051 A 
HETATM   34  C24 UNL     1      76.083  67.781  12.235  1.00  0.00     0.008 A 
HETATM   35  C25 UNL     1      75.776  66.792  13.139  1.00  0.00     0.009 A 
BRANCH  33  36
HETATM   36  C20 UNL     1      76.686  70.031  11.527  1.00  0.00    -0.024 C 
HETATM   37  C21 UNL     1      78.139  70.415  11.509  1.00  0.00     0.019 C 
HETATM   38  C22 UNL     1      75.823  71.233  11.649  1.00  0.00     0.019 C 
HETATM   39  C23 UNL     1      76.334  69.376  10.178  1.00  0.00     0.019 C 
ENDBRANCH  33  36
ENDBRANCH  29  30
ENDBRANCH  27  29
ENDBRANCH   4  25
TORSDOF 9
ENDMDL
MODEL 3
REMARK VINA RESULT: -6.667489964      3.373      4.845
REMARK  9 active torsions:
REMARK  status: ('A' for Active; 'I' for Inactive)
REMARK    1  A    between atoms: C5_5  and  N1_6 
REMARK       I    between atoms: N1_6  and  C6_7 
REMARK       I    between atoms: N1_6  and  C13_21 
REMARK    2  A    between atoms: C6_7  and  C7_9 
REMARK    3  A    between atoms: C7_9  and  C8_10 
REMARK    4  A    between atoms: C8_10  and  C9_11 
REMARK       I    between atoms: C9_11  and  N2_13 
REMARK    5  A    between atoms: N2_13  and  C10_15 
REMARK    6  A    between atoms: C13_21  and  C14_23 
REMARK       I    between atoms: C14_23  and  N4_25 
REMARK    7  A    between atoms: N4_25  and  C15_27 
REMARK    8  A    between atoms: C15_27  and  C16_28 
REMARK    9  A    between atoms: C19_31  and  C20_32 
ROOT
HETATM    1  N1  UNL     1      80.124  59.902  11.960  1.00  0.00    -0.244 N 
HETATM    2  C6  UNL     1      81.428  59.282  11.738  1.00  0.00     0.232 C 
HETATM    3  O1  UNL     1      81.440  58.051  11.570  1.00  0.00    -0.273 OA
HETATM    4  C13 UNL     1      79.000  59.093  11.900  1.00  0.00     0.323 C 
HETATM    5  O3  UNL     1      79.122  57.867  11.658  1.00  0.00    -0.261 OA
ENDROOT
BRANCH   1   6
HETATM    6  C5  UNL     1      80.103  61.317  12.190  1.00  0.00     0.045 A 
HETATM    7  C4  UNL     1      79.893  62.263  11.234  1.00  0.00     0.031 A 
HETATM    8  C3  UNL     1      79.852  63.617  11.522  1.00  0.00     0.009 A 
HETATM    9  C2  UNL     1      80.024  64.081  12.803  1.00  0.00    -0.062 A 
HETATM   10  C1  UNL     1      80.010  65.548  13.104  1.00  0.00     0.048 C 
HETATM   11  C27 UNL     1      80.236  63.128  13.777  1.00  0.00     0.009 A 
HETATM   12  C26 UNL     1      80.277  61.771  13.487  1.00  0.00     0.031 A 
ENDBRANCH   1   6
BRANCH   2  13
HETATM   13  C7  UNL     1      82.678  60.039  11.707  1.00  0.00     0.113 C 
BRANCH  13  14
HETATM   14  C8  UNL     1      83.899  59.173  11.673  1.00  0.00     0.112 C 
BRANCH  14  15
HETATM   15  C9  UNL     1      84.726  59.403  12.915  1.00  0.00     0.224 C 
HETATM   16  O2  UNL     1      85.937  59.663  12.708  1.00  0.00    -0.273 OA
HETATM   17  N2  UNL     1      84.076  59.301  14.148  1.00  0.00    -0.307 N 
ATOM     18  H2  UNL     1      83.343  58.608  14.305  1.00  0.00     0.171 HD
BRANCH  17  19
HETATM   19  C10 UNL     1      84.450  60.143  15.112  1.00  0.00     0.150 A 
HETATM   20  N3  UNL     1      85.140  59.981  16.198  1.00  0.00    -0.346 N 
HETATM   21  C11 UNL     1      85.300  60.993  17.033  1.00  0.00     0.097 A 
ATOM     22  H3  UNL     1      85.558  59.075  16.407  1.00  0.00     0.167 HD
HETATM   23  C12 UNL     1      84.720  62.179  16.695  1.00  0.00     0.070 A 
HETATM   24  S1  UNL     1      83.968  61.816  15.210  1.00  0.00    -0.064 SA
ENDBRANCH  17  19
ENDBRANCH  14  15
ENDBRANCH  13  14
ENDBRANCH   2  13
BRANCH   4  25
HETATM   25  C14 UNL     1      77.626  59.558  12.092  1.00  0.00     0.310 C 
HETATM   26  O4  UNL     1      76.770  59.637  11.182  1.00  0.00    -0.262 OA
HETATM   27  N4  UNL     1      77.196  59.954  13.402  1.00  0.00    -0.349 N 
ATOM     28  H4  UNL     1      77.873  59.875  14.161  1.00  0.00     0.163 HD
BRANCH  27  29
HETATM   29  C15 UNL     1      75.909  60.446  13.730  1.00  0.00     0.161 C 
BRANCH  29  30
HETATM   30  C16 UNL     1      75.915  61.100  15.058  1.00  0.00    -0.041 A 
HETATM   31  C17 UNL     1      76.841  62.020  15.429  1.00  0.00     0.009 A 
HETATM   32  C18 UNL     1      76.730  62.692  16.669  1.00  0.00     0.008 A 
HETATM   33  C19 UNL     1      75.690  62.441  17.534  1.00  0.00    -0.051 A 
HETATM   34  C24 UNL     1      74.773  61.508  17.144  1.00  0.00     0.008 A 
HETATM   35  C25 UNL     1      74.849  60.836  15.947  1.00  0.00     0.009 A 
BRANCH  33  36
HETATM   36  C20 UNL     1      75.462  63.123  18.830  1.00  0.00    -0.024 C 
HETATM   37  C21 UNL     1      76.640  63.086  19.762  1.00  0.00     0.019 C 
HETATM   38  C22 UNL     1      74.261  62.533  19.472  1.00  0.00     0.019 C 
HETATM   39  C23 UNL     1      75.118  64.594  18.530  1.00  0.00     0.019 C 
ENDBRANCH  33  36
ENDBRANCH  29  30
ENDBRANCH  27  29
ENDBRANCH   4  25
TORSDOF 9
ENDMDL
MODEL 4
REMARK VINA RESULT: -6.604149542      0.868      1.367
REMARK  9 active torsions:
REMARK  status: ('A' for Active; 'I' for Inactive)
REMARK    1  A    between atoms: C5_5  and  N1_6 
REMARK       I    between atoms: N1_6  and  C6_7 
REMARK       I    between atoms: N1_6  and  C13_21 
REMARK    2  A    between atoms: C6_7  and  C7_9 
REMARK    3  A    between atoms: C7_9  and  C8_10 
REMARK    4  A    between atoms: C8_10  and  C9_11 
REMARK       I    between atoms: C9_11  and  N2_13 
REMARK    5  A    between atoms: N2_13  and  C10_15 
REMARK    6  A    between atoms: C13_21  and  C14_23 
REMARK       I    between atoms: C14_23  and  N4_25 
REMARK    7  A    between atoms: N4_25  and  C15_27 
REMARK    8  A    between atoms: C15_27  and  C16_28 
REMARK    9  A    between atoms: C19_31  and  C20_32 
ROOT
HETATM    1  N1  UNL     1      79.064  62.095  13.311  1.00  0.00    -0.244 N 
HETATM    2  C6  UNL     1      80.142  61.148  13.039  1.00  0.00     0.232 C 
HETATM    3  O1  UNL     1      80.006  59.999  13.491  1.00  0.00    -0.273 OA
HETATM    4  C13 UNL     1      77.946  61.631  13.988  1.00  0.00     0.323 C 
HETATM    5  O3  UNL     1      77.884  60.429  14.345  1.00  0.00    -0.261 OA
ENDROOT
BRANCH   1   6
HETATM    6  C5  UNL     1      79.228  63.432  12.824  1.00  0.00     0.045 A 
HETATM    7  C4  UNL     1      78.769  63.893  11.628  1.00  0.00     0.031 A 
HETATM    8  C3  UNL     1      78.930  65.207  11.223  1.00  0.00     0.009 A 
HETATM    9  C2  UNL     1      79.572  66.126  12.017  1.00  0.00    -0.062 A 
HETATM   10  C1  UNL     1      79.771  67.539  11.561  1.00  0.00     0.048 C 
HETATM   11  C27 UNL     1      80.039  65.668  13.231  1.00  0.00     0.009 A 
HETATM   12  C26 UNL     1      79.876  64.349  13.636  1.00  0.00     0.031 A 
ENDBRANCH   1   6
BRANCH   2  13
HETATM   13  C7  UNL     1      81.338  61.497  12.274  1.00  0.00     0.113 C 
BRANCH  13  14
HETATM   14  C8  UNL     1      82.170  60.313  11.893  1.00  0.00     0.112 C 
BRANCH  14  15
HETATM   15  C9  UNL     1      83.362  60.205  12.811  1.00  0.00     0.224 C 
HETATM   16  O2  UNL     1      84.473  60.438  12.273  1.00  0.00    -0.273 OA
HETATM   17  N2  UNL     1      83.118  59.858  14.144  1.00  0.00    -0.307 N 
ATOM     18  H2  UNL     1      82.388  59.190  14.392  1.00  0.00     0.171 HD
BRANCH  17  19
HETATM   19  C10 UNL     1      83.876  60.435  15.078  1.00  0.00     0.150 A 
HETATM   20  N3  UNL     1      84.725  59.958  15.934  1.00  0.00    -0.346 N 
HETATM   21  C11 UNL     1      85.292  60.762  16.816  1.00  0.00     0.097 A 
ATOM     22  H3  UNL     1      84.956  58.965  15.926  1.00  0.00     0.167 HD
HETATM   23  C12 UNL     1      84.946  62.079  16.773  1.00  0.00     0.070 A 
HETATM   24  S1  UNL     1      83.830  62.129  15.487  1.00  0.00    -0.064 SA
ENDBRANCH  17  19
ENDBRANCH  14  15
ENDBRANCH  13  14
ENDBRANCH   2  13
BRANCH   4  25
HETATM   25  C14 UNL     1      76.781  62.446  14.332  1.00  0.00     0.310 C 
HETATM   26  O4  UNL     1      75.601  62.158  14.033  1.00  0.00    -0.262 OA
HETATM   27  N4  UNL     1      76.969  63.665  15.067  1.00  0.00    -0.349 N 
ATOM     28  H4  UNL     1      77.922  63.905  15.340  1.00  0.00     0.163 HD
BRANCH  27  29
HETATM   29  C15 UNL     1      75.940  64.561  15.445  1.00  0.00     0.161 C 
BRANCH  29  30
HETATM   30  C16 UNL     1      75.944  65.764  14.582  1.00  0.00    -0.041 A 
HETATM   31  C17 UNL     1      76.421  66.968  14.986  1.00  0.00     0.009 A 
HETATM   32  C18 UNL     1      76.501  68.051  14.080  1.00  0.00     0.008 A 
HETATM   33  C19 UNL     1      76.103  67.924  12.769  1.00  0.00    -0.051 A 
HETATM   34  C24 UNL     1      75.621  66.706  12.384  1.00  0.00     0.008 A 
HETATM   35  C25 UNL     1      75.529  65.632  13.237  1.00  0.00     0.009 A 
BRANCH  33  36
HETATM   36  C20 UNL     1      76.190  68.982  11.735  1.00  0.00    -0.024 C 
HETATM   37  C21 UNL     1      77.248  70.016  11.997  1.00  0.00     0.019 C 
HETATM   38  C22 UNL     1      74.855  69.616  11.591  1.00  0.00     0.019 C 
HETATM   39  C23 UNL     1      76.495  68.297  10.389  1.00  0.00     0.019 C 
ENDBRANCH  33  36
ENDBRANCH  29  30
ENDBRANCH  27  29
ENDBRANCH   4  25
TORSDOF 9
ENDMDL
MODEL 5
REMARK VINA RESULT: -6.597861462      1.482      1.786
REMARK  9 active torsions:
REMARK  status: ('A' for Active; 'I' for Inactive)
REMARK    1  A    between atoms: C5_5  and  N1_6 
REMARK       I    between atoms: N1_6  and  C6_7 
REMARK       I    between atoms: N1_6  and  C13_21 
REMARK    2  A    between atoms: C6_7  and  C7_9 
REMARK    3  A    between atoms: C7_9  and  C8_10 
REMARK    4  A    between atoms: C8_10  and  C9_11 
REMARK       I    between atoms: C9_11  and  N2_13 
REMARK    5  A    between atoms: N2_13  and  C10_15 
REMARK    6  A    between atoms: C13_21  and  C14_23 
REMARK       I    between atoms: C14_23  and  N4_25 
REMARK    7  A    between atoms: N4_25  and  C15_27 
REMARK    8  A    between atoms: C15_27  and  C16_28 
REMARK    9  A    between atoms: C19_31  and  C20_32 
ROOT
HETATM    1  N1  UNL     1      78.708  62.624  13.674  1.00  0.00    -0.244 N 
HETATM    2  C6  UNL     1      79.748  61.617  13.484  1.00  0.00     0.232 C 
HETATM    3  O1  UNL     1      79.553  60.506  14.002  1.00  0.00    -0.273 OA
HETATM    4  C13 UNL     1      77.558  62.251  14.354  1.00  0.00     0.323 C 
HETATM    5  O3  UNL     1      77.436  61.077  14.783  1.00  0.00    -0.261 OA
ENDROOT
BRANCH   1   6
HETATM    6  C5  UNL     1      78.940  63.920  13.110  1.00  0.00     0.045 A 
HETATM    7  C4  UNL     1      79.736  64.882  13.654  1.00  0.00     0.031 A 
HETATM    8  C3  UNL     1      79.948  66.107  13.045  1.00  0.00     0.009 A 
HETATM    9  C2  UNL     1      79.358  66.421  11.846  1.00  0.00    -0.062 A 
HETATM   10  C1  UNL     1      79.565  67.760  11.206  1.00  0.00     0.048 C 
HETATM   11  C27 UNL     1      78.551  65.452  11.287  1.00  0.00     0.009 A 
HETATM   12  C26 UNL     1      78.340  64.223  11.899  1.00  0.00     0.031 A 
ENDBRANCH   1   6
BRANCH   2  13
HETATM   13  C7  UNL     1      80.973  61.867  12.725  1.00  0.00     0.113 C 
BRANCH  13  14
HETATM   14  C8  UNL     1      82.190  62.007  13.585  1.00  0.00     0.112 C 
BRANCH  14  15
HETATM   15  C9  UNL     1      83.158  60.887  13.293  1.00  0.00     0.224 C 
HETATM   16  O2  UNL     1      82.988  60.310  12.190  1.00  0.00    -0.273 OA
HETATM   17  N2  UNL     1      84.125  60.603  14.261  1.00  0.00    -0.307 N 
ATOM     18  H2  UNL     1      83.912  60.669  15.257  1.00  0.00     0.171 HD
BRANCH  17  19
HETATM   19  C10 UNL     1      85.337  60.244  13.834  1.00  0.00     0.150 A 
HETATM   20  N3  UNL     1      86.106  60.702  12.897  1.00  0.00    -0.346 N 
HETATM   21  C11 UNL     1      87.250  60.096  12.630  1.00  0.00     0.097 A 
ATOM     22  H3  UNL     1      85.830  61.528  12.367  1.00  0.00     0.167 HD
HETATM   23  C12 UNL     1      87.565  59.001  13.376  1.00  0.00     0.070 A 
HETATM   24  S1  UNL     1      86.229  58.868  14.425  1.00  0.00    -0.064 SA
ENDBRANCH  17  19
ENDBRANCH  14  15
ENDBRANCH  13  14
ENDBRANCH   2  13
BRANCH   4  25
HETATM   25  C14 UNL     1      76.423  63.135  14.622  1.00  0.00     0.310 C 
HETATM   26  O4  UNL     1      75.340  63.108  13.997  1.00  0.00    -0.262 OA
HETATM   27  N4  UNL     1      76.525  64.108  15.673  1.00  0.00    -0.349 N 
ATOM     28  H4  UNL     1      77.392  64.129  16.209  1.00  0.00     0.163 HD
BRANCH  27  29
HETATM   29  C15 UNL     1      75.520  65.041  16.026  1.00  0.00     0.161 C 
BRANCH  29  30
HETATM   30  C16 UNL     1      75.805  66.371  15.440  1.00  0.00    -0.041 A 
HETATM   31  C17 UNL     1      76.468  66.541  14.268  1.00  0.00     0.009 A 
HETATM   32  C18 UNL     1      76.612  67.830  13.705  1.00  0.00     0.008 A 
HETATM   33  C19 UNL     1      76.090  68.947  14.316  1.00  0.00    -0.051 A 
HETATM   34  C24 UNL     1      75.431  68.754  15.496  1.00  0.00     0.008 A 
HETATM   35  C25 UNL     1      75.272  67.517  16.073  1.00  0.00     0.009 A 
BRANCH  33  36
HETATM   36  C20 UNL     1      76.149  70.328  13.784  1.00  0.00    -0.024 C 
HETATM   37  C21 UNL     1      77.001  70.481  12.556  1.00  0.00     0.019 C 
HETATM   38  C22 UNL     1      76.611  71.234  14.865  1.00  0.00     0.019 C 
HETATM   39  C23 UNL     1      74.710  70.759  13.440  1.00  0.00     0.019 C 
ENDBRANCH  33  36
ENDBRANCH  29  30
ENDBRANCH  27  29
ENDBRANCH   4  25
TORSDOF 9
ENDMDL
