MODEL 1
REMARK VINA RESULT: -6.938688951      0.000      0.000
REMARK  9 active torsions:
REMARK  status: ('A' for Active; 'I' for Inactive)
REMARK    1  A    between atoms: S1_2  and  C2_4 
REMARK    2  A    between atoms: C2_4  and  C3_5 
REMARK    3  A    between atoms: C3_5  and  C4_6 
REMARK    4  A    between atoms: C4_6  and  N1_7 
REMARK       I    between atoms: N1_7  and  C5_9 
REMARK    5  A    between atoms: C5_9  and  C6_11 
REMARK    6  A    between atoms: C6_11  and  C7_12 
REMARK    7  A    between atoms: C7_12  and  C8_13 
REMARK    8  A    between atoms: C8_13  and  C9_15 
REMARK    9  A    between atoms: C18_25  and  O5_26 
ROOT
HETATM    1  C9  UNL     1      77.580  61.717  14.803  1.00  0.00     0.064 C 
HETATM    2  C10 UNL     1      77.921  62.564  15.968  1.00  0.00     0.018 C 
HETATM    3  C11 UNL     1      76.732  62.999  16.728  1.00  0.00     0.003 C 
HETATM    4  C12 UNL     1      75.627  63.501  15.896  1.00  0.00     0.066 C 
HETATM    5  C13 UNL     1      74.434  63.335  16.812  1.00  0.00     0.145 C 
HETATM    6  O4  UNL     1      73.452  64.048  16.794  1.00  0.00    -0.296 OA
HETATM    7  C14 UNL     1      74.725  62.178  17.676  1.00  0.00     0.049 C 
HETATM    8  C15 UNL     1      74.027  60.938  17.109  1.00  0.00     0.029 C 
HETATM    9  C16 UNL     1      74.112  62.439  19.001  1.00  0.00    -0.033 A 
HETATM   10  C17 UNL     1      72.788  62.127  19.174  1.00  0.00     0.045 A 
HETATM   11  C18 UNL     1      72.133  62.335  20.374  1.00  0.00     0.066 A 
HETATM   12  C19 UNL     1      72.800  62.868  21.443  1.00  0.00     0.037 A 
HETATM   13  C20 UNL     1      74.143  63.179  21.252  1.00  0.00     0.010 A 
HETATM   14  C21 UNL     1      74.799  62.973  20.058  1.00  0.00    -0.051 A 
HETATM   15  C22 UNL     1      76.222  63.300  19.847  1.00  0.00     0.039 C 
HETATM   16  C23 UNL     1      76.833  62.166  19.056  1.00  0.00     0.011 C 
HETATM   17  C24 UNL     1      76.202  61.982  17.699  1.00  0.00     0.011 C 
HETATM   18  C25 UNL     1      75.355  62.873  14.601  1.00  0.00     0.006 C 
HETATM   19  C26 UNL     1      75.336  63.854  13.418  1.00  0.00     0.007 C 
HETATM   20  C27 UNL     1      76.748  63.367  13.136  1.00  0.00     0.011 C 
HETATM   21  C28 UNL     1      76.459  62.124  13.955  1.00  0.00    -0.029 C 
HETATM   22  C29 UNL     1      75.991  61.016  13.028  1.00  0.00     0.016 C 
ENDROOT
BRANCH   1  23
HETATM   23  C8  UNL     1      78.772  61.379  13.930  1.00  0.00     0.132 C 
HETATM   24  O3  UNL     1      79.445  62.326  13.579  1.00  0.00    -0.298 OA
BRANCH  23  25
HETATM   25  C7  UNL     1      79.070  59.989  13.549  1.00  0.00     0.088 C 
BRANCH  25  26
HETATM   26  C6  UNL     1      80.169  59.282  14.190  1.00  0.00     0.110 C 
BRANCH  26  27
HETATM   27  C5  UNL     1      81.406  59.024  13.447  1.00  0.00     0.217 C 
HETATM   28  N1  UNL     1      82.627  58.755  14.099  1.00  0.00    -0.361 N 
ATOM     29  H1  UNL     1      82.627  58.755  15.119  1.00  0.00     0.162 HD
HETATM   30  O2  UNL     1      81.373  59.042  12.197  1.00  0.00    -0.274 OA
BRANCH  28  31
HETATM   31  C4  UNL     1      83.868  58.480  13.435  1.00  0.00     0.123 C 
BRANCH  31  32
HETATM   32  C3  UNL     1      84.745  59.681  13.465  1.00  0.00     0.032 C 
BRANCH  32  33
HETATM   33  C2  UNL     1      85.114  60.225  14.800  1.00  0.00     0.110 C 
BRANCH  33  34
HETATM   34  S1  UNL     1      84.360  61.674  15.353  1.00  0.00     0.010 S 
HETATM   35  C1  UNL     1      84.796  62.179  16.964  1.00  0.00     0.127 C 
HETATM   36  O1  UNL     1      82.718  61.735  15.068  1.00  0.00    -0.258 OA
ENDBRANCH  33  34
ENDBRANCH  32  33
ENDBRANCH  31  32
ENDBRANCH  28  31
ENDBRANCH  26  27
ENDBRANCH  25  26
ENDBRANCH  23  25
ENDBRANCH   1  23
BRANCH  11  37
HETATM   37  O5  UNL     1      70.780  62.013  20.535  1.00  0.00    -0.361 OA
ATOM     38  H5  UNL     1      70.372  61.315  20.037  1.00  0.00     0.217 HD
ENDBRANCH  11  37
TORSDOF 9
ENDMDL
MODEL 2
REMARK VINA RESULT: -6.920398273      1.685      2.082
REMARK  9 active torsions:
REMARK  status: ('A' for Active; 'I' for Inactive)
REMARK    1  A    between atoms: S1_2  and  C2_4 
REMARK    2  A    between atoms: C2_4  and  C3_5 
REMARK    3  A    between atoms: C3_5  and  C4_6 
REMARK    4  A    between atoms: C4_6  and  N1_7 
REMARK       I    between atoms: N1_7  and  C5_9 
REMARK    5  A    between atoms: C5_9  and  C6_11 
REMARK    6  A    between atoms: C6_11  and  C7_12 
REMARK    7  A    between atoms: C7_12  and  C8_13 
REMARK    8  A    between atoms: C8_13  and  C9_15 
REMARK    9  A    between atoms: C18_25  and  O5_26 
ROOT
HETATM    1  C9  UNL     1      77.131  61.779  14.832  1.00  0.00     0.064 C 
HETATM    2  C10 UNL     1      77.614  62.614  15.955  1.00  0.00     0.018 C 
HETATM    3  C11 UNL     1      76.521  63.080  16.833  1.00  0.00     0.003 C 
HETATM    4  C12 UNL     1      75.351  63.613  16.118  1.00  0.00     0.066 C 
HETATM    5  C13 UNL     1      74.253  63.479  17.151  1.00  0.00     0.145 C 
HETATM    6  O4  UNL     1      73.295  64.219  17.233  1.00  0.00    -0.296 OA
HETATM    7  C14 UNL     1      74.599  62.312  17.982  1.00  0.00     0.049 C 
HETATM    8  C15 UNL     1      73.813  61.093  17.490  1.00  0.00     0.029 C 
HETATM    9  C16 UNL     1      74.132  62.587  19.363  1.00  0.00    -0.033 A 
HETATM   10  C17 UNL     1      72.825  62.312  19.670  1.00  0.00     0.045 A 
HETATM   11  C18 UNL     1      72.302  62.535  20.931  1.00  0.00     0.066 A 
HETATM   12  C19 UNL     1      73.089  63.047  21.926  1.00  0.00     0.037 A 
HETATM   13  C20 UNL     1      74.414  63.322  21.597  1.00  0.00     0.010 A 
HETATM   14  C21 UNL     1      74.938  63.100  20.343  1.00  0.00    -0.051 A 
HETATM   15  C22 UNL     1      76.341  63.389  19.987  1.00  0.00     0.039 C 
HETATM   16  C23 UNL     1      76.836  62.240  19.139  1.00  0.00     0.011 C 
HETATM   17  C24 UNL     1      76.065  62.076  17.854  1.00  0.00     0.011 C 
HETATM   18  C25 UNL     1      74.930  62.996  14.858  1.00  0.00     0.006 C 
HETATM   19  C26 UNL     1      74.817  63.980  13.682  1.00  0.00     0.007 C 
HETATM   20  C27 UNL     1      76.179  63.455  13.258  1.00  0.00     0.011 C 
HETATM   21  C28 UNL     1      75.942  62.218  14.103  1.00  0.00    -0.029 C 
HETATM   22  C29 UNL     1      75.351  61.125  13.229  1.00  0.00     0.016 C 
ENDROOT
BRANCH   1  23
HETATM   23  C8  UNL     1      78.218  61.410  13.843  1.00  0.00     0.132 C 
HETATM   24  O3  UNL     1      78.251  60.240  13.520  1.00  0.00    -0.298 OA
BRANCH  23  25
HETATM   25  C7  UNL     1      79.156  62.418  13.325  1.00  0.00     0.088 C 
BRANCH  25  26
HETATM   26  C6  UNL     1      80.528  62.040  13.016  1.00  0.00     0.110 C 
BRANCH  26  27
HETATM   27  C5  UNL     1      81.492  61.830  14.100  1.00  0.00     0.217 C 
HETATM   28  N1  UNL     1      82.868  61.654  13.852  1.00  0.00    -0.361 N 
ATOM     29  H1  UNL     1      83.178  61.664  12.880  1.00  0.00     0.162 HD
HETATM   30  O2  UNL     1      81.078  61.811  15.279  1.00  0.00    -0.274 OA
BRANCH  28  31
HETATM   31  C4  UNL     1      83.866  61.460  14.863  1.00  0.00     0.123 C 
BRANCH  31  32
HETATM   32  C3  UNL     1      84.920  60.529  14.377  1.00  0.00     0.032 C 
BRANCH  32  33
HETATM   33  C2  UNL     1      85.207  60.526  12.916  1.00  0.00     0.110 C 
BRANCH  33  34
HETATM   34  S1  UNL     1      86.830  60.291  12.381  1.00  0.00     0.010 S 
HETATM   35  C1  UNL     1      87.925  59.635  13.568  1.00  0.00     0.127 C 
HETATM   36  O1  UNL     1      87.464  61.592  11.551  1.00  0.00    -0.258 OA
ENDBRANCH  33  34
ENDBRANCH  32  33
ENDBRANCH  31  32
ENDBRANCH  28  31
ENDBRANCH  26  27
ENDBRANCH  25  26
ENDBRANCH  23  25
ENDBRANCH   1  23
BRANCH  11  37
HETATM   37  O5  UNL     1      70.965  62.250  21.230  1.00  0.00    -0.361 OA
ATOM     38  H5  UNL     1      70.399  62.893  21.639  1.00  0.00     0.217 HD
ENDBRANCH  11  37
TORSDOF 9
ENDMDL
MODEL 3
REMARK VINA RESULT: -6.917980707      3.064      4.738
REMARK  9 active torsions:
REMARK  status: ('A' for Active; 'I' for Inactive)
REMARK    1  A    between atoms: S1_2  and  C2_4 
REMARK    2  A    between atoms: C2_4  and  C3_5 
REMARK    3  A    between atoms: C3_5  and  C4_6 
REMARK    4  A    between atoms: C4_6  and  N1_7 
REMARK       I    between atoms: N1_7  and  C5_9 
REMARK    5  A    between atoms: C5_9  and  C6_11 
REMARK    6  A    between atoms: C6_11  and  C7_12 
REMARK    7  A    between atoms: C7_12  and  C8_13 
REMARK    8  A    between atoms: C8_13  and  C9_15 
REMARK    9  A    between atoms: C18_25  and  O5_26 
ROOT
HETATM    1  C9  UNL     1      77.587  61.599  14.864  1.00  0.00     0.064 C 
HETATM    2  C10 UNL     1      77.802  62.601  15.932  1.00  0.00     0.018 C 
HETATM    3  C11 UNL     1      76.559  62.949  16.650  1.00  0.00     0.003 C 
HETATM    4  C12 UNL     1      75.403  63.208  15.777  1.00  0.00     0.066 C 
HETATM    5  C13 UNL     1      74.235  62.980  16.711  1.00  0.00     0.145 C 
HETATM    6  O4  UNL     1      73.167  63.549  16.625  1.00  0.00    -0.296 OA
HETATM    7  C14 UNL     1      74.673  61.969  17.691  1.00  0.00     0.049 C 
HETATM    8  C15 UNL     1      74.153  60.594  17.261  1.00  0.00     0.029 C 
HETATM    9  C16 UNL     1      74.019  62.282  18.985  1.00  0.00    -0.033 A 
HETATM   10  C17 UNL     1      72.748  61.816  19.198  1.00  0.00     0.045 A 
HETATM   11  C18 UNL     1      72.062  62.058  20.373  1.00  0.00     0.066 A 
HETATM   12  C19 UNL     1      72.642  62.785  21.376  1.00  0.00     0.037 A 
HETATM   13  C20 UNL     1      73.933  63.252  21.145  1.00  0.00     0.010 A 
HETATM   14  C21 UNL     1      74.620  63.012  19.975  1.00  0.00    -0.051 A 
HETATM   15  C22 UNL     1      75.988  63.505  19.723  1.00  0.00     0.039 C 
HETATM   16  C23 UNL     1      76.752  62.386  19.051  1.00  0.00     0.011 C 
HETATM   17  C24 UNL     1      76.162  61.978  17.725  1.00  0.00     0.011 C 
HETATM   18  C25 UNL     1      75.228  62.417  14.556  1.00  0.00     0.006 C 
HETATM   19  C26 UNL     1      75.087  63.257  13.276  1.00  0.00     0.007 C 
HETATM   20  C27 UNL     1      76.554  62.938  13.039  1.00  0.00     0.011 C 
HETATM   21  C28 UNL     1      76.429  61.760  13.986  1.00  0.00    -0.029 C 
HETATM   22  C29 UNL     1      76.121  60.507  13.182  1.00  0.00     0.016 C 
ENDROOT
BRANCH   1  23
HETATM   23  C8  UNL     1      78.820  61.334  14.025  1.00  0.00     0.132 C 
HETATM   24  O3  UNL     1      78.728  60.410  13.242  1.00  0.00    -0.298 OA
BRANCH  23  25
HETATM   25  C7  UNL     1      80.034  62.153  14.170  1.00  0.00     0.088 C 
BRANCH  25  26
HETATM   26  C6  UNL     1      80.491  62.973  13.057  1.00  0.00     0.110 C 
BRANCH  26  27
HETATM   27  C5  UNL     1      79.761  64.193  12.698  1.00  0.00     0.217 C 
HETATM   28  N1  UNL     1      79.302  65.102  13.672  1.00  0.00    -0.361 N 
ATOM     29  H1  UNL     1      79.483  64.878  14.651  1.00  0.00     0.162 HD
HETATM   30  O2  UNL     1      79.545  64.432  11.490  1.00  0.00    -0.274 OA
BRANCH  28  31
HETATM   31  C4  UNL     1      78.597  66.318  13.391  1.00  0.00     0.123 C 
BRANCH  31  32
HETATM   32  C3  UNL     1      77.188  66.219  13.859  1.00  0.00     0.032 C 
BRANCH  32  33
HETATM   33  C2  UNL     1      76.696  67.283  14.775  1.00  0.00     0.110 C 
BRANCH  33  34
HETATM   34  S1  UNL     1      75.318  66.968  15.764  1.00  0.00     0.010 S 
HETATM   35  C1  UNL     1      73.837  66.641  14.905  1.00  0.00     0.127 C 
HETATM   36  O1  UNL     1      75.124  68.048  17.020  1.00  0.00    -0.258 OA
ENDBRANCH  33  34
ENDBRANCH  32  33
ENDBRANCH  31  32
ENDBRANCH  28  31
ENDBRANCH  26  27
ENDBRANCH  25  26
ENDBRANCH  23  25
ENDBRANCH   1  23
BRANCH  11  37
HETATM   37  O5  UNL     1      70.763  61.575  20.576  1.00  0.00    -0.361 OA
ATOM     38  H5  UNL     1      70.393  61.495  21.447  1.00  0.00     0.217 HD
ENDBRANCH  11  37
TORSDOF 9
ENDMDL
MODEL 4
REMARK VINA RESULT: -6.842901259      4.191      6.794
REMARK  9 active torsions:
REMARK  status: ('A' for Active; 'I' for Inactive)
REMARK    1  A    between atoms: S1_2  and  C2_4 
REMARK    2  A    between atoms: C2_4  and  C3_5 
REMARK    3  A    between atoms: C3_5  and  C4_6 
REMARK    4  A    between atoms: C4_6  and  N1_7 
REMARK       I    between atoms: N1_7  and  C5_9 
REMARK    5  A    between atoms: C5_9  and  C6_11 
REMARK    6  A    between atoms: C6_11  and  C7_12 
REMARK    7  A    between atoms: C7_12  and  C8_13 
REMARK    8  A    between atoms: C8_13  and  C9_15 
REMARK    9  A    between atoms: C18_25  and  O5_26 
ROOT
HETATM    1  C9  UNL     1      79.574  63.372  13.751  1.00  0.00     0.064 C 
HETATM    2  C10 UNL     1      80.000  64.087  12.527  1.00  0.00     0.018 C 
HETATM    3  C11 UNL     1      79.007  65.078  12.067  1.00  0.00     0.003 C 
HETATM    4  C12 UNL     1      77.620  64.588  12.051  1.00  0.00     0.066 C 
HETATM    5  C13 UNL     1      76.823  65.874  12.101  1.00  0.00     0.145 C 
HETATM    6  O4  UNL     1      75.726  66.020  11.602  1.00  0.00    -0.296 OA
HETATM    7  C14 UNL     1      77.640  66.845  12.849  1.00  0.00     0.049 C 
HETATM    8  C15 UNL     1      77.158  66.894  14.302  1.00  0.00     0.029 C 
HETATM    9  C16 UNL     1      77.384  68.188  12.274  1.00  0.00    -0.033 A 
HETATM   10  C17 UNL     1      76.294  68.887  12.723  1.00  0.00     0.045 A 
HETATM   11  C18 UNL     1      75.977  70.145  12.244  1.00  0.00     0.066 A 
HETATM   12  C19 UNL     1      76.758  70.739  11.291  1.00  0.00     0.037 A 
HETATM   13  C20 UNL     1      77.861  70.017  10.845  1.00  0.00     0.010 A 
HETATM   14  C21 UNL     1      78.180  68.763  11.320  1.00  0.00    -0.051 A 
HETATM   15  C22 UNL     1      79.347  67.991  10.852  1.00  0.00     0.039 C 
HETATM   16  C23 UNL     1      79.980  67.353  12.067  1.00  0.00     0.011 C 
HETATM   17  C24 UNL     1      79.060  66.398  12.783  1.00  0.00     0.011 C 
HETATM   18  C25 UNL     1      77.163  63.676  13.102  1.00  0.00     0.006 C 
HETATM   19  C26 UNL     1      76.552  62.366  12.578  1.00  0.00     0.007 C 
HETATM   20  C27 UNL     1      77.901  61.741  12.893  1.00  0.00     0.011 C 
HETATM   21  C28 UNL     1      78.193  62.897  13.831  1.00  0.00    -0.029 C 
HETATM   22  C29 UNL     1      77.786  62.507  15.242  1.00  0.00     0.016 C 
ENDROOT
BRANCH   1  23
HETATM   23  C8  UNL     1      80.513  62.254  14.157  1.00  0.00     0.132 C 
HETATM   24  O3  UNL     1      80.479  61.947  15.331  1.00  0.00    -0.298 OA
BRANCH  23  25
HETATM   25  C7  UNL     1      81.396  61.603  13.177  1.00  0.00     0.088 C 
BRANCH  25  26
HETATM   26  C6  UNL     1      82.171  60.433  13.565  1.00  0.00     0.110 C 
BRANCH  26  27
HETATM   27  C5  UNL     1      83.526  60.596  14.099  1.00  0.00     0.217 C 
HETATM   28  N1  UNL     1      84.241  59.521  14.664  1.00  0.00    -0.361 N 
ATOM     29  H1  UNL     1      83.777  58.614  14.703  1.00  0.00     0.162 HD
HETATM   30  O2  UNL     1      84.062  61.724  14.046  1.00  0.00    -0.274 OA
BRANCH  28  31
HETATM   31  C4  UNL     1      85.572  59.607  15.190  1.00  0.00     0.123 C 
BRANCH  31  32
HETATM   32  C3  UNL     1      86.515  58.834  14.337  1.00  0.00     0.032 C 
BRANCH  32  33
HETATM   33  C2  UNL     1      87.471  59.608  13.500  1.00  0.00     0.110 C 
BRANCH  33  34
HETATM   34  S1  UNL     1      86.870  60.521  12.166  1.00  0.00     0.010 S 
HETATM   35  C1  UNL     1      85.652  59.729  11.202  1.00  0.00     0.127 C 
HETATM   36  O1  UNL     1      88.059  61.249  11.251  1.00  0.00    -0.258 OA
ENDBRANCH  33  34
ENDBRANCH  32  33
ENDBRANCH  31  32
ENDBRANCH  28  31
ENDBRANCH  26  27
ENDBRANCH  25  26
ENDBRANCH  23  25
ENDBRANCH   1  23
BRANCH  11  37
HETATM   37  O5  UNL     1      74.860  70.847  12.711  1.00  0.00    -0.361 OA
ATOM     38  H5  UNL     1      74.856  71.795  12.769  1.00  0.00     0.217 HD
ENDBRANCH  11  37
TORSDOF 9
ENDMDL
MODEL 5
REMARK VINA RESULT: -6.758013207      1.412      1.732
REMARK  9 active torsions:
REMARK  status: ('A' for Active; 'I' for Inactive)
REMARK    1  A    between atoms: S1_2  and  C2_4 
REMARK    2  A    between atoms: C2_4  and  C3_5 
REMARK    3  A    between atoms: C3_5  and  C4_6 
REMARK    4  A    between atoms: C4_6  and  N1_7 
REMARK       I    between atoms: N1_7  and  C5_9 
REMARK    5  A    between atoms: C5_9  and  C6_11 
REMARK    6  A    between atoms: C6_11  and  C7_12 
REMARK    7  A    between atoms: C7_12  and  C8_13 
REMARK    8  A    between atoms: C8_13  and  C9_15 
REMARK    9  A    between atoms: C18_25  and  O5_26 
ROOT
HETATM    1  C9  UNL     1      76.748  61.898  14.744  1.00  0.00     0.064 C 
HETATM    2  C10 UNL     1      77.295  62.720  15.847  1.00  0.00     0.018 C 
HETATM    3  C11 UNL     1      76.257  63.165  16.799  1.00  0.00     0.003 C 
HETATM    4  C12 UNL     1      75.040  63.699  16.168  1.00  0.00     0.066 C 
HETATM    5  C13 UNL     1      74.011  63.541  17.266  1.00  0.00     0.145 C 
HETATM    6  O4  UNL     1      73.055  64.272  17.420  1.00  0.00    -0.296 OA
HETATM    7  C14 UNL     1      74.418  62.366  18.056  1.00  0.00     0.049 C 
HETATM    8  C15 UNL     1      73.611  61.148  17.598  1.00  0.00     0.029 C 
HETATM    9  C16 UNL     1      74.038  62.617  19.468  1.00  0.00    -0.033 A 
HETATM   10  C17 UNL     1      72.755  62.327  19.854  1.00  0.00     0.045 A 
HETATM   11  C18 UNL     1      72.312  62.528  21.148  1.00  0.00     0.066 A 
HETATM   12  C19 UNL     1      73.157  63.033  22.098  1.00  0.00     0.037 A 
HETATM   13  C20 UNL     1      74.456  63.323  21.691  1.00  0.00     0.010 A 
HETATM   14  C21 UNL     1      74.901  63.123  20.402  1.00  0.00    -0.051 A 
HETATM   15  C22 UNL     1      76.276  63.428  19.962  1.00  0.00     0.039 C 
HETATM   16  C23 UNL     1      76.724  62.295  19.067  1.00  0.00     0.011 C 
HETATM   17  C24 UNL     1      75.874  62.144  17.832  1.00  0.00     0.011 C 
HETATM   18  C25 UNL     1      74.544  63.096  14.928  1.00  0.00     0.006 C 
HETATM   19  C26 UNL     1      74.350  64.095  13.776  1.00  0.00     0.007 C 
HETATM   20  C27 UNL     1      75.686  63.588  13.258  1.00  0.00     0.011 C 
HETATM   21  C28 UNL     1      75.512  62.338  14.099  1.00  0.00    -0.029 C 
HETATM   22  C29 UNL     1      74.874  61.252  13.249  1.00  0.00     0.016 C 
ENDROOT
BRANCH   1  23
HETATM   23  C8  UNL     1      77.772  61.551  13.683  1.00  0.00     0.132 C 
HETATM   24  O3  UNL     1      77.859  60.371  13.410  1.00  0.00    -0.298 OA
BRANCH  23  25
HETATM   25  C7  UNL     1      78.592  62.591  13.043  1.00  0.00     0.088 C 
BRANCH  25  26
HETATM   26  C6  UNL     1      79.989  62.749  13.423  1.00  0.00     0.110 C 
BRANCH  26  27
HETATM   27  C5  UNL     1      80.705  61.637  14.055  1.00  0.00     0.217 C 
HETATM   28  N1  UNL     1      81.164  60.528  13.316  1.00  0.00    -0.361 N 
ATOM     29  H1  UNL     1      80.971  60.514  12.315  1.00  0.00     0.162 HD
HETATM   30  O2  UNL     1      80.917  61.679  15.286  1.00  0.00    -0.274 OA
BRANCH  28  31
HETATM   31  C4  UNL     1      81.883  59.416  13.867  1.00  0.00     0.123 C 
BRANCH  31  32
HETATM   32  C3  UNL     1      82.849  58.881  12.870  1.00  0.00     0.032 C 
BRANCH  32  33
HETATM   33  C2  UNL     1      83.894  59.812  12.363  1.00  0.00     0.110 C 
BRANCH  33  34
HETATM   34  S1  UNL     1      84.883  60.659  13.494  1.00  0.00     0.010 S 
HETATM   35  C1  UNL     1      85.774  59.658  14.609  1.00  0.00     0.127 C 
HETATM   36  O1  UNL     1      84.119  61.944  14.233  1.00  0.00    -0.258 OA
ENDBRANCH  33  34
ENDBRANCH  32  33
ENDBRANCH  31  32
ENDBRANCH  28  31
ENDBRANCH  26  27
ENDBRANCH  25  26
ENDBRANCH  23  25
ENDBRANCH   1  23
BRANCH  11  37
HETATM   37  O5  UNL     1      70.998  62.229  21.528  1.00  0.00    -0.361 OA
ATOM     38  H5  UNL     1      70.252  62.566  21.046  1.00  0.00     0.217 HD
ENDBRANCH  11  37
TORSDOF 9
ENDMDL
