MODEL 1
REMARK VINA RESULT: -6.139814365      0.000      0.000
REMARK  2 active torsions:
REMARK  status: ('A' for Active; 'I' for Inactive)
REMARK    1  A    between atoms: C4_4  and  C5_5 
REMARK    2  A    between atoms: C11_13  and  N2_14 
ROOT
HETATM    1  C1  UNL     1      27.925   7.499   7.685  1.00  0.00     0.052 C 
HETATM    2  C2  UNL     1      26.439   7.522   7.676  1.00  0.00    -0.017 C 
HETATM    3  C3  UNL     1      25.839   7.409   8.939  1.00  0.00     0.026 C 
HETATM    4  C4  UNL     1      24.469   7.512   9.213  1.00  0.00     0.023 C 
HETATM    5  C9  UNL     1      23.564   8.166   8.413  1.00  0.00     0.101 C 
HETATM    6  C10 UNL     1      22.591   8.957   9.114  1.00  0.00     0.104 C 
HETATM    7  N1  UNL     1      21.826   9.617   9.674  1.00  0.00    -0.191 NA
HETATM    8  C11 UNL     1      23.506   8.160   7.009  1.00  0.00     0.122 C 
HETATM    9  N3  UNL     1      24.536   7.828   6.180  1.00  0.00    -0.328 N 
ATOM     10  H3  UNL     1      24.269   7.691   5.205  1.00  0.00     0.169 HD
HETATM   11  C12 UNL     1      25.853   7.652   6.435  1.00  0.00     0.106 C 
HETATM   12  N4  UNL     1      26.630   7.601   5.386  1.00  0.00    -0.385 N 
ATOM     13  H41 UNL     1      26.196   7.697   4.468  1.00  0.00     0.157 HD
ATOM     14  H42 UNL     1      27.622   7.468   5.578  1.00  0.00     0.157 HD
ENDROOT
BRANCH   4  15
HETATM   15  C5  UNL     1      23.978   6.904  10.457  1.00  0.00     0.086 A 
HETATM   16  C6  UNL     1      23.251   5.792  10.701  1.00  0.00     0.040 A 
HETATM   17  C7  UNL     1      23.082   5.699  12.081  1.00  0.00     0.027 A 
HETATM   18  C8  UNL     1      23.731   6.782  12.620  1.00  0.00     0.142 A 
HETATM   19  O1  UNL     1      24.239   7.457  11.642  1.00  0.00    -0.322 OA
ENDBRANCH   4  15
BRANCH   8  20
HETATM   20  N2  UNL     1      22.374   8.504   6.525  1.00  0.00    -0.384 N 
ATOM     21  H22 UNL     1      22.184   9.483   6.309  1.00  0.00     0.157 HD
ATOM     22  H21 UNL     1      21.721   7.732   6.389  1.00  0.00     0.157 HD
ENDBRANCH   8  20
TORSDOF 2
ENDMDL
MODEL 2
REMARK VINA RESULT: -6.131638845      2.151      3.433
REMARK  2 active torsions:
REMARK  status: ('A' for Active; 'I' for Inactive)
REMARK    1  A    between atoms: C4_4  and  C5_5 
REMARK    2  A    between atoms: C11_13  and  N2_14 
ROOT
HETATM    1  C1  UNL     1      21.722   3.726   8.033  1.00  0.00     0.052 C 
HETATM    2  C2  UNL     1      22.393   5.046   7.918  1.00  0.00    -0.017 C 
HETATM    3  C3  UNL     1      22.782   5.620   9.139  1.00  0.00     0.026 C 
HETATM    4  C4  UNL     1      23.522   6.798   9.297  1.00  0.00     0.023 C 
HETATM    5  C9  UNL     1      24.353   7.329   8.340  1.00  0.00     0.101 C 
HETATM    6  C10 UNL     1      25.600   7.841   8.833  1.00  0.00     0.104 C 
HETATM    7  N1  UNL     1      26.617   8.227   9.223  1.00  0.00    -0.191 NA
HETATM    8  C11 UNL     1      24.122   7.399   6.956  1.00  0.00     0.122 C 
HETATM    9  N3  UNL     1      23.231   6.634   6.265  1.00  0.00    -0.328 N 
ATOM     10  H3  UNL     1      23.054   6.945   5.310  1.00  0.00     0.169 HD
HETATM   11  C12 UNL     1      22.543   5.529   6.635  1.00  0.00     0.106 C 
HETATM   12  N4  UNL     1      21.971   4.867   5.665  1.00  0.00    -0.385 N 
ATOM     13  H41 UNL     1      22.083   5.224   4.716  1.00  0.00     0.157 HD
ATOM     14  H42 UNL     1      21.452   4.035   5.944  1.00  0.00     0.157 HD
ENDROOT
BRANCH   4  15
HETATM   15  C5  UNL     1      23.422   7.495  10.587  1.00  0.00     0.086 A 
HETATM   16  C6  UNL     1      22.614   8.481  11.029  1.00  0.00     0.040 A 
HETATM   17  C7  UNL     1      22.965   8.749  12.351  1.00  0.00     0.027 A 
HETATM   18  C8  UNL     1      23.993   7.890  12.654  1.00  0.00     0.142 A 
HETATM   19  O1  UNL     1      24.228   7.178  11.602  1.00  0.00    -0.322 OA
ENDBRANCH   4  15
BRANCH   8  20
HETATM   20  N2  UNL     1      24.836   8.267   6.344  1.00  0.00    -0.384 N 
ATOM     21  H22 UNL     1      24.493   9.219   6.219  1.00  0.00     0.157 HD
ATOM     22  H21 UNL     1      25.735   7.915   6.013  1.00  0.00     0.157 HD
ENDBRANCH   8  20
TORSDOF 2
ENDMDL
MODEL 3
REMARK VINA RESULT: -6.122779722      1.375      1.545
REMARK  2 active torsions:
REMARK  status: ('A' for Active; 'I' for Inactive)
REMARK    1  A    between atoms: C4_4  and  C5_5 
REMARK    2  A    between atoms: C11_13  and  N2_14 
ROOT
HETATM    1  C1  UNL     1      26.320   7.566   6.018  1.00  0.00     0.052 C 
HETATM    2  C2  UNL     1      24.956   7.624   6.604  1.00  0.00    -0.017 C 
HETATM    3  C3  UNL     1      24.867   7.192   7.937  1.00  0.00     0.026 C 
HETATM    4  C4  UNL     1      23.726   7.248   8.747  1.00  0.00     0.023 C 
HETATM    5  C9  UNL     1      22.675   8.110   8.551  1.00  0.00     0.101 C 
HETATM    6  C10 UNL     1      22.145   8.707   9.745  1.00  0.00     0.104 C 
HETATM    7  N1  UNL     1      21.736   9.211  10.700  1.00  0.00    -0.191 NA
HETATM    8  C11 UNL     1      22.092   8.478   7.326  1.00  0.00     0.122 C 
HETATM    9  N3  UNL     1      22.682   8.357   6.104  1.00  0.00    -0.328 N 
ATOM     10  H3  UNL     1      22.052   8.489   5.313  1.00  0.00     0.169 HD
HETATM   11  C12 UNL     1      23.966   8.090   5.766  1.00  0.00     0.106 C 
HETATM   12  N4  UNL     1      24.276   8.303   4.516  1.00  0.00    -0.385 N 
ATOM     13  H41 UNL     1      23.544   8.649   3.896  1.00  0.00     0.157 HD
ATOM     14  H42 UNL     1      25.243   8.103   4.261  1.00  0.00     0.157 HD
ENDROOT
BRANCH   4  15
HETATM   15  C5  UNL     1      23.668   6.341   9.902  1.00  0.00     0.086 A 
HETATM   16  C6  UNL     1      22.929   5.241  10.160  1.00  0.00     0.040 A 
HETATM   17  C7  UNL     1      23.298   4.776  11.421  1.00  0.00     0.027 A 
HETATM   18  C8  UNL     1      24.266   5.636  11.877  1.00  0.00     0.142 A 
HETATM   19  O1  UNL     1      24.453   6.531  10.965  1.00  0.00    -0.322 OA
ENDBRANCH   4  15
BRANCH   8  20
HETATM   20  N2  UNL     1      20.913   8.963   7.427  1.00  0.00    -0.384 N 
ATOM     21  H22 UNL     1      20.221   8.514   8.027  1.00  0.00     0.157 HD
ATOM     22  H21 UNL     1      20.753   9.802   6.868  1.00  0.00     0.157 HD
ENDBRANCH   8  20
TORSDOF 2
ENDMDL
MODEL 4
REMARK VINA RESULT: -6.100840607      2.700      3.595
REMARK  2 active torsions:
REMARK  status: ('A' for Active; 'I' for Inactive)
REMARK    1  A    between atoms: C4_4  and  C5_5 
REMARK    2  A    between atoms: C11_13  and  N2_14 
ROOT
HETATM    1  C1  UNL     1      22.554   9.812   8.148  1.00  0.00     0.052 C 
HETATM    2  C2  UNL     1      22.694   8.352   7.912  1.00  0.00    -0.017 C 
HETATM    3  C3  UNL     1      22.404   7.543   9.022  1.00  0.00     0.026 C 
HETATM    4  C4  UNL     1      22.355   6.144   9.032  1.00  0.00     0.023 C 
HETATM    5  C9  UNL     1      22.138   5.365   7.921  1.00  0.00     0.101 C 
HETATM    6  C10 UNL     1      21.255   4.251   8.121  1.00  0.00     0.104 C 
HETATM    7  N1  UNL     1      20.522   3.370   8.272  1.00  0.00    -0.191 NA
HETATM    8  C11 UNL     1      22.661   5.557   6.631  1.00  0.00     0.122 C 
HETATM    9  N3  UNL     1      23.159   6.730   6.149  1.00  0.00    -0.328 N 
ATOM     10  H3  UNL     1      23.670   6.646   5.270  1.00  0.00     0.169 HD
HETATM   11  C12 UNL     1      23.089   7.988   6.642  1.00  0.00     0.106 C 
HETATM   12  N4  UNL     1      23.435   8.939   5.816  1.00  0.00    -0.385 N 
ATOM     13  H41 UNL     1      23.726   8.670   4.877  1.00  0.00     0.157 HD
ATOM     14  H42 UNL     1      23.382   9.887   6.188  1.00  0.00     0.157 HD
ENDROOT
BRANCH   4  15
HETATM   15  C5  UNL     1      22.518   5.468  10.327  1.00  0.00     0.086 A 
HETATM   16  C6  UNL     1      23.593   4.934  10.946  1.00  0.00     0.040 A 
HETATM   17  C7  UNL     1      23.160   4.426  12.169  1.00  0.00     0.027 A 
HETATM   18  C8  UNL     1      21.813   4.683  12.235  1.00  0.00     0.142 A 
HETATM   19  O1  UNL     1      21.479   5.290  11.145  1.00  0.00    -0.322 OA
ENDBRANCH   4  15
BRANCH   8  20
HETATM   20  N2  UNL     1      22.639   4.514   5.891  1.00  0.00    -0.384 N 
ATOM     21  H22 UNL     1      22.056   3.715   6.146  1.00  0.00     0.157 HD
ATOM     22  H21 UNL     1      23.238   4.568   5.068  1.00  0.00     0.157 HD
ENDBRANCH   8  20
TORSDOF 2
ENDMDL
MODEL 5
REMARK VINA RESULT: -6.073600623      2.441      5.314
REMARK  2 active torsions:
REMARK  status: ('A' for Active; 'I' for Inactive)
REMARK    1  A    between atoms: C4_4  and  C5_5 
REMARK    2  A    between atoms: C11_13  and  N2_14 
ROOT
HETATM    1  C1  UNL     1      23.086   3.499  11.830  1.00  0.00     0.052 C 
HETATM    2  C2  UNL     1      23.183   4.982  11.790  1.00  0.00    -0.017 C 
HETATM    3  C3  UNL     1      23.566   5.516  10.550  1.00  0.00     0.026 C 
HETATM    4  C4  UNL     1      23.625   6.876  10.221  1.00  0.00     0.023 C 
HETATM    5  C9  UNL     1      22.917   7.862  10.863  1.00  0.00     0.101 C 
HETATM    6  C10 UNL     1      22.345   8.859  10.002  1.00  0.00     0.104 C 
HETATM    7  N1  UNL     1      21.859   9.646   9.310  1.00  0.00    -0.191 NA
HETATM    8  C11 UNL     1      22.680   7.981  12.243  1.00  0.00     0.122 C 
HETATM    9  N3  UNL     1      22.774   6.968  13.149  1.00  0.00    -0.328 N 
ATOM     10  H3  UNL     1      22.758   7.266  14.124  1.00  0.00     0.169 HD
HETATM   11  C12 UNL     1      22.884   5.630  12.969  1.00  0.00     0.106 C 
HETATM   12  N4  UNL     1      22.685   4.899  14.033  1.00  0.00    -0.385 N 
ATOM     13  H41 UNL     1      22.464   5.379  14.905  1.00  0.00     0.157 HD
ATOM     14  H42 UNL     1      22.769   3.892  13.898  1.00  0.00     0.157 HD
ENDROOT
BRANCH   4  15
HETATM   15  C5  UNL     1      24.483   7.265   9.093  1.00  0.00     0.086 A 
HETATM   16  C6  UNL     1      25.683   7.880   9.031  1.00  0.00     0.040 A 
HETATM   17  C7  UNL     1      26.028   7.989   7.685  1.00  0.00     0.027 A 
HETATM   18  C8  UNL     1      24.997   7.420   6.980  1.00  0.00     0.142 A 
HETATM   19  O1  UNL     1      24.119   7.011   7.834  1.00  0.00    -0.322 OA
ENDBRANCH   4  15
BRANCH   8  20
HETATM   20  N2  UNL     1      22.349   9.156  12.623  1.00  0.00    -0.384 N 
ATOM     21  H22 UNL     1      21.456   9.558  12.334  1.00  0.00     0.157 HD
ATOM     22  H21 UNL     1      23.041   9.619  13.213  1.00  0.00     0.157 HD
ENDBRANCH   8  20
TORSDOF 2
ENDMDL
