MODEL 1
REMARK VINA RESULT: -6.411635054      0.000      0.000
REMARK  4 active torsions:
REMARK  status: ('A' for Active; 'I' for Inactive)
REMARK    1  A    between atoms: C5_6  and  C6_7 
REMARK    2  A    between atoms: C8_9  and  C9_10 
REMARK    3  A    between atoms: C9_10  and  O1_11 
REMARK    4  A    between atoms: C9_10  and  O2_13 
ROOT
HETATM    1  N1  UNL     1      26.175   5.070  13.956  1.00  0.00    -0.191 NA
HETATM    2  C1  UNL     1      25.271   4.928  13.253  1.00  0.00     0.099 C 
HETATM    3  C2  UNL     1      24.142   4.774  12.384  1.00  0.00     0.044 A 
HETATM    4  C3  UNL     1      23.391   3.593  12.412  1.00  0.00     0.023 A 
HETATM    5  C4  UNL     1      22.313   3.450  11.579  1.00  0.00     0.014 A 
HETATM    6  C5  UNL     1      21.943   4.440  10.708  1.00  0.00    -0.019 A 
HETATM    7  C11 UNL     1      22.656   5.616  10.650  1.00  0.00     0.014 A 
HETATM    8  C12 UNL     1      23.754   5.761  11.499  1.00  0.00     0.023 A 
ENDROOT
BRANCH   6   9
HETATM    9  C6  UNL     1      20.769   4.249   9.821  1.00  0.00     0.015 A 
HETATM   10  C7  UNL     1      19.753   3.343   9.963  1.00  0.00     0.032 A 
HETATM   11  C8  UNL     1      18.788   3.348   9.034  1.00  0.00     0.004 A 
HETATM   12  C10 UNL     1      18.898   4.261   8.019  1.00  0.00     0.062 A 
HETATM   13  S1  UNL     1      20.341   5.078   8.395  1.00  0.00    -0.101 SA
BRANCH  11  14
HETATM   14  C9  UNL     1      17.605   2.389   9.079  1.00  0.00     0.289 C 
BRANCH  14  15
HETATM   15  O1  UNL     1      17.389   1.880   7.780  1.00  0.00    -0.367 OA
ATOM     16  H1  UNL     1      16.815   2.475   7.312  1.00  0.00     0.213 HD
ENDBRANCH  14  15
BRANCH  14  17
HETATM   17  O2  UNL     1      17.843   1.351   9.958  1.00  0.00    -0.367 OA
ATOM     18  H2  UNL     1      18.770   1.148  10.001  1.00  0.00     0.213 HD
ENDBRANCH  14  17
ENDBRANCH  11  14
ENDBRANCH   6   9
TORSDOF 4
ENDMDL
MODEL 2
REMARK VINA RESULT: -6.385699798      0.168      1.196
REMARK  4 active torsions:
REMARK  status: ('A' for Active; 'I' for Inactive)
REMARK    1  A    between atoms: C5_6  and  C6_7 
REMARK    2  A    between atoms: C8_9  and  C9_10 
REMARK    3  A    between atoms: C9_10  and  O1_11 
REMARK    4  A    between atoms: C9_10  and  O2_13 
ROOT
HETATM    1  N1  UNL     1      26.097   4.990  13.885  1.00  0.00    -0.191 NA
HETATM    2  C1  UNL     1      25.173   4.866  13.205  1.00  0.00     0.099 C 
HETATM    3  C2  UNL     1      24.033   4.690  12.355  1.00  0.00     0.044 A 
HETATM    4  C3  UNL     1      23.550   5.765  11.598  1.00  0.00     0.023 A 
HETATM    5  C4  UNL     1      22.459   5.593  10.786  1.00  0.00     0.014 A 
HETATM    6  C5  UNL     1      21.819   4.385  10.691  1.00  0.00    -0.019 A 
HETATM    7  C11 UNL     1      22.263   3.305  11.419  1.00  0.00     0.014 A 
HETATM    8  C12 UNL     1      23.375   3.481  12.245  1.00  0.00     0.023 A 
ENDROOT
BRANCH   6   9
HETATM    9  C6  UNL     1      20.642   4.237   9.802  1.00  0.00     0.015 A 
HETATM   10  C7  UNL     1      19.620   3.333   9.911  1.00  0.00     0.032 A 
HETATM   11  C8  UNL     1      18.652   3.380   8.986  1.00  0.00     0.004 A 
HETATM   12  C10 UNL     1      18.766   4.331   8.007  1.00  0.00     0.062 A 
HETATM   13  S1  UNL     1      20.217   5.123   8.409  1.00  0.00    -0.101 SA
BRANCH  11  14
HETATM   14  C9  UNL     1      17.463   2.429   8.997  1.00  0.00     0.289 C 
BRANCH  14  15
HETATM   15  O1  UNL     1      17.307   1.888   7.702  1.00  0.00    -0.367 OA
ATOM     16  H1  UNL     1      16.429   1.534   7.626  1.00  0.00     0.213 HD
ENDBRANCH  14  15
BRANCH  14  17
HETATM   17  O2  UNL     1      17.651   1.413   9.913  1.00  0.00    -0.367 OA
ATOM     18  H2  UNL     1      17.798   0.583   9.475  1.00  0.00     0.213 HD
ENDBRANCH  14  17
ENDBRANCH  11  14
ENDBRANCH   6   9
TORSDOF 4
ENDMDL
MODEL 3
REMARK VINA RESULT: -6.204846125      5.526      7.788
REMARK  4 active torsions:
REMARK  status: ('A' for Active; 'I' for Inactive)
REMARK    1  A    between atoms: C5_6  and  C6_7 
REMARK    2  A    between atoms: C8_9  and  C9_10 
REMARK    3  A    between atoms: C9_10  and  O1_11 
REMARK    4  A    between atoms: C9_10  and  O2_13 
ROOT
HETATM    1  N1  UNL     1      22.321   4.978   7.672  1.00  0.00    -0.191 NA
HETATM    2  C1  UNL     1      22.690   5.275   8.724  1.00  0.00     0.099 C 
HETATM    3  C2  UNL     1      23.133   5.627  10.040  1.00  0.00     0.044 A 
HETATM    4  C3  UNL     1      23.386   6.966  10.360  1.00  0.00     0.023 A 
HETATM    5  C4  UNL     1      23.810   7.299  11.620  1.00  0.00     0.014 A 
HETATM    6  C5  UNL     1      23.996   6.348  12.589  1.00  0.00    -0.019 A 
HETATM    7  C11 UNL     1      23.758   5.021  12.314  1.00  0.00     0.014 A 
HETATM    8  C12 UNL     1      23.326   4.683  11.030  1.00  0.00     0.023 A 
ENDROOT
BRANCH   6   9
HETATM    9  C6  UNL     1      24.456   6.746  13.941  1.00  0.00     0.015 A 
HETATM   10  C7  UNL     1      24.559   5.958  15.055  1.00  0.00     0.032 A 
HETATM   11  C8  UNL     1      25.002   6.533  16.181  1.00  0.00     0.004 A 
HETATM   12  C10 UNL     1      25.315   7.865  16.123  1.00  0.00     0.062 A 
HETATM   13  S1  UNL     1      24.981   8.267  14.504  1.00  0.00    -0.101 SA
BRANCH  11  14
HETATM   14  C9  UNL     1      25.160   5.764  17.485  1.00  0.00     0.289 C 
BRANCH  14  15
HETATM   15  O1  UNL     1      24.881   4.401  17.242  1.00  0.00    -0.367 OA
ATOM     16  H1  UNL     1      25.097   4.204  16.338  1.00  0.00     0.213 HD
ENDBRANCH  14  15
BRANCH  14  17
HETATM   17  O2  UNL     1      26.439   5.900  17.988  1.00  0.00    -0.367 OA
ATOM     18  H2  UNL     1      26.419   6.135  18.908  1.00  0.00     0.213 HD
ENDBRANCH  14  17
ENDBRANCH  11  14
ENDBRANCH   6   9
TORSDOF 4
ENDMDL
MODEL 4
REMARK VINA RESULT: -6.112941832      3.133      3.766
REMARK  4 active torsions:
REMARK  status: ('A' for Active; 'I' for Inactive)
REMARK    1  A    between atoms: C5_6  and  C6_7 
REMARK    2  A    between atoms: C8_9  and  C9_10 
REMARK    3  A    between atoms: C9_10  and  O1_11 
REMARK    4  A    between atoms: C9_10  and  O2_13 
ROOT
HETATM    1  N1  UNL     1      25.111   5.690  16.681  1.00  0.00    -0.191 NA
HETATM    2  C1  UNL     1      24.845   5.785  15.562  1.00  0.00     0.099 C 
HETATM    3  C2  UNL     1      24.498   5.919  14.178  1.00  0.00     0.044 A 
HETATM    4  C3  UNL     1      24.498   4.795  13.343  1.00  0.00     0.023 A 
HETATM    5  C4  UNL     1      24.166   4.927  12.020  1.00  0.00     0.014 A 
HETATM    6  C5  UNL     1      23.828   6.141  11.483  1.00  0.00    -0.019 A 
HETATM    7  C11 UNL     1      23.816   7.269  12.271  1.00  0.00     0.014 A 
HETATM    8  C12 UNL     1      24.155   7.134  13.618  1.00  0.00     0.023 A 
ENDROOT
BRANCH   6   9
HETATM    9  C6  UNL     1      23.474   6.245  10.047  1.00  0.00     0.015 A 
HETATM   10  C7  UNL     1      22.796   5.332   9.285  1.00  0.00     0.032 A 
HETATM   11  C8  UNL     1      22.585   5.637   7.998  1.00  0.00     0.004 A 
HETATM   12  C10 UNL     1      23.068   6.839   7.551  1.00  0.00     0.062 A 
HETATM   13  S1  UNL     1      23.796   7.499   8.939  1.00  0.00    -0.101 SA
BRANCH  11  14
HETATM   14  C9  UNL     1      21.845   4.706   7.047  1.00  0.00     0.289 C 
BRANCH  14  15
HETATM   15  O1  UNL     1      22.640   4.510   5.897  1.00  0.00    -0.367 OA
ATOM     16  H1  UNL     1      22.242   3.832   5.364  1.00  0.00     0.213 HD
ENDBRANCH  14  15
BRANCH  14  17
HETATM   17  O2  UNL     1      21.581   3.492   7.650  1.00  0.00    -0.367 OA
ATOM     18  H2  UNL     1      22.155   2.814   7.315  1.00  0.00     0.213 HD
ENDBRANCH  14  17
ENDBRANCH  11  14
ENDBRANCH   6   9
TORSDOF 4
ENDMDL
MODEL 5
REMARK VINA RESULT: -6.086277246      3.130      3.918
REMARK  4 active torsions:
REMARK  status: ('A' for Active; 'I' for Inactive)
REMARK    1  A    between atoms: C5_6  and  C6_7 
REMARK    2  A    between atoms: C8_9  and  C9_10 
REMARK    3  A    between atoms: C9_10  and  O1_11 
REMARK    4  A    between atoms: C9_10  and  O2_13 
ROOT
HETATM    1  N1  UNL     1      25.249   5.911  16.634  1.00  0.00    -0.191 NA
HETATM    2  C1  UNL     1      24.938   5.971  15.524  1.00  0.00     0.099 C 
HETATM    3  C2  UNL     1      24.567   6.030  14.142  1.00  0.00     0.044 A 
HETATM    4  C3  UNL     1      24.213   7.253  13.561  1.00  0.00     0.023 A 
HETATM    5  C4  UNL     1      23.859   7.305  12.238  1.00  0.00     0.014 A 
HETATM    6  C5  UNL     1      23.841   6.181  11.457  1.00  0.00    -0.019 A 
HETATM    7  C11 UNL     1      24.182   4.958  11.990  1.00  0.00     0.014 A 
HETATM    8  C12 UNL     1      24.543   4.907  13.337  1.00  0.00     0.023 A 
ENDROOT
BRANCH   6   9
HETATM    9  C6  UNL     1      23.453   6.275  10.029  1.00  0.00     0.015 A 
HETATM   10  C7  UNL     1      22.811   5.333   9.272  1.00  0.00     0.032 A 
HETATM   11  C8  UNL     1      22.558   5.635   7.992  1.00  0.00     0.004 A 
HETATM   12  C10 UNL     1      22.964   6.865   7.546  1.00  0.00     0.062 A 
HETATM   13  S1  UNL     1      23.683   7.554   8.925  1.00  0.00    -0.101 SA
BRANCH  11  14
HETATM   14  C9  UNL     1      21.851   4.672   7.048  1.00  0.00     0.289 C 
BRANCH  14  15
HETATM   15  O1  UNL     1      22.668   4.472   5.913  1.00  0.00    -0.367 OA
ATOM     16  H1  UNL     1      22.236   3.856   5.333  1.00  0.00     0.213 HD
ENDBRANCH  14  15
BRANCH  14  17
HETATM   17  O2  UNL     1      21.603   3.464   7.669  1.00  0.00    -0.367 OA
ATOM     18  H2  UNL     1      20.897   2.998   7.238  1.00  0.00     0.213 HD
ENDBRANCH  14  17
ENDBRANCH  11  14
ENDBRANCH   6   9
TORSDOF 4
ENDMDL
