MODEL 1
REMARK VINA RESULT: -6.945107815      0.000      0.000
REMARK  2 active torsions:
REMARK  status: ('A' for Active; 'I' for Inactive)
REMARK    1  A    between atoms: O1_2  and  C2_3 
REMARK    2  A    between atoms: C6_7  and  C7_8 
ROOT
HETATM    1  C7  UNL     1      22.918   6.709   8.134  1.00  0.00     0.083 A 
HETATM    2  N1  UNL     1      21.777   6.819   7.363  1.00  0.00    -0.297 N 
ATOM      3  H1  UNL     1      20.913   6.304   7.531  1.00  0.00     0.187 HD
HETATM    4  N2  UNL     1      21.954   7.673   6.388  1.00  0.00    -0.284 N 
ATOM      5  H2  UNL     1      21.249   7.915   5.692  1.00  0.00     0.188 HD
HETATM    6  C8  UNL     1      23.180   8.181   6.433  1.00  0.00     0.137 A 
HETATM    7  N3  UNL     1      23.693   9.035   5.644  1.00  0.00    -0.383 N 
ATOM      8  H31 UNL     1      24.634   9.425   5.678  1.00  0.00     0.157 HD
ATOM      9  H32 UNL     1      23.250   9.479   4.839  1.00  0.00     0.157 HD
HETATM   10  C9  UNL     1      23.790   7.567   7.545  1.00  0.00     0.118 A 
HETATM   11  C10 UNL     1      25.135   7.879   7.959  1.00  0.00     0.105 C 
HETATM   12  N4  UNL     1      26.206   8.158   8.277  1.00  0.00    -0.191 NA
ENDROOT
BRANCH   1  13
HETATM   13  C6  UNL     1      23.017   5.866   9.314  1.00  0.00    -0.004 A 
HETATM   14  C5  UNL     1      22.335   4.702   9.475  1.00  0.00     0.014 A 
HETATM   15  C4  UNL     1      22.495   3.897  10.617  1.00  0.00     0.004 A 
HETATM   16  C3  UNL     1      23.345   4.259  11.610  1.00  0.00     0.037 A 
HETATM   17  C2  UNL     1      24.031   5.441  11.440  1.00  0.00     0.069 A 
HETATM   18  C11 UNL     1      23.888   6.236  10.337  1.00  0.00     0.050 A 
BRANCH  17  19
HETATM   19  O1  UNL     1      24.910   5.822  12.462  1.00  0.00    -0.356 OA
HETATM   20  C1  UNL     1      25.174   5.003  13.571  1.00  0.00     0.210 C 
ENDBRANCH  17  19
ENDBRANCH   1  13
TORSDOF 2
ENDMDL
MODEL 2
REMARK VINA RESULT: -6.897180184      2.886      4.693
REMARK  2 active torsions:
REMARK  status: ('A' for Active; 'I' for Inactive)
REMARK    1  A    between atoms: O1_2  and  C2_3 
REMARK    2  A    between atoms: C6_7  and  C7_8 
ROOT
HETATM    1  C7  UNL     1      25.198   7.746   4.902  1.00  0.00     0.083 A 
HETATM    2  N1  UNL     1      25.940   8.322   3.889  1.00  0.00    -0.297 N 
ATOM      3  H1  UNL     1      26.817   8.824   4.026  1.00  0.00     0.187 HD
HETATM    4  N2  UNL     1      25.366   8.136   2.728  1.00  0.00    -0.284 N 
ATOM      5  H2  UNL     1      25.732   8.473   1.837  1.00  0.00     0.188 HD
HETATM    6  C8  UNL     1      24.240   7.447   2.872  1.00  0.00     0.137 A 
HETATM    7  N3  UNL     1      23.430   7.088   1.961  1.00  0.00    -0.383 N 
ATOM      8  H31 UNL     1      22.565   6.559   2.071  1.00  0.00     0.157 HD
ATOM      9  H32 UNL     1      23.506   7.267   0.959  1.00  0.00     0.157 HD
HETATM   10  C9  UNL     1      24.137   7.199   4.256  1.00  0.00     0.118 A 
HETATM   11  C10 UNL     1      23.054   6.439   4.827  1.00  0.00     0.105 C 
HETATM   12  N4  UNL     1      22.186   5.815   5.255  1.00  0.00    -0.191 NA
ENDROOT
BRANCH   1  13
HETATM   13  C6  UNL     1      25.599   7.752   6.299  1.00  0.00    -0.004 A 
HETATM   14  C5  UNL     1      26.864   7.499   6.727  1.00  0.00     0.014 A 
HETATM   15  C4  UNL     1      27.215   7.558   8.088  1.00  0.00     0.004 A 
HETATM   16  C3  UNL     1      26.292   7.871   9.032  1.00  0.00     0.037 A 
HETATM   17  C2  UNL     1      25.013   8.125   8.590  1.00  0.00     0.069 A 
HETATM   18  C11 UNL     1      24.654   8.073   7.272  1.00  0.00     0.050 A 
BRANCH  17  19
HETATM   19  O1  UNL     1      24.055   8.450   9.558  1.00  0.00    -0.356 OA
HETATM   20  C1  UNL     1      23.729   7.583  10.614  1.00  0.00     0.210 C 
ENDBRANCH  17  19
ENDBRANCH   1  13
TORSDOF 2
ENDMDL
MODEL 3
REMARK VINA RESULT: -6.860709990      1.278      2.206
REMARK  2 active torsions:
REMARK  status: ('A' for Active; 'I' for Inactive)
REMARK    1  A    between atoms: O1_2  and  C2_3 
REMARK    2  A    between atoms: C6_7  and  C7_8 
ROOT
HETATM    1  C7  UNL     1      23.127   6.836   8.134  1.00  0.00     0.083 A 
HETATM    2  N1  UNL     1      21.932   6.939   7.448  1.00  0.00    -0.297 N 
ATOM      3  H1  UNL     1      21.065   6.475   7.721  1.00  0.00     0.187 HD
HETATM    4  N2  UNL     1      22.061   7.713   6.401  1.00  0.00    -0.284 N 
ATOM      5  H2  UNL     1      21.312   7.935   5.746  1.00  0.00     0.188 HD
HETATM    6  C8  UNL     1      23.305   8.170   6.312  1.00  0.00     0.137 A 
HETATM    7  N3  UNL     1      23.784   8.942   5.424  1.00  0.00    -0.383 N 
ATOM      8  H31 UNL     1      24.739   9.293   5.355  1.00  0.00     0.157 HD
ATOM      9  H32 UNL     1      23.295   9.346   4.626  1.00  0.00     0.157 HD
HETATM   10  C9  UNL     1      23.980   7.611   7.417  1.00  0.00     0.118 A 
HETATM   11  C10 UNL     1      25.364   7.893   7.700  1.00  0.00     0.105 C 
HETATM   12  N4  UNL     1      26.467   8.147   7.912  1.00  0.00    -0.191 NA
ENDROOT
BRANCH   1  13
HETATM   13  C6  UNL     1      23.289   6.076   9.362  1.00  0.00    -0.004 A 
HETATM   14  C5  UNL     1      24.127   6.434  10.371  1.00  0.00     0.014 A 
HETATM   15  C4  UNL     1      24.219   5.689  11.561  1.00  0.00     0.004 A 
HETATM   16  C3  UNL     1      23.469   4.575  11.744  1.00  0.00     0.037 A 
HETATM   17  C2  UNL     1      22.623   4.218  10.717  1.00  0.00     0.069 A 
HETATM   18  C11 UNL     1      22.520   4.930   9.554  1.00  0.00     0.050 A 
BRANCH  17  19
HETATM   19  O1  UNL     1      21.845   3.069  10.899  1.00  0.00    -0.356 OA
HETATM   20  C1  UNL     1      20.500   2.999  10.502  1.00  0.00     0.210 C 
ENDBRANCH  17  19
ENDBRANCH   1  13
TORSDOF 2
ENDMDL
MODEL 4
REMARK VINA RESULT: -6.786959939      3.962      5.955
REMARK  2 active torsions:
REMARK  status: ('A' for Active; 'I' for Inactive)
REMARK    1  A    between atoms: O1_2  and  C2_3 
REMARK    2  A    between atoms: C6_7  and  C7_8 
ROOT
HETATM    1  C7  UNL     1      23.904   4.830  12.682  1.00  0.00     0.083 A 
HETATM    2  N1  UNL     1      24.531   3.812  13.375  1.00  0.00    -0.297 N 
ATOM      3  H1  UNL     1      24.433   2.820  13.162  1.00  0.00     0.187 HD
HETATM    4  N2  UNL     1      25.270   4.293  14.342  1.00  0.00    -0.284 N 
ATOM      5  H2  UNL     1      25.824   3.729  14.986  1.00  0.00     0.188 HD
HETATM    6  C8  UNL     1      25.196   5.619  14.367  1.00  0.00     0.137 A 
HETATM    7  N3  UNL     1      25.780   6.411  15.170  1.00  0.00    -0.383 N 
ATOM      8  H31 UNL     1      25.723   7.430  15.190  1.00  0.00     0.157 HD
ATOM      9  H32 UNL     1      26.408   6.166  15.935  1.00  0.00     0.157 HD
HETATM   10  C9  UNL     1      24.327   5.957  13.309  1.00  0.00     0.118 A 
HETATM   11  C10 UNL     1      24.009   7.322  12.977  1.00  0.00     0.105 C 
HETATM   12  N4  UNL     1      23.783   8.423  12.724  1.00  0.00    -0.191 NA
ENDROOT
BRANCH   1  13
HETATM   13  C6  UNL     1      23.048   4.612  11.528  1.00  0.00    -0.004 A 
HETATM   14  C5  UNL     1      23.247   5.190  10.314  1.00  0.00     0.014 A 
HETATM   15  C4  UNL     1      22.416   4.916   9.213  1.00  0.00     0.004 A 
HETATM   16  C3  UNL     1      21.373   4.056   9.326  1.00  0.00     0.037 A 
HETATM   17  C2  UNL     1      21.177   3.475  10.560  1.00  0.00     0.069 A 
HETATM   18  C11 UNL     1      21.975   3.730  11.640  1.00  0.00     0.050 A 
BRANCH  17  19
HETATM   19  O1  UNL     1      20.102   2.587  10.684  1.00  0.00    -0.356 OA
HETATM   20  C1  UNL     1      19.043   2.554   9.763  1.00  0.00     0.210 C 
ENDBRANCH  17  19
ENDBRANCH   1  13
TORSDOF 2
ENDMDL
MODEL 5
REMARK VINA RESULT: -6.623266636      1.425      1.754
REMARK  2 active torsions:
REMARK  status: ('A' for Active; 'I' for Inactive)
REMARK    1  A    between atoms: O1_2  and  C2_3 
REMARK    2  A    between atoms: C6_7  and  C7_8 
ROOT
HETATM    1  C7  UNL     1      23.365   7.052   8.180  1.00  0.00     0.083 A 
HETATM    2  N1  UNL     1      23.917   6.715   6.959  1.00  0.00    -0.297 N 
ATOM      3  H1  UNL     1      24.350   5.817   6.747  1.00  0.00     0.187 HD
HETATM    4  N2  UNL     1      23.809   7.705   6.110  1.00  0.00    -0.284 N 
ATOM      5  H2  UNL     1      24.146   7.685   5.148  1.00  0.00     0.188 HD
HETATM    6  C8  UNL     1      23.199   8.739   6.677  1.00  0.00     0.137 A 
HETATM    7  N3  UNL     1      22.928   9.863   6.150  1.00  0.00    -0.383 N 
ATOM      8  H31 UNL     1      22.459  10.657   6.585  1.00  0.00     0.157 HD
ATOM      9  H32 UNL     1      23.132  10.165   5.197  1.00  0.00     0.157 HD
HETATM   10  C9  UNL     1      22.917   8.320   7.994  1.00  0.00     0.118 A 
HETATM   11  C10 UNL     1      22.220   9.156   8.938  1.00  0.00     0.105 C 
HETATM   12  N4  UNL     1      21.647   9.839   9.668  1.00  0.00    -0.191 NA
ENDROOT
BRANCH   1  13
HETATM   13  C6  UNL     1      23.299   6.146   9.314  1.00  0.00    -0.004 A 
HETATM   14  C5  UNL     1      22.504   5.043   9.359  1.00  0.00     0.014 A 
HETATM   15  C4  UNL     1      22.505   4.170  10.462  1.00  0.00     0.004 A 
HETATM   16  C3  UNL     1      23.307   4.401  11.531  1.00  0.00     0.037 A 
HETATM   17  C2  UNL     1      24.108   5.520  11.478  1.00  0.00     0.069 A 
HETATM   18  C11 UNL     1      24.121   6.379  10.415  1.00  0.00     0.050 A 
BRANCH  17  19
HETATM   19  O1  UNL     1      24.938   5.764  12.579  1.00  0.00    -0.356 OA
HETATM   20  C1  UNL     1      25.193   4.793  13.560  1.00  0.00     0.210 C 
ENDBRANCH  17  19
ENDBRANCH   1  13
TORSDOF 2
ENDMDL
