MODEL 1
REMARK VINA RESULT: -6.734182606      0.000      0.000
REMARK  4 active torsions:
REMARK  status: ('A' for Active; 'I' for Inactive)
REMARK    1  A    between atoms: C7_8  and  O1_9 
REMARK    2  A    between atoms: O1_9  and  C8_10 
REMARK    3  A    between atoms: C10_14  and  N3_15 
REMARK    4  A    between atoms: C11_20  and  N5_21 
ROOT
HETATM    1  N1  UNL     1      20.262   3.295   8.388  1.00  0.00    -0.191 NA
HETATM    2  C1  UNL     1      21.091   3.846   8.978  1.00  0.00     0.102 C 
HETATM    3  C2  UNL     1      22.137   4.523   9.724  1.00  0.00     0.078 A 
HETATM    4  C3  UNL     1      22.634   3.945  10.854  1.00  0.00     0.025 A 
HETATM    5  C4  UNL     1      23.627   4.529  11.613  1.00  0.00     0.002 A 
HETATM    6  C5  UNL     1      24.112   5.738  11.189  1.00  0.00     0.003 A 
HETATM    7  C6  UNL     1      23.625   6.341  10.051  1.00  0.00     0.039 A 
HETATM    8  C7  UNL     1      22.629   5.761   9.283  1.00  0.00     0.097 A 
ENDROOT
BRANCH   8   9
HETATM    9  O1  UNL     1      22.090   6.292   8.145  1.00  0.00    -0.304 OA
BRANCH   9  10
HETATM   10  C8  UNL     1      22.815   6.791   7.066  1.00  0.00     0.136 A 
HETATM   11  C9  UNL     1      23.335   8.090   7.135  1.00  0.00     0.147 A 
HETATM   12  N2  UNL     1      24.028   8.542   6.081  1.00  0.00    -0.199 N 
HETATM   13  C10 UNL     1      24.246   7.824   4.981  1.00  0.00     0.677 A 
ATOM     14  H2  UNL     1      24.409   9.487   6.123  1.00  0.00     0.183 HD
HETATM   15  N4  UNL     1      23.764   6.583   4.886  1.00  0.00    -0.175 N 
HETATM   16  C11 UNL     1      23.052   6.070   5.927  1.00  0.00     0.150 A 
ATOM     17  H4  UNL     1      23.928   6.027   4.046  1.00  0.00     0.186 HD
BRANCH  13  18
HETATM   18  N3  UNL     1      24.912   8.319   4.020  1.00  0.00    -0.234 N 
ATOM     19  H32 UNL     1      25.603   9.047   4.204  1.00  0.00     0.174 HD
ATOM     20  H31 UNL     1      24.757   7.988   3.067  1.00  0.00     0.174 HD
ENDBRANCH  13  18
BRANCH  16  21
HETATM   21  N5  UNL     1      22.660   4.846   5.810  1.00  0.00    -0.383 N 
ATOM     22  H52 UNL     1      21.757   4.697   5.360  1.00  0.00     0.157 HD
ATOM     23  H51 UNL     1      23.247   4.068   6.111  1.00  0.00     0.157 HD
ENDBRANCH  16  21
ENDBRANCH   9  10
ENDBRANCH   8   9
TORSDOF 4
ENDMDL
MODEL 2
REMARK VINA RESULT: -6.688479795      1.594      1.887
REMARK  4 active torsions:
REMARK  status: ('A' for Active; 'I' for Inactive)
REMARK    1  A    between atoms: C7_8  and  O1_9 
REMARK    2  A    between atoms: O1_9  and  C8_10 
REMARK    3  A    between atoms: C10_14  and  N3_15 
REMARK    4  A    between atoms: C11_20  and  N5_21 
ROOT
HETATM    1  N1  UNL     1      20.012   2.664  10.626  1.00  0.00    -0.191 NA
HETATM    2  C1  UNL     1      20.940   3.326  10.828  1.00  0.00     0.102 C 
HETATM    3  C2  UNL     1      22.110   4.144  11.089  1.00  0.00     0.078 A 
HETATM    4  C3  UNL     1      22.956   3.800  12.101  1.00  0.00     0.025 A 
HETATM    5  C4  UNL     1      24.087   4.529  12.405  1.00  0.00     0.002 A 
HETATM    6  C5  UNL     1      24.343   5.638  11.643  1.00  0.00     0.003 A 
HETATM    7  C6  UNL     1      23.503   6.005  10.615  1.00  0.00     0.039 A 
HETATM    8  C7  UNL     1      22.367   5.278  10.303  1.00  0.00     0.097 A 
ENDROOT
BRANCH   8   9
HETATM    9  O1  UNL     1      21.482   5.574   9.304  1.00  0.00    -0.304 OA
BRANCH   9  10
HETATM   10  C8  UNL     1      21.807   5.731   7.959  1.00  0.00     0.136 A 
HETATM   11  C9  UNL     1      21.783   7.014   7.395  1.00  0.00     0.147 A 
HETATM   12  N2  UNL     1      22.100   7.132   6.099  1.00  0.00    -0.199 N 
HETATM   13  C10 UNL     1      22.435   6.101   5.327  1.00  0.00     0.677 A 
ATOM     14  H2  UNL     1      22.084   8.062   5.682  1.00  0.00     0.183 HD
HETATM   15  N4  UNL     1      22.469   4.867   5.834  1.00  0.00    -0.175 N 
HETATM   16  C11 UNL     1      22.155   4.686   7.147  1.00  0.00     0.150 A 
ATOM     17  H4  UNL     1      22.725   4.073   5.248  1.00  0.00     0.186 HD
BRANCH  13  18
HETATM   18  N3  UNL     1      22.724   6.290   4.104  1.00  0.00    -0.234 N 
ATOM     19  H32 UNL     1      22.066   6.778   3.497  1.00  0.00     0.174 HD
ATOM     20  H31 UNL     1      23.613   5.954   3.732  1.00  0.00     0.174 HD
ENDBRANCH  13  18
BRANCH  16  21
HETATM   21  N5  UNL     1      22.261   3.484   7.604  1.00  0.00    -0.383 N 
ATOM     22  H52 UNL     1      21.761   3.279   8.469  1.00  0.00     0.157 HD
ATOM     23  H51 UNL     1      22.780   2.765   7.099  1.00  0.00     0.157 HD
ENDBRANCH  16  21
ENDBRANCH   9  10
ENDBRANCH   8   9
TORSDOF 4
ENDMDL
MODEL 3
REMARK VINA RESULT: -6.604425363      2.262      3.044
REMARK  4 active torsions:
REMARK  status: ('A' for Active; 'I' for Inactive)
REMARK    1  A    between atoms: C7_8  and  O1_9 
REMARK    2  A    between atoms: O1_9  and  C8_10 
REMARK    3  A    between atoms: C10_14  and  N3_15 
REMARK    4  A    between atoms: C11_20  and  N5_21 
ROOT
HETATM    1  N1  UNL     1      24.574   7.476  11.454  1.00  0.00    -0.191 NA
HETATM    2  C1  UNL     1      23.988   6.792  10.727  1.00  0.00     0.102 C 
HETATM    3  C2  UNL     1      23.245   5.926   9.830  1.00  0.00     0.078 A 
HETATM    4  C3  UNL     1      22.734   4.754  10.299  1.00  0.00     0.025 A 
HETATM    5  C4  UNL     1      22.018   3.883   9.505  1.00  0.00     0.002 A 
HETATM    6  C5  UNL     1      21.829   4.238   8.195  1.00  0.00     0.003 A 
HETATM    7  C6  UNL     1      22.336   5.418   7.697  1.00  0.00     0.039 A 
HETATM    8  C7  UNL     1      23.056   6.298   8.489  1.00  0.00     0.097 A 
ENDROOT
BRANCH   8   9
HETATM    9  O1  UNL     1      23.593   7.484   8.075  1.00  0.00    -0.304 OA
BRANCH   9  10
HETATM   10  C8  UNL     1      24.239   7.696   6.859  1.00  0.00     0.136 A 
HETATM   11  C9  UNL     1      23.482   8.061   5.738  1.00  0.00     0.147 A 
HETATM   12  N2  UNL     1      24.132   8.257   4.583  1.00  0.00    -0.199 N 
HETATM   13  C10 UNL     1      25.450   8.125   4.449  1.00  0.00     0.677 A 
ATOM     14  H2  UNL     1      23.588   8.523   3.763  1.00  0.00     0.183 HD
HETATM   15  N4  UNL     1      26.199   7.779   5.499  1.00  0.00    -0.175 N 
HETATM   16  C11 UNL     1      25.592   7.567   6.700  1.00  0.00     0.150 A 
ATOM     17  H4  UNL     1      27.209   7.676   5.403  1.00  0.00     0.186 HD
BRANCH  13  18
HETATM   18  N3  UNL     1      25.998   8.327   3.321  1.00  0.00    -0.234 N 
ATOM     19  H32 UNL     1      26.738   9.023   3.235  1.00  0.00     0.174 HD
ATOM     20  H31 UNL     1      25.698   7.793   2.505  1.00  0.00     0.174 HD
ENDBRANCH  13  18
BRANCH  16  21
HETATM   21  N5  UNL     1      26.366   7.294   7.696  1.00  0.00    -0.383 N 
ATOM     22  H52 UNL     1      25.937   7.301   8.621  1.00  0.00     0.157 HD
ATOM     23  H51 UNL     1      27.344   7.040   7.557  1.00  0.00     0.157 HD
ENDBRANCH  16  21
ENDBRANCH   9  10
ENDBRANCH   8   9
TORSDOF 4
ENDMDL
MODEL 4
REMARK VINA RESULT: -6.590538696      4.954      7.323
REMARK  4 active torsions:
REMARK  status: ('A' for Active; 'I' for Inactive)
REMARK    1  A    between atoms: C7_8  and  O1_9 
REMARK    2  A    between atoms: O1_9  and  C8_10 
REMARK    3  A    between atoms: C10_14  and  N3_15 
REMARK    4  A    between atoms: C11_20  and  N5_21 
ROOT
HETATM    1  N1  UNL     1      24.951   7.959   9.678  1.00  0.00    -0.191 NA
HETATM    2  C1  UNL     1      24.352   6.997   9.914  1.00  0.00     0.102 C 
HETATM    3  C2  UNL     1      23.599   5.787  10.192  1.00  0.00     0.078 A 
HETATM    4  C3  UNL     1      22.686   5.343   9.284  1.00  0.00     0.025 A 
HETATM    5  C4  UNL     1      21.935   4.203   9.481  1.00  0.00     0.002 A 
HETATM    6  C5  UNL     1      22.137   3.511  10.646  1.00  0.00     0.003 A 
HETATM    7  C6  UNL     1      23.055   3.941  11.579  1.00  0.00     0.039 A 
HETATM    8  C7  UNL     1      23.813   5.084  11.388  1.00  0.00     0.097 A 
ENDROOT
BRANCH   8   9
HETATM    9  O1  UNL     1      24.740   5.579  12.262  1.00  0.00    -0.304 OA
BRANCH   9  10
HETATM   10  C8  UNL     1      24.518   5.840  13.611  1.00  0.00     0.136 A 
HETATM   11  C9  UNL     1      23.891   7.037  13.981  1.00  0.00     0.147 A 
HETATM   12  N2  UNL     1      23.691   7.260  15.287  1.00  0.00    -0.199 N 
HETATM   13  C10 UNL     1      24.055   6.407  16.243  1.00  0.00     0.677 A 
ATOM     14  H2  UNL     1      23.236   8.129  15.565  1.00  0.00     0.183 HD
HETATM   15  N4  UNL     1      24.654   5.258  15.922  1.00  0.00    -0.175 N 
HETATM   16  C11 UNL     1      24.883   4.978  14.609  1.00  0.00     0.150 A 
ATOM     17  H4  UNL     1      24.936   4.600  16.650  1.00  0.00     0.186 HD
BRANCH  13  18
HETATM   18  N3  UNL     1      23.834   6.686  17.462  1.00  0.00    -0.234 N 
ATOM     19  H32 UNL     1      22.878   6.683  17.817  1.00  0.00     0.174 HD
ATOM     20  H31 UNL     1      24.611   6.912  18.084  1.00  0.00     0.174 HD
ENDBRANCH  13  18
BRANCH  16  21
HETATM   21  N5  UNL     1      25.409   3.829  14.349  1.00  0.00    -0.383 N 
ATOM     22  H52 UNL     1      26.423   3.805  14.242  1.00  0.00     0.157 HD
ATOM     23  H51 UNL     1      24.843   2.982  14.299  1.00  0.00     0.157 HD
ENDBRANCH  16  21
ENDBRANCH   9  10
ENDBRANCH   8   9
TORSDOF 4
ENDMDL
MODEL 5
REMARK VINA RESULT: -6.453086988      2.017      2.858
REMARK  4 active torsions:
REMARK  status: ('A' for Active; 'I' for Inactive)
REMARK    1  A    between atoms: C7_8  and  O1_9 
REMARK    2  A    between atoms: O1_9  and  C8_10 
REMARK    3  A    between atoms: C10_14  and  N3_15 
REMARK    4  A    between atoms: C11_20  and  N5_21 
ROOT
HETATM    1  N1  UNL     1      24.573   7.760  11.875  1.00  0.00    -0.191 NA
HETATM    2  C1  UNL     1      24.029   6.983  11.211  1.00  0.00     0.102 C 
HETATM    3  C2  UNL     1      23.340   6.001  10.393  1.00  0.00     0.078 A 
HETATM    4  C3  UNL     1      22.986   4.804  10.940  1.00  0.00     0.025 A 
HETATM    5  C4  UNL     1      22.330   3.825  10.224  1.00  0.00     0.002 A 
HETATM    6  C5  UNL     1      22.037   4.095   8.913  1.00  0.00     0.003 A 
HETATM    7  C6  UNL     1      22.385   5.298   8.339  1.00  0.00     0.039 A 
HETATM    8  C7  UNL     1      23.044   6.286   9.051  1.00  0.00     0.097 A 
ENDROOT
BRANCH   8   9
HETATM    9  O1  UNL     1      23.426   7.502   8.558  1.00  0.00    -0.304 OA
BRANCH   9  10
HETATM   10  C8  UNL     1      24.006   7.720   7.311  1.00  0.00     0.136 A 
HETATM   11  C9  UNL     1      25.371   7.460   7.137  1.00  0.00     0.147 A 
HETATM   12  N2  UNL     1      25.900   7.680   5.926  1.00  0.00    -0.199 N 
HETATM   13  C10 UNL     1      25.199   8.129   4.888  1.00  0.00     0.677 A 
ATOM     14  H2  UNL     1      26.894   7.493   5.792  1.00  0.00     0.183 HD
HETATM   15  N4  UNL     1      23.896   8.386   5.021  1.00  0.00    -0.175 N 
HETATM   16  C11 UNL     1      23.303   8.181   6.230  1.00  0.00     0.150 A 
ATOM     17  H4  UNL     1      23.352   8.731   4.230  1.00  0.00     0.186 HD
BRANCH  13  18
HETATM   18  N3  UNL     1      25.768   8.315   3.769  1.00  0.00    -0.234 N 
ATOM     19  H32 UNL     1      26.608   8.892   3.716  1.00  0.00     0.174 HD
ATOM     20  H31 UNL     1      25.387   7.888   2.924  1.00  0.00     0.174 HD
ENDBRANCH  13  18
BRANCH  16  21
HETATM   21  N5  UNL     1      22.031   8.386   6.291  1.00  0.00    -0.383 N 
ATOM     22  H52 UNL     1      21.600   8.304   7.211  1.00  0.00     0.157 HD
ATOM     23  H51 UNL     1      21.496   8.663   5.468  1.00  0.00     0.157 HD
ENDBRANCH  16  21
ENDBRANCH   9  10
ENDBRANCH   8   9
TORSDOF 4
ENDMDL
