MODEL 1
REMARK VINA RESULT: -5.563423186      0.000      0.000
REMARK  2 active torsions:
REMARK  status: ('A' for Active; 'I' for Inactive)
REMARK    1  A    between atoms: C4_4  and  O1_5 
REMARK    2  A    between atoms: O1_5  and  N1_6 
ROOT
HETATM    1  N1  UNL     1     -35.884   4.225  14.702  1.00  0.00    -0.275 N 
ATOM      2  H1  UNL     1     -36.397   3.363  14.886  1.00  0.00     0.193 HD
HETATM    3  C5  UNL     1     -35.292   4.828  15.644  1.00  0.00     0.013 C 
HETATM    4  C6  UNL     1     -35.280   4.363  17.057  1.00  0.00     0.082 C 
HETATM    5  C7  UNL     1     -34.186   5.176  17.760  1.00  0.00     0.238 C 
HETATM    6  N2  UNL     1     -34.482   6.575  17.758  1.00  0.00    -0.074 N 
ATOM      7  H21 UNL     1     -33.681   7.114  18.090  1.00  0.00     0.277 HD
ATOM      8  H22 UNL     1     -35.154   6.803  18.490  1.00  0.00     0.277 HD
HETATM    9  C8  UNL     1     -34.933   7.065  16.477  1.00  0.00     0.238 C 
HETATM   10  C9  UNL     1     -34.537   6.095  15.381  1.00  0.00     0.082 C 
ENDROOT
BRANCH   1  11
HETATM   11  O1  UNL     1     -35.831   4.741  13.433  1.00  0.00    -0.275 OA
BRANCH  11  12
HETATM   12  C4  UNL     1     -35.321   3.907  12.409  1.00  0.00     0.152 C 
HETATM   13  C3  UNL     1     -35.784   4.489  11.093  1.00  0.00     0.034 C 
HETATM   14  C2  UNL     1     -36.737   3.477  10.522  1.00  0.00     0.003 C 
HETATM   15  C1  UNL     1     -37.259   2.742  11.758  1.00  0.00     0.003 C 
HETATM   16  C10 UNL     1     -36.002   2.565  12.555  1.00  0.00     0.034 C 
ENDBRANCH  11  12
ENDBRANCH   1  11
TORSDOF 2
ENDMDL
MODEL 2
REMARK VINA RESULT: -5.513878100      0.891      1.524
REMARK  2 active torsions:
REMARK  status: ('A' for Active; 'I' for Inactive)
REMARK    1  A    between atoms: C4_4  and  O1_5 
REMARK    2  A    between atoms: O1_5  and  N1_6 
ROOT
HETATM    1  N1  UNL     1     -35.185   5.408  13.656  1.00  0.00    -0.275 N 
ATOM      2  H1  UNL     1     -34.527   5.912  13.063  1.00  0.00     0.193 HD
HETATM    3  C5  UNL     1     -35.173   5.578  14.910  1.00  0.00     0.013 C 
HETATM    4  C6  UNL     1     -34.239   6.491  15.621  1.00  0.00     0.082 C 
HETATM    5  C7  UNL     1     -34.797   6.643  17.041  1.00  0.00     0.238 C 
HETATM    6  N2  UNL     1     -34.813   5.396  17.741  1.00  0.00    -0.074 N 
ATOM      7  H21 UNL     1     -35.323   5.482  18.621  1.00  0.00     0.277 HD
ATOM      8  H22 UNL     1     -33.886   5.174  18.104  1.00  0.00     0.277 HD
HETATM    9  C8  UNL     1     -35.332   4.303  16.954  1.00  0.00     0.238 C 
HETATM   10  C9  UNL     1     -36.138   4.839  15.788  1.00  0.00     0.082 C 
ENDROOT
BRANCH   1  11
HETATM   11  O1  UNL     1     -36.091   4.540  13.102  1.00  0.00    -0.275 OA
BRANCH  11  12
HETATM   12  C4  UNL     1     -35.636   3.699  12.058  1.00  0.00     0.152 C 
HETATM   13  C3  UNL     1     -36.085   4.325  10.758  1.00  0.00     0.034 C 
HETATM   14  C2  UNL     1     -37.095   3.371  10.183  1.00  0.00     0.003 C 
HETATM   15  C1  UNL     1     -37.638   2.642  11.414  1.00  0.00     0.003 C 
HETATM   16  C10 UNL     1     -36.381   2.390  12.192  1.00  0.00     0.034 C 
ENDBRANCH  11  12
ENDBRANCH   1  11
TORSDOF 2
ENDMDL
MODEL 3
REMARK VINA RESULT: -5.469283355      2.768      5.835
REMARK  2 active torsions:
REMARK  status: ('A' for Active; 'I' for Inactive)
REMARK    1  A    between atoms: C4_4  and  O1_5 
REMARK    2  A    between atoms: O1_5  and  N1_6 
ROOT
HETATM    1  N1  UNL     1     -35.856   3.953  17.233  1.00  0.00    -0.275 N 
ATOM      2  H1  UNL     1     -36.694   3.620  17.709  1.00  0.00     0.193 HD
HETATM    3  C5  UNL     1     -35.955   4.696  16.212  1.00  0.00     0.013 C 
HETATM    4  C6  UNL     1     -37.247   5.142  15.625  1.00  0.00     0.082 C 
HETATM    5  C7  UNL     1     -36.899   6.273  14.650  1.00  0.00     0.238 C 
HETATM    6  N2  UNL     1     -36.064   5.815  13.583  1.00  0.00    -0.074 N 
ATOM      7  H21 UNL     1     -35.718   6.600  13.031  1.00  0.00     0.277 HD
ATOM      8  H22 UNL     1     -36.618   5.339  12.870  1.00  0.00     0.277 HD
HETATM    9  C8  UNL     1     -34.972   4.980  14.025  1.00  0.00     0.238 C 
HETATM   10  C9  UNL     1     -34.728   5.188  15.507  1.00  0.00     0.082 C 
ENDROOT
BRANCH   1  11
HETATM   11  O1  UNL     1     -34.613   3.600  17.691  1.00  0.00    -0.275 OA
BRANCH  11  12
HETATM   12  C4  UNL     1     -34.386   3.677  19.087  1.00  0.00     0.152 C 
HETATM   13  C3  UNL     1     -35.575   4.390  19.690  1.00  0.00     0.034 C 
HETATM   14  C2  UNL     1     -35.039   5.695  20.206  1.00  0.00     0.003 C 
HETATM   15  C1  UNL     1     -33.808   5.945  19.333  1.00  0.00     0.003 C 
HETATM   16  C10 UNL     1     -33.190   4.581  19.288  1.00  0.00     0.034 C 
ENDBRANCH  11  12
ENDBRANCH   1  11
TORSDOF 2
ENDMDL
MODEL 4
REMARK VINA RESULT: -5.424531951      1.890      2.509
REMARK  2 active torsions:
REMARK  status: ('A' for Active; 'I' for Inactive)
REMARK    1  A    between atoms: C4_4  and  O1_5 
REMARK    2  A    between atoms: O1_5  and  N1_6 
ROOT
HETATM    1  N1  UNL     1     -34.964   3.805  16.570  1.00  0.00    -0.275 N 
ATOM      2  H1  UNL     1     -34.314   3.030  16.440  1.00  0.00     0.193 HD
HETATM    3  C5  UNL     1     -35.061   4.375  17.696  1.00  0.00     0.013 C 
HETATM    4  C6  UNL     1     -34.270   3.993  18.897  1.00  0.00     0.082 C 
HETATM    5  C7  UNL     1     -34.446   5.138  19.901  1.00  0.00     0.238 C 
HETATM    6  N2  UNL     1     -35.811   5.287  20.300  1.00  0.00    -0.074 N 
ATOM      7  H21 UNL     1     -35.937   6.141  20.845  1.00  0.00     0.277 HD
ATOM      8  H22 UNL     1     -36.057   4.597  21.010  1.00  0.00     0.277 HD
HETATM    9  C8  UNL     1     -36.741   5.243  19.197  1.00  0.00     0.238 C 
HETATM   10  C9  UNL     1     -36.014   5.514  17.894  1.00  0.00     0.082 C 
ENDROOT
BRANCH   1  11
HETATM   11  O1  UNL     1     -35.742   4.238  15.527  1.00  0.00    -0.275 OA
BRANCH  11  12
HETATM   12  C4  UNL     1     -35.084   4.840  14.427  1.00  0.00     0.152 C 
HETATM   13  C3  UNL     1     -36.159   5.326  13.482  1.00  0.00     0.034 C 
HETATM   14  C2  UNL     1     -36.017   4.480  12.247  1.00  0.00     0.003 C 
HETATM   15  C1  UNL     1     -35.369   3.196  12.768  1.00  0.00     0.003 C 
HETATM   16  C10 UNL     1     -34.336   3.740  13.707  1.00  0.00     0.034 C 
ENDBRANCH  11  12
ENDBRANCH   1  11
TORSDOF 2
ENDMDL
MODEL 5
REMARK VINA RESULT: -5.402877211      2.377      5.753
REMARK  2 active torsions:
REMARK  status: ('A' for Active; 'I' for Inactive)
REMARK    1  A    between atoms: C4_4  and  O1_5 
REMARK    2  A    between atoms: O1_5  and  N1_6 
ROOT
HETATM    1  N1  UNL     1     -34.783   3.885  16.153  1.00  0.00    -0.275 N 
ATOM      2  H1  UNL     1     -33.825   3.605  15.944  1.00  0.00     0.193 HD
HETATM    3  C5  UNL     1     -35.514   4.382  15.247  1.00  0.00     0.013 C 
HETATM    4  C6  UNL     1     -35.074   4.600  13.843  1.00  0.00     0.082 C 
HETATM    5  C7  UNL     1     -36.349   4.882  13.040  1.00  0.00     0.238 C 
HETATM    6  N2  UNL     1     -37.005   6.072  13.486  1.00  0.00    -0.074 N 
ATOM      7  H21 UNL     1     -37.923   6.164  13.050  1.00  0.00     0.277 HD
ATOM      8  H22 UNL     1     -36.551   6.900  13.101  1.00  0.00     0.277 HD
HETATM    9  C8  UNL     1     -37.109   6.165  14.923  1.00  0.00     0.238 C 
HETATM   10  C9  UNL     1     -36.923   4.796  15.547  1.00  0.00     0.082 C 
ENDROOT
BRANCH   1  11
HETATM   11  O1  UNL     1     -35.290   3.728  17.417  1.00  0.00    -0.275 OA
BRANCH  11  12
HETATM   12  C4  UNL     1     -34.421   3.983  18.506  1.00  0.00     0.152 C 
HETATM   13  C3  UNL     1     -35.257   3.915  19.763  1.00  0.00     0.034 C 
HETATM   14  C2  UNL     1     -35.269   5.315  20.311  1.00  0.00     0.003 C 
HETATM   15  C1  UNL     1     -35.032   6.184  19.074  1.00  0.00     0.003 C 
HETATM   16  C10 UNL     1     -33.955   5.416  18.369  1.00  0.00     0.034 C 
ENDBRANCH  11  12
ENDBRANCH   1  11
TORSDOF 2
ENDMDL
