MODEL 1
REMARK VINA RESULT: -5.975195455      0.000      0.000
REMARK  3 active torsions:
REMARK  status: ('A' for Active; 'I' for Inactive)
REMARK    1  A    between atoms: C1_1  and  C5_13 
REMARK    2  A    between atoms: N1_2  and  N2_4 
REMARK    3  A    between atoms: N2_4  and  C2_6 
ROOT
HETATM    1  C1  UNL     1     -35.251   4.640  15.713  1.00  0.00     0.084 C 
HETATM    2  N1  UNL     1     -34.679   3.527  15.393  1.00  0.00    -0.313 N 
ATOM      3  H1  UNL     1     -34.497   2.842  16.127  1.00  0.00     0.185 HD
ENDROOT
BRANCH   2   4
HETATM    4  N2  UNL     1     -34.300   3.226  14.091  1.00  0.00    -0.272 N 
ATOM      5  H2  UNL     1     -33.371   2.846  13.911  1.00  0.00     0.190 HD
BRANCH   4   6
HETATM    6  C2  UNL     1     -35.191   3.442  13.009  1.00  0.00     0.190 C 
HETATM    7  N3  UNL     1     -35.081   4.370  12.097  1.00  0.00    -0.360 N 
HETATM    8  C3  UNL     1     -36.171   4.288  11.153  1.00  0.00     0.142 C 
ATOM      9  H3  UNL     1     -34.329   5.057  12.056  1.00  0.00     0.162 HD
HETATM   10  C4  UNL     1     -36.675   2.879  11.356  1.00  0.00     0.142 C 
HETATM   11  N4  UNL     1     -36.358   2.660  12.760  1.00  0.00    -0.360 N 
ATOM     12  H4  UNL     1     -36.864   2.073  13.424  1.00  0.00     0.162 HD
ENDBRANCH   4   6
ENDBRANCH   2   4
BRANCH   1  13
HETATM   13  C5  UNL     1     -35.609   4.855  17.117  1.00  0.00     0.025 C 
HETATM   14  C6  UNL     1     -35.650   6.313  17.509  1.00  0.00     0.010 C 
HETATM   15  C7  UNL     1     -35.393   6.501  18.968  1.00  0.00     0.001 C 
HETATM   16  C8  UNL     1     -35.875   5.369  19.822  1.00  0.00     0.000 C 
HETATM   17  C9  UNL     1     -35.398   4.025  19.386  1.00  0.00     0.001 C 
HETATM   18  C10 UNL     1     -34.630   4.179  18.080  1.00  0.00     0.010 C 
ENDBRANCH   1  13
TORSDOF 3
ENDMDL
MODEL 2
REMARK VINA RESULT: -5.960491281      1.700      6.342
REMARK  3 active torsions:
REMARK  status: ('A' for Active; 'I' for Inactive)
REMARK    1  A    between atoms: C1_1  and  C5_13 
REMARK    2  A    between atoms: N1_2  and  N2_4 
REMARK    3  A    between atoms: N2_4  and  C2_6 
ROOT
HETATM    1  C1  UNL     1     -34.900   4.381  12.803  1.00  0.00     0.084 C 
HETATM    2  N1  UNL     1     -35.472   5.312  13.492  1.00  0.00    -0.313 N 
ATOM      3  H1  UNL     1     -36.446   5.538  13.294  1.00  0.00     0.185 HD
ENDROOT
BRANCH   2   4
HETATM    4  N2  UNL     1     -34.813   6.017  14.492  1.00  0.00    -0.272 N 
ATOM      5  H2  UNL     1     -34.434   6.942  14.291  1.00  0.00     0.190 HD
BRANCH   4   6
HETATM    6  C2  UNL     1     -34.662   5.464  15.789  1.00  0.00     0.190 C 
HETATM    7  N3  UNL     1     -34.157   6.072  16.829  1.00  0.00    -0.360 N 
HETATM    8  C3  UNL     1     -34.162   5.200  17.981  1.00  0.00     0.142 C 
ATOM      9  H3  UNL     1     -33.807   7.030  16.828  1.00  0.00     0.162 HD
HETATM   10  C4  UNL     1     -35.185   4.158  17.598  1.00  0.00     0.142 C 
HETATM   11  N4  UNL     1     -35.048   4.138  16.148  1.00  0.00    -0.360 N 
ATOM     12  H4  UNL     1     -35.196   3.345  15.524  1.00  0.00     0.162 HD
ENDBRANCH   4   6
ENDBRANCH   2   4
BRANCH   1  13
HETATM   13  C5  UNL     1     -35.686   3.700  11.772  1.00  0.00     0.025 C 
HETATM   14  C6  UNL     1     -36.074   4.599  10.622  1.00  0.00     0.010 C 
HETATM   15  C7  UNL     1     -37.320   4.129   9.948  1.00  0.00     0.001 C 
HETATM   16  C8  UNL     1     -37.503   2.643   9.973  1.00  0.00     0.000 C 
HETATM   17  C9  UNL     1     -37.393   2.035  11.331  1.00  0.00     0.001 C 
HETATM   18  C10 UNL     1     -36.992   3.120  12.322  1.00  0.00     0.010 C 
ENDBRANCH   1  13
TORSDOF 3
ENDMDL
MODEL 3
REMARK VINA RESULT: -5.935755504      1.373      6.397
REMARK  3 active torsions:
REMARK  status: ('A' for Active; 'I' for Inactive)
REMARK    1  A    between atoms: C1_1  and  C5_13 
REMARK    2  A    between atoms: N1_2  and  N2_4 
REMARK    3  A    between atoms: N2_4  and  C2_6 
ROOT
HETATM    1  C1  UNL     1     -34.987   3.988  12.921  1.00  0.00     0.084 C 
HETATM    2  N1  UNL     1     -35.204   3.477  14.087  1.00  0.00    -0.313 N 
ATOM      3  H1  UNL     1     -35.917   2.753  14.178  1.00  0.00     0.185 HD
ENDROOT
BRANCH   2   4
HETATM    4  N2  UNL     1     -34.507   3.873  15.222  1.00  0.00    -0.272 N 
ATOM      5  H2  UNL     1     -33.488   3.916  15.198  1.00  0.00     0.190 HD
BRANCH   4   6
HETATM    6  C2  UNL     1     -35.196   4.219  16.411  1.00  0.00     0.190 C 
HETATM    7  N3  UNL     1     -34.670   4.317  17.603  1.00  0.00    -0.360 N 
HETATM    8  C3  UNL     1     -35.673   4.690  18.574  1.00  0.00     0.142 C 
ATOM      9  H3  UNL     1     -33.687   4.151  17.818  1.00  0.00     0.162 HD
HETATM   10  C4  UNL     1     -36.765   5.273  17.709  1.00  0.00     0.142 C 
HETATM   11  N4  UNL     1     -36.590   4.517  16.476  1.00  0.00    -0.360 N 
ATOM     12  H4  UNL     1     -37.311   4.256  15.803  1.00  0.00     0.162 HD
ENDBRANCH   4   6
ENDBRANCH   2   4
BRANCH   1  13
HETATM   13  C5  UNL     1     -35.779   3.497  11.792  1.00  0.00     0.025 C 
HETATM   14  C6  UNL     1     -35.968   4.524  10.699  1.00  0.00     0.010 C 
HETATM   15  C7  UNL     1     -37.213   4.274   9.915  1.00  0.00     0.001 C 
HETATM   16  C8  UNL     1     -37.584   2.827   9.805  1.00  0.00     0.000 C 
HETATM   17  C9  UNL     1     -37.648   2.110  11.111  1.00  0.00     0.001 C 
HETATM   18  C10 UNL     1     -37.183   3.054  12.211  1.00  0.00     0.010 C 
ENDBRANCH   1  13
TORSDOF 3
ENDMDL
MODEL 4
REMARK VINA RESULT: -5.882502561      1.446      6.613
REMARK  3 active torsions:
REMARK  status: ('A' for Active; 'I' for Inactive)
REMARK    1  A    between atoms: C1_1  and  C5_13 
REMARK    2  A    between atoms: N1_2  and  N2_4 
REMARK    3  A    between atoms: N2_4  and  C2_6 
ROOT
HETATM    1  C1  UNL     1     -35.159   3.923  13.462  1.00  0.00     0.084 C 
HETATM    2  N1  UNL     1     -35.573   3.914  14.686  1.00  0.00    -0.313 N 
ATOM      3  H1  UNL     1     -36.577   3.892  14.862  1.00  0.00     0.185 HD
ENDROOT
BRANCH   2   4
HETATM    4  N2  UNL     1     -34.704   3.932  15.771  1.00  0.00    -0.272 N 
ATOM      5  H2  UNL     1     -33.713   3.740  15.627  1.00  0.00     0.190 HD
BRANCH   4   6
HETATM    6  C2  UNL     1     -35.182   4.215  17.075  1.00  0.00     0.190 C 
HETATM    7  N3  UNL     1     -34.581   3.914  18.195  1.00  0.00    -0.360 N 
HETATM    8  C3  UNL     1     -35.361   4.356  19.328  1.00  0.00     0.142 C 
ATOM      9  H3  UNL     1     -33.684   3.433  18.261  1.00  0.00     0.162 HD
HETATM   10  C4  UNL     1     -36.273   5.390  18.712  1.00  0.00     0.142 C 
HETATM   11  N4  UNL     1     -36.412   4.881  17.355  1.00  0.00    -0.360 N 
ATOM     12  H4  UNL     1     -37.218   4.979  16.737  1.00  0.00     0.162 HD
ENDBRANCH   4   6
ENDBRANCH   2   4
BRANCH   1  13
HETATM   13  C5  UNL     1     -36.160   3.902  12.393  1.00  0.00     0.025 C 
HETATM   14  C6  UNL     1     -36.707   2.523  12.110  1.00  0.00     0.010 C 
HETATM   15  C7  UNL     1     -37.199   2.401  10.706  1.00  0.00     0.001 C 
HETATM   16  C8  UNL     1     -37.748   3.674  10.140  1.00  0.00     0.000 C 
HETATM   17  C9  UNL     1     -36.833   4.845  10.262  1.00  0.00     0.001 C 
HETATM   18  C10 UNL     1     -35.608   4.426  11.065  1.00  0.00     0.010 C 
ENDBRANCH   1  13
TORSDOF 3
ENDMDL
MODEL 5
REMARK VINA RESULT: -5.882040418      1.583      6.346
REMARK  3 active torsions:
REMARK  status: ('A' for Active; 'I' for Inactive)
REMARK    1  A    between atoms: C1_1  and  C5_13 
REMARK    2  A    between atoms: N1_2  and  N2_4 
REMARK    3  A    between atoms: N2_4  and  C2_6 
ROOT
HETATM    1  C1  UNL     1     -34.668   4.425  13.952  1.00  0.00     0.084 C 
HETATM    2  N1  UNL     1     -34.969   4.069  15.157  1.00  0.00    -0.313 N 
ATOM      3  H1  UNL     1     -35.676   3.346  15.291  1.00  0.00     0.185 HD
ENDROOT
BRANCH   2   4
HETATM    4  N2  UNL     1     -34.369   4.632  16.277  1.00  0.00    -0.272 N 
ATOM      5  H2  UNL     1     -33.513   5.177  16.170  1.00  0.00     0.190 HD
BRANCH   4   6
HETATM    6  C2  UNL     1     -34.933   4.456  17.565  1.00  0.00     0.190 C 
HETATM    7  N3  UNL     1     -34.384   3.817  18.563  1.00  0.00    -0.360 N 
HETATM    8  C3  UNL     1     -35.247   3.841  19.721  1.00  0.00     0.142 C 
ATOM      9  H3  UNL     1     -33.471   3.363  18.530  1.00  0.00     0.162 HD
HETATM   10  C4  UNL     1     -36.169   4.999  19.418  1.00  0.00     0.142 C 
HETATM   11  N4  UNL     1     -36.206   4.963  17.963  1.00  0.00    -0.360 N 
ATOM     12  H4  UNL     1     -36.978   5.241  17.357  1.00  0.00     0.162 HD
ENDBRANCH   4   6
ENDBRANCH   2   4
BRANCH   1  13
HETATM   13  C5  UNL     1     -35.362   3.767  12.843  1.00  0.00     0.025 C 
HETATM   14  C6  UNL     1     -35.229   4.504  11.530  1.00  0.00     0.010 C 
HETATM   15  C7  UNL     1     -36.375   4.218  10.618  1.00  0.00     0.001 C 
HETATM   16  C8  UNL     1     -36.953   2.846  10.776  1.00  0.00     0.000 C 
HETATM   17  C9  UNL     1     -37.314   2.490  12.179  1.00  0.00     0.001 C 
HETATM   18  C10 UNL     1     -36.863   3.616  13.100  1.00  0.00     0.010 C 
ENDBRANCH   1  13
TORSDOF 3
ENDMDL
