MODEL 1
REMARK VINA RESULT: -6.022590558      0.000      0.000
REMARK  2 active torsions:
REMARK  status: ('A' for Active; 'I' for Inactive)
REMARK    1  A    between atoms: C4_4  and  C5_5 
REMARK    2  A    between atoms: C6_12  and  C7_13 
ROOT
HETATM    1  C5  UNL     1     -34.775   4.953  14.223  1.00  0.00     0.082 A 
HETATM    2  N1  UNL     1     -33.533   4.521  14.361  1.00  0.00    -0.286 N 
ATOM      3  H1  UNL     1     -33.146   3.685  13.926  1.00  0.00     0.188 HD
HETATM    4  N2  UNL     1     -32.892   5.329  15.136  1.00  0.00    -0.242 N 
ATOM      5  H2  UNL     1     -31.914   5.233  15.410  1.00  0.00     0.208 HD
HETATM    6  N3  UNL     1     -33.723   6.330  15.530  1.00  0.00    -0.288 N 
ATOM      7  H3  UNL     1     -33.473   7.108  16.141  1.00  0.00     0.188 HD
HETATM    8  C6  UNL     1     -34.895   6.128  14.991  1.00  0.00     0.057 A 
ENDROOT
BRANCH   1   9
HETATM    9  C4  UNL     1     -35.849   4.405  13.376  1.00  0.00     0.238 C 
HETATM   10  C3  UNL     1     -35.474   3.003  12.938  1.00  0.00     0.039 C 
HETATM   11  C2  UNL     1     -36.553   2.406  12.077  1.00  0.00     0.004 C 
HETATM   12  C1  UNL     1     -36.763   3.235  10.842  1.00  0.00     0.027 C 
HETATM   13  C10 UNL     1     -35.883   4.456  10.939  1.00  0.00     0.233 C 
HETATM   14  N4  UNL     1     -36.045   5.199  12.164  1.00  0.00    -0.065 N 
ATOM     15  H42 UNL     1     -36.954   5.661  12.184  1.00  0.00     0.278 HD
ATOM     16  H41 UNL     1     -35.435   6.015  12.170  1.00  0.00     0.278 HD
ENDBRANCH   1   9
BRANCH   8  17
HETATM   17  C7  UNL     1     -36.162   6.830  15.248  1.00  0.00     0.039 A 
HETATM   18  C8  UNL     1     -36.512   7.732  16.371  1.00  0.00     0.011 A 
HETATM   19  C9  UNL     1     -36.700   6.323  16.677  1.00  0.00     0.011 A 
ENDBRANCH   8  17
TORSDOF 2
ENDMDL
MODEL 2
REMARK VINA RESULT: -5.736586282      2.722      5.185
REMARK  2 active torsions:
REMARK  status: ('A' for Active; 'I' for Inactive)
REMARK    1  A    between atoms: C4_4  and  C5_5 
REMARK    2  A    between atoms: C6_12  and  C7_13 
ROOT
HETATM    1  C5  UNL     1     -35.503   4.405  15.944  1.00  0.00     0.082 A 
HETATM    2  N1  UNL     1     -34.552   3.790  15.261  1.00  0.00    -0.286 N 
ATOM      3  H1  UNL     1     -33.638   3.524  15.627  1.00  0.00     0.188 HD
HETATM    4  N2  UNL     1     -34.968   3.582  14.058  1.00  0.00    -0.242 N 
ATOM      5  H2  UNL     1     -34.434   3.123  13.320  1.00  0.00     0.208 HD
HETATM    6  N3  UNL     1     -36.230   4.069  13.927  1.00  0.00    -0.288 N 
ATOM      7  H3  UNL     1     -36.799   4.033  13.081  1.00  0.00     0.188 HD
HETATM    8  C6  UNL     1     -36.591   4.590  15.069  1.00  0.00     0.057 A 
ENDROOT
BRANCH   1   9
HETATM    9  C4  UNL     1     -35.516   4.774  17.371  1.00  0.00     0.238 C 
HETATM   10  C3  UNL     1     -35.081   6.219  17.517  1.00  0.00     0.039 C 
HETATM   11  C2  UNL     1     -35.092   6.636  18.962  1.00  0.00     0.004 C 
HETATM   12  C1  UNL     1     -34.148   5.787  19.764  1.00  0.00     0.027 C 
HETATM   13  C10 UNL     1     -33.585   4.723  18.856  1.00  0.00     0.233 C 
HETATM   14  N4  UNL     1     -34.587   3.961  18.153  1.00  0.00    -0.065 N 
ATOM     15  H42 UNL     1     -35.096   3.359  18.799  1.00  0.00     0.278 HD
ATOM     16  H41 UNL     1     -34.149   3.253  17.564  1.00  0.00     0.278 HD
ENDBRANCH   1   9
BRANCH   8  17
HETATM   17  C7  UNL     1     -37.787   5.386  15.383  1.00  0.00     0.039 A 
HETATM   18  C8  UNL     1     -38.726   5.240  16.521  1.00  0.00     0.011 A 
HETATM   19  C9  UNL     1     -39.036   4.373  15.396  1.00  0.00     0.011 A 
ENDBRANCH   8  17
TORSDOF 2
ENDMDL
MODEL 3
REMARK VINA RESULT: -5.660131528      4.070      5.350
REMARK  2 active torsions:
REMARK  status: ('A' for Active; 'I' for Inactive)
REMARK    1  A    between atoms: C4_4  and  C5_5 
REMARK    2  A    between atoms: C6_12  and  C7_13 
ROOT
HETATM    1  C5  UNL     1     -34.981   5.230  18.679  1.00  0.00     0.082 A 
HETATM    2  N1  UNL     1     -36.249   5.197  19.048  1.00  0.00    -0.286 N 
ATOM      3  H1  UNL     1     -37.049   5.165  18.416  1.00  0.00     0.188 HD
HETATM    4  N2  UNL     1     -36.312   5.210  20.337  1.00  0.00    -0.242 N 
ATOM      5  H2  UNL     1     -37.171   5.190  20.886  1.00  0.00     0.208 HD
HETATM    6  N3  UNL     1     -35.053   5.254  20.848  1.00  0.00    -0.288 N 
ATOM      7  H3  UNL     1     -34.812   5.269  21.839  1.00  0.00     0.188 HD
HETATM    8  C6  UNL     1     -34.206   5.275  19.855  1.00  0.00     0.057 A 
ENDROOT
BRANCH   1   9
HETATM    9  C4  UNL     1     -34.417   5.152  17.319  1.00  0.00     0.238 C 
HETATM   10  C3  UNL     1     -34.633   6.475  16.611  1.00  0.00     0.039 C 
HETATM   11  C2  UNL     1     -34.061   6.437  15.221  1.00  0.00     0.004 C 
HETATM   12  C1  UNL     1     -34.725   5.364  14.406  1.00  0.00     0.027 C 
HETATM   13  C10 UNL     1     -35.675   4.611  15.303  1.00  0.00     0.233 C 
HETATM   14  N4  UNL     1     -35.072   4.120  16.517  1.00  0.00    -0.065 N 
ATOM     15  H42 UNL     1     -34.421   3.362  16.311  1.00  0.00     0.278 HD
ATOM     16  H41 UNL     1     -35.757   3.614  17.077  1.00  0.00     0.278 HD
ENDBRANCH   1   9
BRANCH   8  17
HETATM   17  C7  UNL     1     -32.752   5.493  19.886  1.00  0.00     0.039 A 
HETATM   18  C8  UNL     1     -31.850   5.571  21.061  1.00  0.00     0.011 A 
HETATM   19  C9  UNL     1     -32.496   6.833  20.738  1.00  0.00     0.011 A 
ENDBRANCH   8  17
TORSDOF 2
ENDMDL
MODEL 4
REMARK VINA RESULT: -5.621542413      1.782      2.137
REMARK  2 active torsions:
REMARK  status: ('A' for Active; 'I' for Inactive)
REMARK    1  A    between atoms: C4_4  and  C5_5 
REMARK    2  A    between atoms: C6_12  and  C7_13 
ROOT
HETATM    1  C5  UNL     1     -36.096   3.896  13.473  1.00  0.00     0.082 A 
HETATM    2  N1  UNL     1     -34.941   3.277  13.645  1.00  0.00    -0.286 N 
ATOM      3  H1  UNL     1     -34.474   2.690  12.954  1.00  0.00     0.188 HD
HETATM    4  N2  UNL     1     -34.498   3.537  14.829  1.00  0.00    -0.242 N 
ATOM      5  H2  UNL     1     -33.625   3.187  15.223  1.00  0.00     0.208 HD
HETATM    6  N3  UNL     1     -35.378   4.351  15.470  1.00  0.00    -0.288 N 
ATOM      7  H3  UNL     1     -35.274   4.714  16.418  1.00  0.00     0.188 HD
HETATM    8  C6  UNL     1     -36.380   4.588  14.667  1.00  0.00     0.057 A 
ENDROOT
BRANCH   1   9
HETATM    9  C4  UNL     1     -36.932   3.960  12.261  1.00  0.00     0.238 C 
HETATM   10  C3  UNL     1     -36.739   2.691  11.454  1.00  0.00     0.039 C 
HETATM   11  C2  UNL     1     -37.586   2.715  10.211  1.00  0.00     0.004 C 
HETATM   12  C1  UNL     1     -37.210   3.879   9.338  1.00  0.00     0.027 C 
HETATM   13  C10 UNL     1     -36.173   4.697  10.065  1.00  0.00     0.233 C 
HETATM   14  N4  UNL     1     -36.559   5.081  11.400  1.00  0.00    -0.065 N 
ATOM     15  H42 UNL     1     -37.308   5.772  11.371  1.00  0.00     0.278 HD
ATOM     16  H41 UNL     1     -35.825   5.638  11.838  1.00  0.00     0.278 HD
ENDBRANCH   1   9
BRANCH   8  17
HETATM   17  C7  UNL     1     -37.653   5.265  14.954  1.00  0.00     0.039 A 
HETATM   18  C8  UNL     1     -38.365   5.394  16.249  1.00  0.00     0.011 A 
HETATM   19  C9  UNL     1     -38.653   4.154  15.547  1.00  0.00     0.011 A 
ENDBRANCH   8  17
TORSDOF 2
ENDMDL
MODEL 5
REMARK VINA RESULT: -5.619718938      0.985      1.280
REMARK  2 active torsions:
REMARK  status: ('A' for Active; 'I' for Inactive)
REMARK    1  A    between atoms: C4_4  and  C5_5 
REMARK    2  A    between atoms: C6_12  and  C7_13 
ROOT
HETATM    1  C5  UNL     1     -35.264   4.286  13.547  1.00  0.00     0.082 A 
HETATM    2  N1  UNL     1     -34.031   3.822  13.447  1.00  0.00    -0.286 N 
ATOM      3  H1  UNL     1     -33.698   3.171  12.735  1.00  0.00     0.188 HD
HETATM    4  N2  UNL     1     -33.314   4.326  14.395  1.00  0.00    -0.242 N 
ATOM      5  H2  UNL     1     -32.325   4.136  14.551  1.00  0.00     0.208 HD
HETATM    6  N3  UNL     1     -34.086   5.149  15.152  1.00  0.00    -0.288 N 
ATOM      7  H3  UNL     1     -33.773   5.681  15.965  1.00  0.00     0.188 HD
HETATM    8  C6  UNL     1     -35.297   5.144  14.663  1.00  0.00     0.057 A 
ENDROOT
BRANCH   1   9
HETATM    9  C4  UNL     1     -36.408   4.055  12.647  1.00  0.00     0.238 C 
HETATM   10  C3  UNL     1     -36.310   2.661  12.061  1.00  0.00     0.039 C 
HETATM   11  C2  UNL     1     -37.469   2.384  11.143  1.00  0.00     0.004 C 
HETATM   12  C1  UNL     1     -37.483   3.363  10.003  1.00  0.00     0.027 C 
HETATM   13  C10 UNL     1     -36.381   4.366  10.229  1.00  0.00     0.233 C 
HETATM   14  N4  UNL     1     -36.417   4.994  11.527  1.00  0.00    -0.065 N 
ATOM     15  H42 UNL     1     -37.216   5.625  11.596  1.00  0.00     0.278 HD
ATOM     16  H41 UNL     1     -35.657   5.667  11.619  1.00  0.00     0.278 HD
ENDBRANCH   1   9
BRANCH   8  17
HETATM   17  C7  UNL     1     -36.522   5.734  15.225  1.00  0.00     0.039 A 
HETATM   18  C8  UNL     1     -37.387   6.795  14.655  1.00  0.00     0.011 A 
HETATM   19  C9  UNL     1     -36.249   7.310  15.398  1.00  0.00     0.011 A 
ENDBRANCH   8  17
TORSDOF 2
ENDMDL
