MODEL 1
REMARK VINA RESULT: -5.089747407      0.000      0.000
REMARK  3 active torsions:
REMARK  status: ('A' for Active; 'I' for Inactive)
REMARK    1  A    between atoms: C6_6  and  N1_7 
REMARK    2  A    between atoms: C7_9  and  C8_11 
REMARK    3  A    between atoms: C8_11  and  C9_12 
ROOT
HETATM    1  N1  UNL     1     -35.530   5.029  13.285  1.00  0.00    -0.377 N 
ATOM      2  H1  UNL     1     -36.170   5.816  13.394  1.00  0.00     0.160 HD
HETATM    3  C7  UNL     1     -34.476   4.908  14.051  1.00  0.00     0.090 C 
HETATM    4  N2  UNL     1     -33.577   3.823  13.914  1.00  0.00    -0.088 NA
ENDROOT
BRANCH   1   5
HETATM    5  C6  UNL     1     -35.756   4.034  12.297  1.00  0.00     0.086 C 
HETATM    6  C2  UNL     1     -36.926   3.125  12.594  1.00  0.00     0.004 C 
HETATM    7  C1  UNL     1     -38.216   3.851  12.763  1.00  0.00     0.012 C 
HETATM    8  C3  UNL     1     -36.955   2.321  11.284  1.00  0.00     0.006 C 
HETATM    9  C4  UNL     1     -36.889   3.463  10.278  1.00  0.00     0.002 C 
HETATM   10  C5  UNL     1     -36.091   4.561  10.936  1.00  0.00     0.025 C 
ENDBRANCH   1   5
BRANCH   3  11
HETATM   11  C8  UNL     1     -34.173   5.910  15.107  1.00  0.00     0.084 C 
BRANCH  11  12
HETATM   12  C9  UNL     1     -35.320   5.922  16.087  1.00  0.00     0.093 C 
HETATM   13  S1  UNL     1     -35.395   4.428  17.078  1.00  0.00    -0.097 SA
ENDBRANCH  11  12
ENDBRANCH   3  11
TORSDOF 3
ENDMDL
MODEL 2
REMARK VINA RESULT: -5.032637629      4.774      6.137
REMARK  3 active torsions:
REMARK  status: ('A' for Active; 'I' for Inactive)
REMARK    1  A    between atoms: C6_6  and  N1_7 
REMARK    2  A    between atoms: C7_9  and  C8_11 
REMARK    3  A    between atoms: C8_11  and  C9_12 
ROOT
HETATM    1  N1  UNL     1     -33.928   6.226  19.047  1.00  0.00    -0.377 N 
ATOM      2  H1  UNL     1     -34.353   7.129  19.256  1.00  0.00     0.160 HD
HETATM    3  C7  UNL     1     -33.145   5.634  19.911  1.00  0.00     0.090 C 
HETATM    4  N2  UNL     1     -32.547   4.380  19.635  1.00  0.00    -0.088 NA
ENDROOT
BRANCH   1   5
HETATM    5  C6  UNL     1     -34.170   5.575  17.807  1.00  0.00     0.086 C 
HETATM    6  C2  UNL     1     -35.529   4.921  17.710  1.00  0.00     0.004 C 
HETATM    7  C1  UNL     1     -36.662   5.866  17.917  1.00  0.00     0.012 C 
HETATM    8  C3  UNL     1     -35.488   4.480  16.238  1.00  0.00     0.006 C 
HETATM    9  C4  UNL     1     -35.027   5.781  15.592  1.00  0.00     0.002 C 
HETATM   10  C5  UNL     1     -34.156   6.474  16.610  1.00  0.00     0.025 C 
ENDBRANCH   1   5
BRANCH   3  11
HETATM   11  C8  UNL     1     -32.844   6.253  21.228  1.00  0.00     0.084 C 
BRANCH  11  12
HETATM   12  C9  UNL     1     -31.417   6.742  21.203  1.00  0.00     0.093 C 
HETATM   13  S1  UNL     1     -30.359   5.839  22.337  1.00  0.00    -0.097 SA
ENDBRANCH  11  12
ENDBRANCH   3  11
TORSDOF 3
ENDMDL
MODEL 3
REMARK VINA RESULT: -5.009655427      2.468      5.198
REMARK  3 active torsions:
REMARK  status: ('A' for Active; 'I' for Inactive)
REMARK    1  A    between atoms: C6_6  and  N1_7 
REMARK    2  A    between atoms: C7_9  and  C8_11 
REMARK    3  A    between atoms: C8_11  and  C9_12 
ROOT
HETATM    1  N1  UNL     1     -35.638   4.417  14.677  1.00  0.00    -0.377 N 
ATOM      2  H1  UNL     1     -36.658   4.416  14.666  1.00  0.00     0.160 HD
HETATM    3  C7  UNL     1     -34.953   3.865  13.710  1.00  0.00     0.090 C 
HETATM    4  N2  UNL     1     -33.537   3.858  13.712  1.00  0.00    -0.088 NA
ENDROOT
BRANCH   1   5
HETATM    5  C6  UNL     1     -34.921   5.019  15.746  1.00  0.00     0.086 C 
HETATM    6  C2  UNL     1     -34.861   6.528  15.677  1.00  0.00     0.004 C 
HETATM    7  C1  UNL     1     -36.203   7.176  15.653  1.00  0.00     0.012 C 
HETATM    8  C3  UNL     1     -34.176   6.811  17.023  1.00  0.00     0.006 C 
HETATM    9  C4  UNL     1     -35.038   5.950  17.939  1.00  0.00     0.002 C 
HETATM   10  C5  UNL     1     -35.498   4.779  17.107  1.00  0.00     0.025 C 
ENDBRANCH   1   5
BRANCH   3  11
HETATM   11  C8  UNL     1     -35.632   3.216  12.558  1.00  0.00     0.084 C 
BRANCH  11  12
HETATM   12  C9  UNL     1     -35.687   4.209  11.424  1.00  0.00     0.093 C 
HETATM   13  S1  UNL     1     -36.962   3.814  10.224  1.00  0.00    -0.097 SA
ENDBRANCH  11  12
ENDBRANCH   3  11
TORSDOF 3
ENDMDL
MODEL 4
REMARK VINA RESULT: -4.901939276      2.752      5.886
REMARK  3 active torsions:
REMARK  status: ('A' for Active; 'I' for Inactive)
REMARK    1  A    between atoms: C6_6  and  N1_7 
REMARK    2  A    between atoms: C7_9  and  C8_11 
REMARK    3  A    between atoms: C8_11  and  C9_12 
ROOT
HETATM    1  N1  UNL     1     -35.388   5.022  16.117  1.00  0.00    -0.377 N 
ATOM      2  H1  UNL     1     -36.406   4.996  16.189  1.00  0.00     0.160 HD
HETATM    3  C7  UNL     1     -34.796   5.025  14.951  1.00  0.00     0.090 C 
HETATM    4  N2  UNL     1     -33.385   5.060  14.833  1.00  0.00    -0.088 NA
ENDROOT
BRANCH   1   5
HETATM    5  C6  UNL     1     -34.575   5.053  17.281  1.00  0.00     0.086 C 
HETATM    6  C2  UNL     1     -34.594   6.376  18.011  1.00  0.00     0.004 C 
HETATM    7  C1  UNL     1     -35.956   6.801  18.438  1.00  0.00     0.012 C 
HETATM    8  C3  UNL     1     -33.763   5.991  19.245  1.00  0.00     0.006 C 
HETATM    9  C4  UNL     1     -34.466   4.696  19.636  1.00  0.00     0.002 C 
HETATM   10  C5  UNL     1     -34.970   4.085  18.353  1.00  0.00     0.025 C 
ENDBRANCH   1   5
BRANCH   3  11
HETATM   11  C8  UNL     1     -35.580   4.993  13.688  1.00  0.00     0.084 C 
BRANCH  11  12
HETATM   12  C9  UNL     1     -35.043   3.875  12.830  1.00  0.00     0.093 C 
HETATM   13  S1  UNL     1     -36.343   2.832  12.166  1.00  0.00    -0.097 SA
ENDBRANCH  11  12
ENDBRANCH   3  11
TORSDOF 3
ENDMDL
MODEL 5
REMARK VINA RESULT: -4.886824526      2.742      5.634
REMARK  3 active torsions:
REMARK  status: ('A' for Active; 'I' for Inactive)
REMARK    1  A    between atoms: C6_6  and  N1_7 
REMARK    2  A    between atoms: C7_9  and  C8_11 
REMARK    3  A    between atoms: C8_11  and  C9_12 
ROOT
HETATM    1  N1  UNL     1     -35.147   4.255  15.956  1.00  0.00    -0.377 N 
ATOM      2  H1  UNL     1     -35.919   3.589  15.914  1.00  0.00     0.160 HD
HETATM    3  C7  UNL     1     -34.428   4.518  14.896  1.00  0.00     0.090 C 
HETATM    4  N2  UNL     1     -33.353   5.440  14.937  1.00  0.00    -0.088 NA
ENDROOT
BRANCH   1   5
HETATM    5  C6  UNL     1     -34.824   4.922  17.168  1.00  0.00     0.086 C 
HETATM    6  C2  UNL     1     -35.807   6.000  17.560  1.00  0.00     0.004 C 
HETATM    7  C1  UNL     1     -37.204   5.506  17.712  1.00  0.00     0.012 C 
HETATM    8  C3  UNL     1     -35.237   6.367  18.938  1.00  0.00     0.006 C 
HETATM    9  C4  UNL     1     -35.090   4.974  19.537  1.00  0.00     0.002 C 
HETATM   10  C5  UNL     1     -34.800   4.047  18.383  1.00  0.00     0.025 C 
ENDBRANCH   1   5
BRANCH   3  11
HETATM   11  C8  UNL     1     -34.705   3.860  13.592  1.00  0.00     0.084 C 
BRANCH  11  12
HETATM   12  C9  UNL     1     -35.832   4.604  12.920  1.00  0.00     0.093 C 
HETATM   13  S1  UNL     1     -35.940   4.250  11.164  1.00  0.00    -0.097 SA
ENDBRANCH  11  12
ENDBRANCH   3  11
TORSDOF 3
ENDMDL
