MODEL 1
REMARK VINA RESULT: -5.682167575      0.000      0.000
REMARK  5 active torsions:
REMARK  status: ('A' for Active; 'I' for Inactive)
REMARK    1  A    between atoms: C2_2  and  C4_4 
REMARK    2  A    between atoms: C4_4  and  N1_5 
REMARK    3  A    between atoms: N1_5  and  C5_7 
REMARK    4  A    between atoms: C5_7  and  N2_9 
REMARK    5  A    between atoms: N2_9  and  C6_11 
ROOT
HETATM    1  N2  UNL     1      12.583  43.820  26.390  1.00  0.00    -0.312 N 
ATOM      2  H2  UNL     1      12.579  42.811  26.541  1.00  0.00     0.170 HD
ENDROOT
BRANCH   1   3
HETATM    3  C5  UNL     1      12.975  44.697  27.438  1.00  0.00     0.173 C 
HETATM    4  S1  UNL     1      14.209  45.712  27.104  1.00  0.00    -0.041 SA
BRANCH   3   5
HETATM    5  N1  UNL     1      12.366  44.725  28.704  1.00  0.00    -0.367 N 
ATOM      6  H1  UNL     1      11.395  44.422  28.774  1.00  0.00     0.161 HD
BRANCH   5   7
HETATM    7  C4  UNL     1      13.029  45.157  29.912  1.00  0.00     0.126 C 
BRANCH   7   8
HETATM    8  C2  UNL     1      13.080  44.093  30.963  1.00  0.00    -0.005 C 
HETATM    9  C1  UNL     1      13.607  44.569  32.276  1.00  0.00     0.011 C 
HETATM   10  C3  UNL     1      13.893  42.917  30.496  1.00  0.00     0.011 C 
ENDBRANCH   7   8
ENDBRANCH   5   7
ENDBRANCH   3   5
ENDBRANCH   1   3
BRANCH   1  11
HETATM   11  C6  UNL     1      12.224  44.316  25.226  1.00  0.00     0.168 A 
HETATM   12  N3  UNL     1      11.127  45.009  24.932  1.00  0.00    -0.331 N 
HETATM   13  C7  UNL     1      10.970  45.411  23.690  1.00  0.00     0.189 A 
ATOM     14  H3  UNL     1      10.431  45.222  25.646  1.00  0.00     0.168 HD
HETATM   15  N4  UNL     1      11.925  45.095  22.811  1.00  0.00    -0.320 N 
HETATM   16  S2  UNL     1      13.034  44.238  23.735  1.00  0.00     0.024 SA
ATOM     17  H4  UNL     1      11.970  45.321  21.817  1.00  0.00     0.175 HD
ENDBRANCH   1  11
TORSDOF 5
ENDMDL
MODEL 2
REMARK VINA RESULT: -5.619376945      1.822      2.194
REMARK  5 active torsions:
REMARK  status: ('A' for Active; 'I' for Inactive)
REMARK    1  A    between atoms: C2_2  and  C4_4 
REMARK    2  A    between atoms: C4_4  and  N1_5 
REMARK    3  A    between atoms: N1_5  and  C5_7 
REMARK    4  A    between atoms: C5_7  and  N2_9 
REMARK    5  A    between atoms: N2_9  and  C6_11 
ROOT
HETATM    1  N2  UNL     1      12.882  43.799  27.519  1.00  0.00    -0.312 N 
ATOM      2  H2  UNL     1      12.518  42.846  27.520  1.00  0.00     0.170 HD
ENDROOT
BRANCH   1   3
HETATM    3  C5  UNL     1      13.095  44.482  28.748  1.00  0.00     0.173 C 
HETATM    4  S1  UNL     1      12.111  45.749  29.048  1.00  0.00    -0.041 SA
BRANCH   3   5
HETATM    5  N1  UNL     1      14.082  44.123  29.681  1.00  0.00    -0.367 N 
ATOM      6  H1  UNL     1      14.927  44.693  29.726  1.00  0.00     0.161 HD
BRANCH   5   7
HETATM    7  C4  UNL     1      13.975  42.999  30.580  1.00  0.00     0.126 C 
BRANCH   7   8
HETATM    8  C2  UNL     1      14.310  43.348  31.996  1.00  0.00    -0.005 C 
HETATM    9  C1  UNL     1      13.725  44.645  32.451  1.00  0.00     0.011 C 
HETATM   10  C3  UNL     1      15.800  43.373  32.204  1.00  0.00     0.011 C 
ENDBRANCH   7   8
ENDBRANCH   5   7
ENDBRANCH   3   5
ENDBRANCH   1   3
BRANCH   1  11
HETATM   11  C6  UNL     1      13.156  44.402  26.383  1.00  0.00     0.168 A 
HETATM   12  N3  UNL     1      14.214  45.153  26.087  1.00  0.00    -0.331 N 
HETATM   13  C7  UNL     1      14.285  45.662  24.877  1.00  0.00     0.189 A 
ATOM     14  H3  UNL     1      14.946  45.328  26.776  1.00  0.00     0.168 HD
HETATM   15  N4  UNL     1      13.289  45.389  24.030  1.00  0.00    -0.320 N 
HETATM   16  S2  UNL     1      12.263  44.420  24.939  1.00  0.00     0.024 SA
ATOM     17  H4  UNL     1      13.179  45.695  23.063  1.00  0.00     0.175 HD
ENDBRANCH   1  11
TORSDOF 5
ENDMDL
MODEL 3
REMARK VINA RESULT: -5.577356987      1.544      1.866
REMARK  5 active torsions:
REMARK  status: ('A' for Active; 'I' for Inactive)
REMARK    1  A    between atoms: C2_2  and  C4_4 
REMARK    2  A    between atoms: C4_4  and  N1_5 
REMARK    3  A    between atoms: N1_5  and  C5_7 
REMARK    4  A    between atoms: C5_7  and  N2_9 
REMARK    5  A    between atoms: N2_9  and  C6_11 
ROOT
HETATM    1  N2  UNL     1      12.839  43.907  27.243  1.00  0.00    -0.312 N 
ATOM      2  H2  UNL     1      12.825  42.889  27.185  1.00  0.00     0.170 HD
ENDROOT
BRANCH   1   3
HETATM    3  C5  UNL     1      13.079  44.547  28.490  1.00  0.00     0.173 C 
HETATM    4  S1  UNL     1      12.040  45.737  28.900  1.00  0.00    -0.041 SA
BRANCH   3   5
HETATM    5  N1  UNL     1      14.134  44.208  29.354  1.00  0.00    -0.367 N 
ATOM      6  H1  UNL     1      15.049  44.625  29.177  1.00  0.00     0.161 HD
BRANCH   5   7
HETATM    7  C4  UNL     1      14.006  43.307  30.474  1.00  0.00     0.126 C 
BRANCH   7   8
HETATM    8  C2  UNL     1      14.632  43.837  31.726  1.00  0.00    -0.005 C 
HETATM    9  C1  UNL     1      15.186  42.776  32.618  1.00  0.00     0.011 C 
HETATM   10  C3  UNL     1      13.653  44.679  32.499  1.00  0.00     0.011 C 
ENDBRANCH   7   8
ENDBRANCH   5   7
ENDBRANCH   3   5
ENDBRANCH   1   3
BRANCH   1  11
HETATM   11  C6  UNL     1      12.636  44.635  26.166  1.00  0.00     0.168 A 
HETATM   12  N3  UNL     1      11.509  44.778  25.474  1.00  0.00    -0.331 N 
HETATM   13  C7  UNL     1      11.534  45.563  24.419  1.00  0.00     0.189 A 
ATOM     14  H3  UNL     1      10.655  44.295  25.752  1.00  0.00     0.168 HD
HETATM   15  N4  UNL     1      12.689  46.161  24.118  1.00  0.00    -0.320 N 
HETATM   16  S2  UNL     1      13.731  45.617  25.318  1.00  0.00     0.024 SA
ATOM     17  H4  UNL     1      12.890  46.796  23.346  1.00  0.00     0.175 HD
ENDBRANCH   1  11
TORSDOF 5
ENDMDL
MODEL 4
REMARK VINA RESULT: -5.526173740      1.881      2.357
REMARK  5 active torsions:
REMARK  status: ('A' for Active; 'I' for Inactive)
REMARK    1  A    between atoms: C2_2  and  C4_4 
REMARK    2  A    between atoms: C4_4  and  N1_5 
REMARK    3  A    between atoms: N1_5  and  C5_7 
REMARK    4  A    between atoms: C5_7  and  N2_9 
REMARK    5  A    between atoms: N2_9  and  C6_11 
ROOT
HETATM    1  N2  UNL     1      12.823  43.908  27.287  1.00  0.00    -0.312 N 
ATOM      2  H2  UNL     1      12.338  43.022  27.152  1.00  0.00     0.170 HD
ENDROOT
BRANCH   1   3
HETATM    3  C5  UNL     1      13.085  44.386  28.600  1.00  0.00     0.173 C 
HETATM    4  S1  UNL     1      12.178  45.647  29.102  1.00  0.00    -0.041 SA
BRANCH   3   5
HETATM    5  N1  UNL     1      14.058  43.837  29.453  1.00  0.00    -0.367 N 
ATOM      6  H1  UNL     1      15.028  43.845  29.139  1.00  0.00     0.161 HD
BRANCH   5   7
HETATM    7  C4  UNL     1      13.769  43.261  30.745  1.00  0.00     0.126 C 
BRANCH   7   8
HETATM    8  C2  UNL     1      14.563  43.881  31.852  1.00  0.00    -0.005 C 
HETATM    9  C1  UNL     1      15.245  42.887  32.732  1.00  0.00     0.011 C 
HETATM   10  C3  UNL     1      13.699  44.781  32.692  1.00  0.00     0.011 C 
ENDBRANCH   7   8
ENDBRANCH   5   7
ENDBRANCH   3   5
ENDBRANCH   1   3
BRANCH   1  11
HETATM   11  C6  UNL     1      13.210  44.616  26.248  1.00  0.00     0.168 A 
HETATM   12  N3  UNL     1      14.383  45.212  26.052  1.00  0.00    -0.331 N 
HETATM   13  C7  UNL     1      14.554  45.873  24.928  1.00  0.00     0.189 A 
ATOM     14  H3  UNL     1      15.125  45.158  26.749  1.00  0.00     0.168 HD
HETATM   15  N4  UNL     1      13.537  45.899  24.062  1.00  0.00    -0.320 N 
HETATM   16  S2  UNL     1      12.350  44.995  24.833  1.00  0.00     0.024 SA
ATOM     17  H4  UNL     1      13.492  46.358  23.153  1.00  0.00     0.175 HD
ENDBRANCH   1  11
TORSDOF 5
ENDMDL
MODEL 5
REMARK VINA RESULT: -5.517245303      1.176      1.445
REMARK  5 active torsions:
REMARK  status: ('A' for Active; 'I' for Inactive)
REMARK    1  A    between atoms: C2_2  and  C4_4 
REMARK    2  A    between atoms: C4_4  and  N1_5 
REMARK    3  A    between atoms: N1_5  and  C5_7 
REMARK    4  A    between atoms: C5_7  and  N2_9 
REMARK    5  A    between atoms: N2_9  and  C6_11 
ROOT
HETATM    1  N2  UNL     1      13.546  44.488  26.361  1.00  0.00    -0.312 N 
ATOM      2  H2  UNL     1      14.539  44.291  26.236  1.00  0.00     0.170 HD
ENDROOT
BRANCH   1   3
HETATM    3  C5  UNL     1      12.973  44.469  27.662  1.00  0.00     0.173 C 
HETATM    4  S1  UNL     1      12.221  45.837  28.138  1.00  0.00    -0.041 SA
BRANCH   3   5
HETATM    5  N1  UNL     1      13.024  43.359  28.524  1.00  0.00    -0.367 N 
ATOM      6  H1  UNL     1      13.341  42.469  28.139  1.00  0.00     0.161 HD
BRANCH   5   7
HETATM    7  C4  UNL     1      12.658  43.401  29.919  1.00  0.00     0.126 C 
BRANCH   7   8
HETATM    8  C2  UNL     1      13.774  43.860  30.804  1.00  0.00    -0.005 C 
HETATM    9  C1  UNL     1      14.440  42.756  31.556  1.00  0.00     0.011 C 
HETATM   10  C3  UNL     1      13.294  44.906  31.773  1.00  0.00     0.011 C 
ENDBRANCH   7   8
ENDBRANCH   5   7
ENDBRANCH   3   5
ENDBRANCH   1   3
BRANCH   1  11
HETATM   11  C6  UNL     1      12.789  44.760  25.320  1.00  0.00     0.168 A 
HETATM   12  N3  UNL     1      11.533  44.381  25.098  1.00  0.00    -0.331 N 
HETATM   13  C7  UNL     1      10.964  44.771  23.978  1.00  0.00     0.189 A 
ATOM     14  H3  UNL     1      11.028  43.806  25.773  1.00  0.00     0.168 HD
HETATM   15  N4  UNL     1      11.688  45.522  23.144  1.00  0.00    -0.320 N 
HETATM   16  S2  UNL     1      13.160  45.673  23.938  1.00  0.00     0.024 SA
ATOM     17  H4  UNL     1      11.413  45.910  22.242  1.00  0.00     0.175 HD
ENDBRANCH   1  11
TORSDOF 5
ENDMDL
