MODEL 1
REMARK VINA RESULT: -6.738996614      0.000      0.000
REMARK  3 active torsions:
REMARK  status: ('A' for Active; 'I' for Inactive)
REMARK    1  A    between atoms: C2_2  and  C4_10 
REMARK    2  A    between atoms: N1_3  and  N2_5 
REMARK    3  A    between atoms: N2_5  and  C3_7 
ROOT
HETATM    1  C1  UNL     1      16.492  47.081  25.302  1.00  0.00     0.068 C 
HETATM    2  C2  UNL     1      15.738  46.055  24.550  1.00  0.00     0.029 C 
HETATM    3  N1  UNL     1      16.140  45.733  23.373  1.00  0.00    -0.305 N 
ATOM      4  H1  UNL     1      15.614  45.024  22.860  1.00  0.00     0.186 HD
ENDROOT
BRANCH   2   5
HETATM    5  C4  UNL     1      14.544  45.413  25.145  1.00  0.00     0.172 C 
HETATM    6  O1  UNL     1      14.042  46.277  26.115  1.00  0.00    -0.380 OA
HETATM    7  C5  UNL     1      13.079  45.679  26.905  1.00  0.00     0.169 C 
HETATM    8  C6  UNL     1      11.733  45.938  26.283  1.00  0.00     0.031 C 
HETATM    9  C7  UNL     1      11.600  45.410  24.895  1.00  0.00    -0.012 C 
HETATM   10  C8  UNL     1      12.489  46.201  23.939  1.00  0.00     0.012 C 
HETATM   11  C10 UNL     1      12.437  44.210  24.603  1.00  0.00     0.012 C 
HETATM   12  C9  UNL     1      13.514  45.131  24.075  1.00  0.00     0.021 C 
ENDBRANCH   2   5
BRANCH   3  13
HETATM   13  N2  UNL     1      17.243  46.294  22.765  1.00  0.00    -0.279 N 
ATOM     14  H2  UNL     1      17.549  47.216  23.074  1.00  0.00     0.189 HD
BRANCH  13  15
HETATM   15  C3  UNL     1      17.972  45.653  21.735  1.00  0.00     0.199 C 
HETATM   16  N3  UNL     1      17.317  44.716  20.871  1.00  0.00    -0.068 NA
HETATM   17  S1  UNL     1      19.544  45.949  21.500  1.00  0.00    -0.043 SA
ENDBRANCH  13  15
ENDBRANCH   3  13
TORSDOF 3
ENDMDL
MODEL 2
REMARK VINA RESULT: -6.660245576      4.875      6.505
REMARK  3 active torsions:
REMARK  status: ('A' for Active; 'I' for Inactive)
REMARK    1  A    between atoms: C2_2  and  C4_10 
REMARK    2  A    between atoms: N1_3  and  N2_5 
REMARK    3  A    between atoms: N2_5  and  C3_7 
ROOT
HETATM    1  C1  UNL     1      11.824  45.848  28.875  1.00  0.00     0.068 C 
HETATM    2  C2  UNL     1      13.093  45.099  28.988  1.00  0.00     0.029 C 
HETATM    3  N1  UNL     1      13.446  44.333  28.019  1.00  0.00    -0.305 N 
ATOM      4  H1  UNL     1      14.323  43.818  28.104  1.00  0.00     0.186 HD
ENDROOT
BRANCH   2   5
HETATM    5  C4  UNL     1      13.939  45.231  30.196  1.00  0.00     0.172 C 
HETATM    6  O1  UNL     1      13.095  45.477  31.275  1.00  0.00    -0.380 OA
HETATM    7  C5  UNL     1      13.787  45.862  32.408  1.00  0.00     0.169 C 
HETATM    8  C6  UNL     1      14.101  44.627  33.209  1.00  0.00     0.031 C 
HETATM    9  C7  UNL     1      14.922  43.623  32.472  1.00  0.00    -0.012 C 
HETATM   10  C8  UNL     1      14.109  43.003  31.340  1.00  0.00     0.012 C 
HETATM   11  C10 UNL     1      15.830  44.201  31.440  1.00  0.00     0.012 C 
HETATM   12  C9  UNL     1      14.749  43.971  30.408  1.00  0.00     0.021 C 
ENDBRANCH   2   5
BRANCH   3  13
HETATM   13  N2  UNL     1      12.702  44.168  26.869  1.00  0.00    -0.279 N 
ATOM     14  H2  UNL     1      11.777  43.747  26.948  1.00  0.00     0.189 HD
BRANCH  13  15
HETATM   15  C3  UNL     1      13.159  44.555  25.587  1.00  0.00     0.199 C 
HETATM   16  N3  UNL     1      12.668  43.884  24.420  1.00  0.00    -0.068 NA
HETATM   17  S1  UNL     1      14.235  45.747  25.395  1.00  0.00    -0.043 SA
ENDBRANCH  13  15
ENDBRANCH   3  13
TORSDOF 3
ENDMDL
MODEL 3
REMARK VINA RESULT: -6.652027098      4.545      6.139
REMARK  3 active torsions:
REMARK  status: ('A' for Active; 'I' for Inactive)
REMARK    1  A    between atoms: C2_2  and  C4_10 
REMARK    2  A    between atoms: N1_3  and  N2_5 
REMARK    3  A    between atoms: N2_5  and  C3_7 
ROOT
HETATM    1  C1  UNL     1      11.565  46.007  28.485  1.00  0.00     0.068 C 
HETATM    2  C2  UNL     1      12.573  45.026  28.031  1.00  0.00     0.029 C 
HETATM    3  N1  UNL     1      12.501  44.578  26.828  1.00  0.00    -0.305 N 
ATOM      4  H1  UNL     1      13.201  43.901  26.522  1.00  0.00     0.186 HD
ENDROOT
BRANCH   2   5
HETATM    5  C4  UNL     1      13.644  44.569  28.946  1.00  0.00     0.172 C 
HETATM    6  O1  UNL     1      14.287  45.702  29.438  1.00  0.00    -0.380 OA
HETATM    7  C5  UNL     1      15.456  45.395  30.106  1.00  0.00     0.169 C 
HETATM    8  C6  UNL     1      15.131  45.208  31.564  1.00  0.00     0.031 C 
HETATM    9  C7  UNL     1      14.139  44.125  31.825  1.00  0.00    -0.012 C 
HETATM   10  C8  UNL     1      12.765  44.527  31.297  1.00  0.00     0.012 C 
HETATM   11  C10 UNL     1      14.148  43.020  30.824  1.00  0.00     0.012 C 
HETATM   12  C9  UNL     1      13.055  43.741  30.067  1.00  0.00     0.021 C 
ENDBRANCH   2   5
BRANCH   3  13
HETATM   13  N2  UNL     1      11.530  44.965  25.929  1.00  0.00    -0.279 N 
ATOM     14  H2  UNL     1      10.736  45.502  26.276  1.00  0.00     0.189 HD
BRANCH  13  15
HETATM   15  C3  UNL     1      11.580  44.652  24.550  1.00  0.00     0.199 C 
HETATM   16  N3  UNL     1      10.392  44.738  23.753  1.00  0.00    -0.068 NA
HETATM   17  S1  UNL     1      12.956  44.195  23.835  1.00  0.00    -0.043 SA
ENDBRANCH  13  15
ENDBRANCH   3  13
TORSDOF 3
ENDMDL
MODEL 4
REMARK VINA RESULT: -6.476098625      4.439      5.733
REMARK  3 active torsions:
REMARK  status: ('A' for Active; 'I' for Inactive)
REMARK    1  A    between atoms: C2_2  and  C4_10 
REMARK    2  A    between atoms: N1_3  and  N2_5 
REMARK    3  A    between atoms: N2_5  and  C3_7 
ROOT
HETATM    1  C1  UNL     1      11.778  45.918  28.189  1.00  0.00     0.068 C 
HETATM    2  C2  UNL     1      13.009  45.613  27.431  1.00  0.00     0.029 C 
HETATM    3  N1  UNL     1      13.987  45.046  28.043  1.00  0.00    -0.305 N 
ATOM      4  H1  UNL     1      14.833  44.839  27.513  1.00  0.00     0.186 HD
ENDROOT
BRANCH   2   5
HETATM    5  C4  UNL     1      13.111  45.955  25.994  1.00  0.00     0.172 C 
HETATM    6  O1  UNL     1      14.195  45.254  25.472  1.00  0.00    -0.380 OA
HETATM    7  C5  UNL     1      14.538  45.682  24.204  1.00  0.00     0.169 C 
HETATM    8  C6  UNL     1      13.787  44.842  23.205  1.00  0.00     0.031 C 
HETATM    9  C7  UNL     1      12.304  44.920  23.346  1.00  0.00    -0.012 C 
HETATM   10  C8  UNL     1      11.860  44.249  24.643  1.00  0.00     0.012 C 
HETATM   11  C10 UNL     1      11.799  46.211  23.897  1.00  0.00     0.012 C 
HETATM   12  C9  UNL     1      11.829  45.594  25.278  1.00  0.00     0.021 C 
ENDBRANCH   2   5
BRANCH   3  13
HETATM   13  N2  UNL     1      13.952  44.703  29.378  1.00  0.00    -0.279 N 
ATOM     14  H2  UNL     1      14.167  45.423  30.068  1.00  0.00     0.189 HD
BRANCH  13  15
HETATM   15  C3  UNL     1      13.633  43.403  29.838  1.00  0.00     0.199 C 
HETATM   16  N3  UNL     1      12.808  42.545  29.040  1.00  0.00    -0.068 NA
HETATM   17  S1  UNL     1      14.177  42.850  31.256  1.00  0.00    -0.043 SA
ENDBRANCH  13  15
ENDBRANCH   3  13
TORSDOF 3
ENDMDL
MODEL 5
REMARK VINA RESULT: -6.396791449      5.039      6.695
REMARK  3 active torsions:
REMARK  status: ('A' for Active; 'I' for Inactive)
REMARK    1  A    between atoms: C2_2  and  C4_10 
REMARK    2  A    between atoms: N1_3  and  N2_5 
REMARK    3  A    between atoms: N2_5  and  C3_7 
ROOT
HETATM    1  C1  UNL     1      11.980  45.924  29.110  1.00  0.00     0.068 C 
HETATM    2  C2  UNL     1      13.432  45.650  29.083  1.00  0.00     0.029 C 
HETATM    3  N1  UNL     1      14.005  45.469  27.947  1.00  0.00    -0.305 N 
ATOM      4  H1  UNL     1      15.008  45.280  27.937  1.00  0.00     0.186 HD
ENDROOT
BRANCH   2   5
HETATM    5  C4  UNL     1      14.208  45.585  30.342  1.00  0.00     0.172 C 
HETATM    6  O1  UNL     1      13.345  45.913  31.385  1.00  0.00    -0.380 OA
HETATM    7  C5  UNL     1      14.014  46.126  32.575  1.00  0.00     0.169 C 
HETATM    8  C6  UNL     1      14.075  44.819  33.320  1.00  0.00     0.031 C 
HETATM    9  C7  UNL     1      14.772  43.732  32.574  1.00  0.00    -0.012 C 
HETATM   10  C8  UNL     1      13.946  43.307  31.364  1.00  0.00     0.012 C 
HETATM   11  C10 UNL     1      15.826  44.203  31.629  1.00  0.00     0.012 C 
HETATM   12  C9  UNL     1      14.791  44.201  30.527  1.00  0.00     0.021 C 
ENDBRANCH   2   5
BRANCH   3  13
HETATM   13  N2  UNL     1      13.338  45.517  26.742  1.00  0.00    -0.279 N 
ATOM     14  H2  UNL     1      13.174  46.429  26.315  1.00  0.00     0.189 HD
BRANCH  13  15
HETATM   15  C3  UNL     1      12.869  44.364  26.067  1.00  0.00     0.199 C 
HETATM   16  N3  UNL     1      12.560  43.177  26.808  1.00  0.00    -0.068 NA
HETATM   17  S1  UNL     1      12.669  44.346  24.462  1.00  0.00    -0.043 SA
ENDBRANCH  13  15
ENDBRANCH   3  13
TORSDOF 3
ENDMDL
