MODEL 1
REMARK VINA RESULT: -9.816754585      0.000      0.000
REMARK  8 active torsions:
REMARK  status: ('A' for Active; 'I' for Inactive)
REMARK    1  A    between atoms: N1_1  and  C1_5 
REMARK       I    between atoms: N2_8  and  C4_9 
REMARK    2  A    between atoms: C4_9  and  C5_11 
REMARK    3  A    between atoms: C5_11  and  N3_12 
REMARK       I    between atoms: N3_12  and  C6_14 
REMARK    4  A    between atoms: C6_14  and  C7_16 
REMARK    5  A    between atoms: C13_22  and  C14_23 
REMARK       I    between atoms: C14_23  and  N4_25 
REMARK    6  A    between atoms: N4_25  and  C15_27 
REMARK    7  A    between atoms: C15_27  and  C16_28 
REMARK    8  A    between atoms: C16_28  and  C17_29 
ROOT
HETATM    1  C7  UNL     1      23.291  11.939  18.923  1.00  0.00     0.176 C 
HETATM    2  C8  UNL     1      24.304  11.340  19.820  1.00  0.00     0.035 C 
HETATM    3  C9  UNL     1      24.136  11.391  21.267  1.00  0.00     0.007 C 
HETATM    4  C10 UNL     1      22.898  11.862  21.894  1.00  0.00    -0.010 C 
HETATM    5  C11 UNL     1      21.759  10.928  22.024  1.00  0.00     0.007 C 
HETATM    6  C12 UNL     1      21.350  10.103  20.889  1.00  0.00     0.035 C 
HETATM    7  C13 UNL     1      21.418  10.697  19.523  1.00  0.00     0.176 C 
HETATM    8  N5  UNL     1      21.966  11.987  19.414  1.00  0.00    -0.367 N 
HETATM    9  C24 UNL     1      21.522  13.008  20.234  1.00  0.00     0.060 C 
HETATM   10  C25 UNL     1      22.449  13.244  21.395  1.00  0.00     0.049 C 
ENDROOT
BRANCH   1  11
HETATM   11  C6  UNL     1      23.796  13.191  18.320  1.00  0.00     0.240 C 
HETATM   12  N3  UNL     1      23.173  13.666  17.144  1.00  0.00    -0.351 N 
ATOM     13  H3  UNL     1      22.402  13.118  16.762  1.00  0.00     0.163 HD
HETATM   14  O2  UNL     1      24.745  13.873  18.774  1.00  0.00    -0.271 OA
BRANCH  12  15
HETATM   15  C5  UNL     1      23.552  14.873  16.444  1.00  0.00     0.225 C 
BRANCH  15  16
HETATM   16  C4  UNL     1      22.412  15.729  16.118  1.00  0.00     0.237 C 
HETATM   17  N2  UNL     1      21.902  16.649  17.059  1.00  0.00    -0.351 N 
HETATM   18  C3  UNL     1      22.518  16.741  18.362  1.00  0.00     0.128 C 
HETATM   19  C26 UNL     1      20.788  17.487  16.743  1.00  0.00     0.128 C 
HETATM   20  C2  UNL     1      22.508  18.225  18.719  1.00  0.00     0.052 C 
HETATM   21  C1  UNL     1      21.074  18.614  18.976  1.00  0.00     0.186 C 
HETATM   22  C27 UNL     1      20.119  18.037  17.985  1.00  0.00     0.052 C 
HETATM   23  O1  UNL     1      21.877  15.650  14.988  1.00  0.00    -0.272 OA
BRANCH  21  24
HETATM   24  N1  UNL     1      20.670  18.202  20.304  1.00  0.00    -0.075 N 
ATOM     25  H13 UNL     1      19.764  17.734  20.299  1.00  0.00     0.274 HD
ATOM     26  H12 UNL     1      21.237  17.428  20.651  1.00  0.00     0.274 HD
ATOM     27  H11 UNL     1      20.683  18.998  20.942  1.00  0.00     0.274 HD
ENDBRANCH  21  24
ENDBRANCH  15  16
ENDBRANCH  12  15
ENDBRANCH   1  11
BRANCH   7  28
HETATM   28  C14 UNL     1      20.121  10.634  18.800  1.00  0.00     0.240 C 
HETATM   29  O3  UNL     1      20.074  10.988  17.580  1.00  0.00    -0.271 OA
HETATM   30  N4  UNL     1      18.930  10.188  19.432  1.00  0.00    -0.359 N 
ATOM     31  H4  UNL     1      18.947   9.899  20.410  1.00  0.00     0.162 HD
BRANCH  30  32
HETATM   32  C15 UNL     1      17.677  10.143  18.673  1.00  0.00     0.123 C 
BRANCH  32  33
HETATM   33  C16 UNL     1      16.610   9.553  19.552  1.00  0.00     0.024 C 
BRANCH  33  34
HETATM   34  C17 UNL     1      15.236   9.626  18.992  1.00  0.00    -0.013 C 
HETATM   35  C18 UNL     1      15.100   8.797  17.761  1.00  0.00     0.005 C 
HETATM   36  C19 UNL     1      14.261   9.527  16.728  1.00  0.00     0.000 C 
HETATM   37  C20 UNL     1      12.803   9.211  17.055  1.00  0.00     0.000 C 
HETATM   38  C21 UNL     1      12.454   9.812  18.416  1.00  0.00     0.000 C 
HETATM   39  C22 UNL     1      12.895   8.848  19.468  1.00  0.00     0.000 C 
HETATM   40  C23 UNL     1      14.257   9.120  20.026  1.00  0.00     0.005 C 
ENDBRANCH  33  34
ENDBRANCH  32  33
ENDBRANCH  30  32
ENDBRANCH   7  28
TORSDOF 8
ENDMDL
MODEL 2
REMARK VINA RESULT: -9.630196917      1.307      1.910
REMARK  8 active torsions:
REMARK  status: ('A' for Active; 'I' for Inactive)
REMARK    1  A    between atoms: N1_1  and  C1_5 
REMARK       I    between atoms: N2_8  and  C4_9 
REMARK    2  A    between atoms: C4_9  and  C5_11 
REMARK    3  A    between atoms: C5_11  and  N3_12 
REMARK       I    between atoms: N3_12  and  C6_14 
REMARK    4  A    between atoms: C6_14  and  C7_16 
REMARK    5  A    between atoms: C13_22  and  C14_23 
REMARK       I    between atoms: C14_23  and  N4_25 
REMARK    6  A    between atoms: N4_25  and  C15_27 
REMARK    7  A    between atoms: C15_27  and  C16_28 
REMARK    8  A    between atoms: C16_28  and  C17_29 
ROOT
HETATM    1  C7  UNL     1      23.253  11.915  18.944  1.00  0.00     0.176 C 
HETATM    2  C8  UNL     1      24.273  11.347  19.854  1.00  0.00     0.035 C 
HETATM    3  C9  UNL     1      24.105  11.431  21.300  1.00  0.00     0.007 C 
HETATM    4  C10 UNL     1      22.863  11.907  21.916  1.00  0.00    -0.010 C 
HETATM    5  C11 UNL     1      21.732  10.967  22.070  1.00  0.00     0.007 C 
HETATM    6  C12 UNL     1      21.329  10.112  20.955  1.00  0.00     0.035 C 
HETATM    7  C13 UNL     1      21.392  10.673  19.575  1.00  0.00     0.176 C 
HETATM    8  N5  UNL     1      21.929  11.964  19.435  1.00  0.00    -0.367 N 
HETATM    9  C24 UNL     1      21.477  13.001  20.230  1.00  0.00     0.060 C 
HETATM   10  C25 UNL     1      22.403  13.273  21.384  1.00  0.00     0.049 C 
ENDROOT
BRANCH   1  11
HETATM   11  C6  UNL     1      23.748  13.156  18.310  1.00  0.00     0.240 C 
HETATM   12  N3  UNL     1      23.111  13.605  17.131  1.00  0.00    -0.351 N 
ATOM     13  H3  UNL     1      22.338  13.047  16.769  1.00  0.00     0.163 HD
HETATM   14  O2  UNL     1      24.699  13.851  18.740  1.00  0.00    -0.271 OA
BRANCH  12  15
HETATM   15  C5  UNL     1      23.478  14.799  16.403  1.00  0.00     0.225 C 
BRANCH  15  16
HETATM   16  C4  UNL     1      22.652  15.956  16.744  1.00  0.00     0.237 C 
HETATM   17  N2  UNL     1      21.270  15.972  16.460  1.00  0.00    -0.351 N 
HETATM   18  C3  UNL     1      20.668  14.825  15.821  1.00  0.00     0.128 C 
HETATM   19  C26 UNL     1      20.461  17.101  16.793  1.00  0.00     0.128 C 
HETATM   20  C2  UNL     1      19.298  14.662  16.473  1.00  0.00     0.052 C 
HETATM   21  C1  UNL     1      18.442  15.815  16.013  1.00  0.00     0.186 C 
HETATM   22  C27 UNL     1      19.163  17.121  16.012  1.00  0.00     0.052 C 
HETATM   23  O1  UNL     1      23.174  16.952  17.299  1.00  0.00    -0.272 OA
BRANCH  21  24
HETATM   24  N1  UNL     1      17.935  15.565  14.679  1.00  0.00    -0.075 N 
ATOM     25  H13 UNL     1      17.526  16.402  14.264  1.00  0.00     0.274 HD
ATOM     26  H12 UNL     1      18.688  15.416  14.008  1.00  0.00     0.274 HD
ATOM     27  H11 UNL     1      17.276  14.786  14.691  1.00  0.00     0.274 HD
ENDBRANCH  21  24
ENDBRANCH  15  16
ENDBRANCH  12  15
ENDBRANCH   1  11
BRANCH   7  28
HETATM   28  C14 UNL     1      20.094  10.582  18.855  1.00  0.00     0.240 C 
HETATM   29  O3  UNL     1      20.022  10.994  17.655  1.00  0.00    -0.271 OA
HETATM   30  N4  UNL     1      18.931  10.046  19.469  1.00  0.00    -0.359 N 
ATOM     31  H4  UNL     1      18.968   9.710  20.431  1.00  0.00     0.162 HD
BRANCH  30  32
HETATM   32  C15 UNL     1      17.677   9.978  18.714  1.00  0.00     0.123 C 
BRANCH  32  33
HETATM   33  C16 UNL     1      16.573   9.595  19.660  1.00  0.00     0.024 C 
BRANCH  33  34
HETATM   34  C17 UNL     1      15.210   9.640  19.071  1.00  0.00    -0.013 C 
HETATM   35  C18 UNL     1      15.120   8.819  17.830  1.00  0.00     0.005 C 
HETATM   36  C19 UNL     1      14.285   9.539  16.787  1.00  0.00     0.000 C 
HETATM   37  C20 UNL     1      12.828   9.185  17.080  1.00  0.00     0.000 C 
HETATM   38  C21 UNL     1      12.437   9.764  18.439  1.00  0.00     0.000 C 
HETATM   39  C22 UNL     1      12.879   8.801  19.491  1.00  0.00     0.000 C 
HETATM   40  C23 UNL     1      14.222   9.100  20.080  1.00  0.00     0.005 C 
ENDBRANCH  33  34
ENDBRANCH  32  33
ENDBRANCH  30  32
ENDBRANCH   7  28
TORSDOF 8
ENDMDL
MODEL 3
REMARK VINA RESULT: -9.504918314      2.436      3.073
REMARK  8 active torsions:
REMARK  status: ('A' for Active; 'I' for Inactive)
REMARK    1  A    between atoms: N1_1  and  C1_5 
REMARK       I    between atoms: N2_8  and  C4_9 
REMARK    2  A    between atoms: C4_9  and  C5_11 
REMARK    3  A    between atoms: C5_11  and  N3_12 
REMARK       I    between atoms: N3_12  and  C6_14 
REMARK    4  A    between atoms: C6_14  and  C7_16 
REMARK    5  A    between atoms: C13_22  and  C14_23 
REMARK       I    between atoms: C14_23  and  N4_25 
REMARK    6  A    between atoms: N4_25  and  C15_27 
REMARK    7  A    between atoms: C15_27  and  C16_28 
REMARK    8  A    between atoms: C16_28  and  C17_29 
ROOT
HETATM    1  C7  UNL     1      21.772  11.902  18.913  1.00  0.00     0.176 C 
HETATM    2  C8  UNL     1      23.171  11.424  18.854  1.00  0.00     0.035 C 
HETATM    3  C9  UNL     1      23.946  11.247  20.077  1.00  0.00     0.007 C 
HETATM    4  C10 UNL     1      23.341  11.353  21.407  1.00  0.00    -0.010 C 
HETATM    5  C11 UNL     1      22.625  10.186  21.965  1.00  0.00     0.007 C 
HETATM    6  C12 UNL     1      21.668   9.449  21.142  1.00  0.00     0.035 C 
HETATM    7  C13 UNL     1      20.810  10.217  20.195  1.00  0.00     0.176 C 
HETATM    8  N5  UNL     1      21.052  11.597  20.091  1.00  0.00    -0.367 N 
HETATM    9  C24 UNL     1      21.135  12.382  21.226  1.00  0.00     0.060 C 
HETATM   10  C25 UNL     1      22.559  12.658  21.620  1.00  0.00     0.049 C 
ENDROOT
BRANCH   1  11
HETATM   11  C6  UNL     1      21.674  13.301  18.446  1.00  0.00     0.240 C 
HETATM   12  N3  UNL     1      20.498  13.700  17.770  1.00  0.00    -0.351 N 
ATOM     13  H3  UNL     1      19.770  12.999  17.632  1.00  0.00     0.163 HD
HETATM   14  O2  UNL     1      22.560  14.173  18.604  1.00  0.00    -0.271 OA
BRANCH  12  15
HETATM   15  C5  UNL     1      20.256  15.031  17.260  1.00  0.00     0.225 C 
BRANCH  15  16
HETATM   16  C4  UNL     1      20.060  15.064  15.812  1.00  0.00     0.237 C 
HETATM   17  N2  UNL     1      19.015  15.819  15.237  1.00  0.00    -0.351 N 
HETATM   18  C3  UNL     1      18.129  16.568  16.098  1.00  0.00     0.128 C 
HETATM   19  C26 UNL     1      18.822  15.853  13.822  1.00  0.00     0.128 C 
HETATM   20  C2  UNL     1      17.846  17.874  15.361  1.00  0.00     0.052 C 
HETATM   21  C1  UNL     1      16.985  17.540  14.169  1.00  0.00     0.186 C 
HETATM   22  C27 UNL     1      17.427  16.310  13.449  1.00  0.00     0.052 C 
HETATM   23  O1  UNL     1      20.828  14.414  15.064  1.00  0.00    -0.272 OA
BRANCH  21  24
HETATM   24  N1  UNL     1      15.606  17.368  14.577  1.00  0.00    -0.075 N 
ATOM     25  H13 UNL     1      15.345  16.384  14.635  1.00  0.00     0.274 HD
ATOM     26  H12 UNL     1      15.465  17.619  15.555  1.00  0.00     0.274 HD
ATOM     27  H11 UNL     1      14.986  17.889  13.957  1.00  0.00     0.274 HD
ENDBRANCH  21  24
ENDBRANCH  15  16
ENDBRANCH  12  15
ENDBRANCH   1  11
BRANCH   7  28
HETATM   28  C14 UNL     1      19.359   9.970  20.400  1.00  0.00     0.240 C 
HETATM   29  O3  UNL     1      18.952   9.576  21.538  1.00  0.00    -0.271 OA
HETATM   30  N4  UNL     1      18.410  10.162  19.361  1.00  0.00    -0.359 N 
ATOM     31  H4  UNL     1      18.716  10.478  18.440  1.00  0.00     0.162 HD
BRANCH  30  32
HETATM   32  C15 UNL     1      16.990   9.905  19.616  1.00  0.00     0.123 C 
BRANCH  32  33
HETATM   33  C16 UNL     1      16.338   9.513  18.320  1.00  0.00     0.024 C 
BRANCH  33  34
HETATM   34  C17 UNL     1      14.867   9.322  18.400  1.00  0.00    -0.013 C 
HETATM   35  C18 UNL     1      14.399   9.242  19.813  1.00  0.00     0.005 C 
HETATM   36  C19 UNL     1      13.333   8.172  19.951  1.00  0.00     0.000 C 
HETATM   37  C20 UNL     1      12.005   8.835  19.590  1.00  0.00     0.000 C 
HETATM   38  C21 UNL     1      12.035   9.245  18.118  1.00  0.00     0.000 C 
HETATM   39  C22 UNL     1      12.719  10.570  18.026  1.00  0.00     0.000 C 
HETATM   40  C23 UNL     1      14.183  10.492  17.730  1.00  0.00     0.005 C 
ENDBRANCH  33  34
ENDBRANCH  32  33
ENDBRANCH  30  32
ENDBRANCH   7  28
TORSDOF 8
ENDMDL
MODEL 4
REMARK VINA RESULT: -9.282101731      4.264      8.973
REMARK  8 active torsions:
REMARK  status: ('A' for Active; 'I' for Inactive)
REMARK    1  A    between atoms: N1_1  and  C1_5 
REMARK       I    between atoms: N2_8  and  C4_9 
REMARK    2  A    between atoms: C4_9  and  C5_11 
REMARK    3  A    between atoms: C5_11  and  N3_12 
REMARK       I    between atoms: N3_12  and  C6_14 
REMARK    4  A    between atoms: C6_14  and  C7_16 
REMARK    5  A    between atoms: C13_22  and  C14_23 
REMARK       I    between atoms: C14_23  and  N4_25 
REMARK    6  A    between atoms: N4_25  and  C15_27 
REMARK    7  A    between atoms: C15_27  and  C16_28 
REMARK    8  A    between atoms: C16_28  and  C17_29 
ROOT
HETATM    1  C7  UNL     1      14.186  10.303  18.132  1.00  0.00     0.176 C 
HETATM    2  C8  UNL     1      14.651  10.191  16.732  1.00  0.00     0.035 C 
HETATM    3  C9  UNL     1      14.310   9.021  15.930  1.00  0.00     0.007 C 
HETATM    4  C10 UNL     1      13.362   8.005  16.394  1.00  0.00    -0.010 C 
HETATM    5  C11 UNL     1      11.912   8.251  16.234  1.00  0.00     0.007 C 
HETATM    6  C12 UNL     1      11.339   9.542  16.611  1.00  0.00     0.035 C 
HETATM    7  C13 UNL     1      11.884  10.233  17.814  1.00  0.00     0.176 C 
HETATM    8  N5  UNL     1      12.983   9.633  18.452  1.00  0.00    -0.367 N 
HETATM    9  C24 UNL     1      12.955   8.291  18.784  1.00  0.00     0.060 C 
HETATM   10  C25 UNL     1      13.697   7.447  17.785  1.00  0.00     0.049 C 
ENDROOT
BRANCH   1  11
HETATM   11  C6  UNL     1      15.305  10.096  19.076  1.00  0.00     0.240 C 
HETATM   12  N3  UNL     1      16.570   9.751  18.548  1.00  0.00    -0.351 N 
ATOM     13  H3  UNL     1      16.651   9.657  17.536  1.00  0.00     0.163 HD
HETATM   14  O2  UNL     1      15.220  10.203  20.322  1.00  0.00    -0.271 OA
BRANCH  12  15
HETATM   15  C5  UNL     1      17.756   9.522  19.343  1.00  0.00     0.225 C 
BRANCH  15  16
HETATM   16  C4  UNL     1      18.831  10.470  19.056  1.00  0.00     0.237 C 
HETATM   17  N2  UNL     1      19.927  10.614  19.934  1.00  0.00    -0.351 N 
HETATM   18  C3  UNL     1      19.982   9.808  21.131  1.00  0.00     0.128 C 
HETATM   19  C26 UNL     1      20.979  11.540  19.655  1.00  0.00     0.128 C 
HETATM   20  C2  UNL     1      21.450   9.427  21.304  1.00  0.00     0.052 C 
HETATM   21  C1  UNL     1      22.197  10.680  21.683  1.00  0.00     0.186 C 
HETATM   22  C27 UNL     1      21.783  11.876  20.894  1.00  0.00     0.052 C 
HETATM   23  O1  UNL     1      18.784  11.170  18.016  1.00  0.00    -0.272 OA
BRANCH  21  24
HETATM   24  N1  UNL     1      22.015  10.968  23.091  1.00  0.00    -0.075 N 
ATOM     25  H13 UNL     1      21.071  11.296  23.294  1.00  0.00     0.274 HD
ATOM     26  H12 UNL     1      22.004  10.118  23.655  1.00  0.00     0.274 HD
ATOM     27  H11 UNL     1      22.724  11.628  23.412  1.00  0.00     0.274 HD
ENDBRANCH  21  24
ENDBRANCH  15  16
ENDBRANCH  12  15
ENDBRANCH   1  11
BRANCH   7  28
HETATM   28  C14 UNL     1      10.834  10.563  18.815  1.00  0.00     0.240 C 
HETATM   29  O3  UNL     1      10.616  11.781  19.104  1.00  0.00    -0.271 OA
HETATM   30  N4  UNL     1      10.066   9.556  19.457  1.00  0.00    -0.359 N 
ATOM     31  H4  UNL     1      10.226   8.572  19.239  1.00  0.00     0.162 HD
BRANCH  30  32
HETATM   32  C15 UNL     1       9.043   9.936  20.435  1.00  0.00     0.123 C 
BRANCH  32  33
HETATM   33  C16 UNL     1       9.452   9.407  21.781  1.00  0.00     0.024 C 
BRANCH  33  34
HETATM   34  C17 UNL     1       8.563   8.350  22.327  1.00  0.00    -0.013 C 
HETATM   35  C18 UNL     1       7.123   8.698  22.154  1.00  0.00     0.005 C 
HETATM   36  C19 UNL     1       6.338   8.312  23.394  1.00  0.00     0.000 C 
HETATM   37  C20 UNL     1       5.962   6.841  23.226  1.00  0.00     0.000 C 
HETATM   38  C21 UNL     1       7.235   5.997  23.225  1.00  0.00     0.000 C 
HETATM   39  C22 UNL     1       7.792   6.009  21.839  1.00  0.00     0.000 C 
HETATM   40  C23 UNL     1       8.837   7.053  21.600  1.00  0.00     0.005 C 
ENDBRANCH  33  34
ENDBRANCH  32  33
ENDBRANCH  30  32
ENDBRANCH   7  28
TORSDOF 8
ENDMDL
MODEL 5
REMARK VINA RESULT: -9.276608820      2.279      2.589
REMARK  8 active torsions:
REMARK  status: ('A' for Active; 'I' for Inactive)
REMARK    1  A    between atoms: N1_1  and  C1_5 
REMARK       I    between atoms: N2_8  and  C4_9 
REMARK    2  A    between atoms: C4_9  and  C5_11 
REMARK    3  A    between atoms: C5_11  and  N3_12 
REMARK       I    between atoms: N3_12  and  C6_14 
REMARK    4  A    between atoms: C6_14  and  C7_16 
REMARK    5  A    between atoms: C13_22  and  C14_23 
REMARK       I    between atoms: C14_23  and  N4_25 
REMARK    6  A    between atoms: N4_25  and  C15_27 
REMARK    7  A    between atoms: C15_27  and  C16_28 
REMARK    8  A    between atoms: C16_28  and  C17_29 
ROOT
HETATM    1  C7  UNL     1      22.382  11.422  19.058  1.00  0.00     0.176 C 
HETATM    2  C8  UNL     1      23.793  11.183  19.432  1.00  0.00     0.035 C 
HETATM    3  C9  UNL     1      24.285  11.566  20.751  1.00  0.00     0.007 C 
HETATM    4  C10 UNL     1      23.390  12.027  21.815  1.00  0.00    -0.010 C 
HETATM    5  C11 UNL     1      22.666  11.026  22.628  1.00  0.00     0.007 C 
HETATM    6  C12 UNL     1      21.984   9.907  21.981  1.00  0.00     0.035 C 
HETATM    7  C13 UNL     1      21.301  10.153  20.679  1.00  0.00     0.176 C 
HETATM    8  N5  UNL     1      21.444  11.432  20.115  1.00  0.00    -0.367 N 
HETATM    9  C24 UNL     1      21.202  12.563  20.873  1.00  0.00     0.060 C 
HETATM   10  C25 UNL     1      22.474  13.182  21.384  1.00  0.00     0.049 C 
ENDROOT
BRANCH   1  11
HETATM   11  C6  UNL     1      22.274  12.539  18.095  1.00  0.00     0.240 C 
HETATM   12  N3  UNL     1      21.185  12.544  17.196  1.00  0.00    -0.351 N 
ATOM     13  H3  UNL     1      20.521  11.771  17.250  1.00  0.00     0.163 HD
HETATM   14  O2  UNL     1      23.083  13.494  18.013  1.00  0.00    -0.271 OA
BRANCH  12  15
HETATM   15  C5  UNL     1      20.944  13.568  16.203  1.00  0.00     0.225 C 
BRANCH  15  16
HETATM   16  C4  UNL     1      19.734  14.345  16.462  1.00  0.00     0.237 C 
HETATM   17  N2  UNL     1      19.477  15.545  15.765  1.00  0.00    -0.351 N 
HETATM   18  C3  UNL     1      20.429  16.007  14.782  1.00  0.00     0.128 C 
HETATM   19  C26 UNL     1      18.294  16.306  16.016  1.00  0.00     0.128 C 
HETATM   20  C2  UNL     1      19.595  16.589  13.643  1.00  0.00     0.052 C 
HETATM   21  C1  UNL     1      18.965  17.860  14.152  1.00  0.00     0.186 C 
HETATM   22  C27 UNL     1      18.425  17.737  15.538  1.00  0.00     0.052 C 
HETATM   23  O1  UNL     1      18.906  13.944  17.315  1.00  0.00    -0.272 OA
BRANCH  21  24
HETATM   24  N1  UNL     1      19.923  18.945  14.122  1.00  0.00    -0.075 N 
ATOM     25  H13 UNL     1      20.817  18.675  14.533  1.00  0.00     0.274 HD
ATOM     26  H12 UNL     1      20.246  19.141  13.175  1.00  0.00     0.274 HD
ATOM     27  H11 UNL     1      19.534  19.774  14.571  1.00  0.00     0.274 HD
ENDBRANCH  21  24
ENDBRANCH  15  16
ENDBRANCH  12  15
ENDBRANCH   1  11
BRANCH   7  28
HETATM   28  C14 UNL     1      19.866   9.763  20.697  1.00  0.00     0.240 C 
HETATM   29  O3  UNL     1      19.366   9.292  21.766  1.00  0.00    -0.271 OA
HETATM   30  N4  UNL     1      19.035   9.902  19.554  1.00  0.00    -0.359 N 
ATOM     31  H4  UNL     1      19.417  10.278  18.686  1.00  0.00     0.162 HD
BRANCH  30  32
HETATM   32  C15 UNL     1      17.627   9.504  19.626  1.00  0.00     0.123 C 
BRANCH  32  33
HETATM   33  C16 UNL     1      16.909  10.080  18.438  1.00  0.00     0.024 C 
BRANCH  33  34
HETATM   34  C17 UNL     1      15.447   9.820  18.412  1.00  0.00    -0.013 C 
HETATM   35  C18 UNL     1      15.103   8.709  17.479  1.00  0.00     0.005 C 
HETATM   36  C19 UNL     1      13.837   9.044  16.711  1.00  0.00     0.000 C 
HETATM   37  C20 UNL     1      12.669   8.611  17.596  1.00  0.00     0.000 C 
HETATM   38  C21 UNL     1      12.658   9.464  18.863  1.00  0.00     0.000 C 
HETATM   39  C22 UNL     1      13.615   8.853  19.834  1.00  0.00     0.000 C 
HETATM   40  C23 UNL     1      14.990   9.442  19.802  1.00  0.00     0.005 C 
ENDBRANCH  33  34
ENDBRANCH  32  33
ENDBRANCH  30  32
ENDBRANCH   7  28
TORSDOF 8
ENDMDL
