MODEL 1
REMARK VINA RESULT: -6.935041829      0.000      0.000
REMARK  8 active torsions:
REMARK  status: ('A' for Active; 'I' for Inactive)
REMARK    1  A    between atoms: C2_2  and  C3_3 
REMARK    2  A    between atoms: C3_3  and  C4_4 
REMARK    3  A    between atoms: C4_4  and  C5_5 
REMARK    4  A    between atoms: C9_12  and  N2_13 
REMARK    5  A    between atoms: C10_17  and  C11_18 
REMARK    6  A    between atoms: C15_25  and  C16_26 
REMARK    7  A    between atoms: C20_33  and  C21_34 
REMARK    8  A    between atoms: C21_34  and  C22_35 
ROOT
HETATM    1  C5  UNL     1      25.031  17.064  18.085  1.00  0.00     0.176 C 
HETATM    2  N1  UNL     1      24.876  18.415  17.550  1.00  0.00    -0.348 N 
ATOM      3  H1  UNL     1      25.710  19.000  17.497  1.00  0.00     0.163 HD
HETATM    4  C6  UNL     1      23.669  18.967  17.104  1.00  0.00     0.218 C 
HETATM    5  O1  UNL     1      23.689  19.702  16.082  1.00  0.00    -0.274 OA
HETATM    6  C7  UNL     1      22.351  18.752  17.749  1.00  0.00     0.105 C 
HETATM    7  C8  UNL     1      21.263  19.535  17.063  1.00  0.00     0.044 C 
HETATM    8  C9  UNL     1      19.899  19.215  17.578  1.00  0.00     0.207 C 
HETATM    9  C10 UNL     1      19.110  18.494  16.482  1.00  0.00     0.118 C 
HETATM   10  N3  UNL     1      18.501  17.311  17.043  1.00  0.00    -0.352 N 
ATOM     11  H3  UNL     1      17.729  17.450  17.696  1.00  0.00     0.163 HD
HETATM   12  C14 UNL     1      18.877  15.982  16.769  1.00  0.00     0.240 C 
HETATM   13  O2  UNL     1      18.212  15.040  17.272  1.00  0.00    -0.271 OA
HETATM   14  C15 UNL     1      20.029  15.599  15.912  1.00  0.00     0.176 C 
HETATM   15  N4  UNL     1      20.538  14.333  16.393  1.00  0.00    -0.348 N 
ATOM     16  H4  UNL     1      19.893  13.724  16.898  1.00  0.00     0.163 HD
HETATM   17  C18 UNL     1      21.858  13.879  16.216  1.00  0.00     0.220 C 
HETATM   18  O3  UNL     1      22.033  12.647  15.920  1.00  0.00    -0.274 OA
HETATM   19  C19 UNL     1      23.082  14.692  16.340  1.00  0.00     0.128 C 
HETATM   20  C20 UNL     1      24.146  14.011  17.191  1.00  0.00     0.095 C 
HETATM   21  N5  UNL     1      25.382  14.730  17.009  1.00  0.00    -0.349 N 
HETATM   22  C25 UNL     1      26.524  13.851  16.674  1.00  0.00     0.153 C 
HETATM   23  C26 UNL     1      25.583  16.128  17.115  1.00  0.00     0.242 C 
HETATM   24  O4  UNL     1      26.360  16.640  16.233  1.00  0.00    -0.271 OA
ENDROOT
BRANCH   1  25
HETATM   25  C4  UNL     1      25.856  17.178  19.352  1.00  0.00     0.035 C 
BRANCH  25  26
HETATM   26  C3  UNL     1      27.047  18.046  19.268  1.00  0.00     0.002 C 
BRANCH  26  27
HETATM   27  C2  UNL     1      28.259  17.100  19.172  1.00  0.00    -0.004 C 
HETATM   28  C1  UNL     1      29.394  17.828  18.440  1.00  0.00     0.005 C 
ENDBRANCH  26  27
ENDBRANCH  25  26
ENDBRANCH   1  25
BRANCH  20  29
HETATM   29  C21 UNL     1      23.701  13.792  18.591  1.00  0.00     0.029 C 
BRANCH  29  30
HETATM   30  C22 UNL     1      23.810  12.377  19.074  1.00  0.00    -0.021 C 
HETATM   31  C23 UNL     1      22.555  11.809  19.622  1.00  0.00     0.009 C 
HETATM   32  C24 UNL     1      24.966  12.194  20.048  1.00  0.00     0.009 C 
ENDBRANCH  29  30
ENDBRANCH  20  29
BRANCH   8  33
HETATM   33  N2  UNL     1      20.003  18.378  18.762  1.00  0.00    -0.073 N 
ATOM     34  H23 UNL     1      20.960  18.321  19.109  1.00  0.00     0.274 HD
ATOM     35  H22 UNL     1      19.575  18.814  19.579  1.00  0.00     0.274 HD
ATOM     36  H21 UNL     1      19.610  17.457  18.570  1.00  0.00     0.274 HD
ENDBRANCH   8  33
BRANCH   9  37
HETATM   37  C11 UNL     1      18.070  19.484  15.993  1.00  0.00     0.002 C 
HETATM   38  C12 UNL     1      17.387  20.209  17.111  1.00  0.00     0.011 C 
HETATM   39  C13 UNL     1      17.036  18.766  15.181  1.00  0.00     0.011 C 
ENDBRANCH   9  37
BRANCH  14  40
HETATM   40  C16 UNL     1      19.472  15.455  14.498  1.00  0.00     0.030 C 
HETATM   41  C17 UNL     1      19.820  16.642  13.643  1.00  0.00     0.007 C 
ENDBRANCH  14  40
TORSDOF 8
ENDMDL
MODEL 2
REMARK VINA RESULT: -6.830713684      2.753      5.710
REMARK  8 active torsions:
REMARK  status: ('A' for Active; 'I' for Inactive)
REMARK    1  A    between atoms: C2_2  and  C3_3 
REMARK    2  A    between atoms: C3_3  and  C4_4 
REMARK    3  A    between atoms: C4_4  and  C5_5 
REMARK    4  A    between atoms: C9_12  and  N2_13 
REMARK    5  A    between atoms: C10_17  and  C11_18 
REMARK    6  A    between atoms: C15_25  and  C16_26 
REMARK    7  A    between atoms: C20_33  and  C21_34 
REMARK    8  A    between atoms: C21_34  and  C22_35 
ROOT
HETATM    1  C5  UNL     1      20.934  15.750  14.682  1.00  0.00     0.176 C 
HETATM    2  N1  UNL     1      19.684  15.557  13.952  1.00  0.00    -0.348 N 
ATOM      3  H1  UNL     1      19.554  14.669  13.465  1.00  0.00     0.163 HD
HETATM    4  C6  UNL     1      18.650  16.497  13.869  1.00  0.00     0.218 C 
HETATM    5  O1  UNL     1      17.461  16.085  13.911  1.00  0.00    -0.274 OA
HETATM    6  C7  UNL     1      18.847  17.961  13.734  1.00  0.00     0.105 C 
HETATM    7  C8  UNL     1      17.535  18.689  13.608  1.00  0.00     0.044 C 
HETATM    8  C9  UNL     1      17.684  20.173  13.639  1.00  0.00     0.207 C 
HETATM    9  C10 UNL     1      17.060  20.709  14.930  1.00  0.00     0.118 C 
HETATM   10  N3  UNL     1      17.993  21.612  15.563  1.00  0.00    -0.352 N 
ATOM     11  H3  UNL     1      18.153  22.511  15.107  1.00  0.00     0.163 HD
HETATM   12  C14 UNL     1      18.702  21.361  16.754  1.00  0.00     0.240 C 
HETATM   13  O2  UNL     1      19.430  22.266  17.236  1.00  0.00    -0.271 OA
HETATM   14  C15 UNL     1      18.653  20.078  17.502  1.00  0.00     0.176 C 
HETATM   15  N4  UNL     1      19.924  19.909  18.173  1.00  0.00    -0.348 N 
ATOM     16  H4  UNL     1      20.461  20.749  18.390  1.00  0.00     0.163 HD
HETATM   17  C18 UNL     1      20.473  18.670  18.550  1.00  0.00     0.220 C 
HETATM   18  O3  UNL     1      21.045  18.591  19.692  1.00  0.00    -0.274 OA
HETATM   19  C19 UNL     1      20.458  17.431  17.750  1.00  0.00     0.128 C 
HETATM   20  C20 UNL     1      21.825  16.759  17.697  1.00  0.00     0.095 C 
HETATM   21  N5  UNL     1      21.643  15.435  17.157  1.00  0.00    -0.349 N 
HETATM   22  C25 UNL     1      22.275  14.379  17.978  1.00  0.00     0.153 C 
HETATM   23  C26 UNL     1      20.948  15.080  15.975  1.00  0.00     0.242 C 
HETATM   24  O4  UNL     1      20.230  14.021  16.056  1.00  0.00    -0.271 OA
ENDROOT
BRANCH   1  25
HETATM   25  C4  UNL     1      22.059  15.313  13.763  1.00  0.00     0.035 C 
BRANCH  25  26
HETATM   26  C3  UNL     1      23.010  14.336  14.330  1.00  0.00     0.002 C 
BRANCH  26  27
HETATM   27  C2  UNL     1      24.314  15.112  14.593  1.00  0.00    -0.004 C 
HETATM   28  C1  UNL     1      24.419  16.256  13.576  1.00  0.00     0.005 C 
ENDBRANCH  26  27
ENDBRANCH  25  26
ENDBRANCH   1  25
BRANCH  20  29
HETATM   29  C21 UNL     1      22.853  17.611  17.046  1.00  0.00     0.029 C 
BRANCH  29  30
HETATM   30  C22 UNL     1      24.248  17.422  17.562  1.00  0.00    -0.021 C 
HETATM   31  C23 UNL     1      24.347  17.245  19.031  1.00  0.00     0.009 C 
HETATM   32  C24 UNL     1      25.188  18.516  17.076  1.00  0.00     0.009 C 
ENDBRANCH  29  30
ENDBRANCH  20  29
BRANCH   8  33
HETATM   33  N2  UNL     1      19.092  20.529  13.571  1.00  0.00    -0.073 N 
ATOM     34  H23 UNL     1      19.606  19.936  12.919  1.00  0.00     0.274 HD
ATOM     35  H22 UNL     1      19.239  21.424  13.104  1.00  0.00     0.274 HD
ATOM     36  H21 UNL     1      19.499  20.512  14.506  1.00  0.00     0.274 HD
ENDBRANCH   8  33
BRANCH   9  37
HETATM   37  C11 UNL     1      15.785  21.419  14.517  1.00  0.00     0.002 C 
HETATM   38  C12 UNL     1      16.025  22.520  13.532  1.00  0.00     0.011 C 
HETATM   39  C13 UNL     1      15.113  21.991  15.728  1.00  0.00     0.011 C 
ENDBRANCH   9  37
BRANCH  14  40
HETATM   40  C16 UNL     1      17.522  20.224  18.515  1.00  0.00     0.030 C 
HETATM   41  C17 UNL     1      18.048  20.503  19.896  1.00  0.00     0.007 C 
ENDBRANCH  14  40
TORSDOF 8
ENDMDL
MODEL 3
REMARK VINA RESULT: -6.767995234      2.115      5.652
REMARK  8 active torsions:
REMARK  status: ('A' for Active; 'I' for Inactive)
REMARK    1  A    between atoms: C2_2  and  C3_3 
REMARK    2  A    between atoms: C3_3  and  C4_4 
REMARK    3  A    between atoms: C4_4  and  C5_5 
REMARK    4  A    between atoms: C9_12  and  N2_13 
REMARK    5  A    between atoms: C10_17  and  C11_18 
REMARK    6  A    between atoms: C15_25  and  C16_26 
REMARK    7  A    between atoms: C20_33  and  C21_34 
REMARK    8  A    between atoms: C21_34  and  C22_35 
ROOT
HETATM    1  C5  UNL     1      21.350  13.037  17.306  1.00  0.00     0.176 C 
HETATM    2  N1  UNL     1      19.901  13.206  17.233  1.00  0.00    -0.348 N 
ATOM      3  H1  UNL     1      19.319  12.442  17.576  1.00  0.00     0.163 HD
HETATM    4  C6  UNL     1      19.250  14.338  16.726  1.00  0.00     0.218 C 
HETATM    5  O1  UNL     1      18.208  14.738  17.307  1.00  0.00    -0.274 OA
HETATM    6  C7  UNL     1      19.698  15.113  15.543  1.00  0.00     0.105 C 
HETATM    7  C8  UNL     1      18.746  16.234  15.221  1.00  0.00     0.044 C 
HETATM    8  C9  UNL     1      19.248  17.135  14.144  1.00  0.00     0.207 C 
HETATM    9  C10 UNL     1      19.561  18.507  14.747  1.00  0.00     0.118 C 
HETATM   10  N3  UNL     1      20.876  18.921  14.316  1.00  0.00    -0.352 N 
ATOM     11  H3  UNL     1      20.984  19.178  13.334  1.00  0.00     0.163 HD
HETATM   12  C14 UNL     1      22.022  19.002  15.130  1.00  0.00     0.240 C 
HETATM   13  O2  UNL     1      23.091  19.450  14.641  1.00  0.00    -0.271 OA
HETATM   14  C15 UNL     1      22.066  18.589  16.556  1.00  0.00     0.176 C 
HETATM   15  N4  UNL     1      23.411  18.141  16.847  1.00  0.00    -0.348 N 
ATOM     16  H4  UNL     1      24.167  18.510  16.270  1.00  0.00     0.163 HD
HETATM   17  C18 UNL     1      23.752  17.235  17.867  1.00  0.00     0.220 C 
HETATM   18  O3  UNL     1      24.803  17.476  18.555  1.00  0.00    -0.274 OA
HETATM   19  C19 UNL     1      23.010  16.013  18.231  1.00  0.00     0.128 C 
HETATM   20  C20 UNL     1      23.924  14.804  18.383  1.00  0.00     0.095 C 
HETATM   21  N5  UNL     1      23.164  13.755  19.016  1.00  0.00    -0.349 N 
HETATM   22  C25 UNL     1      23.853  13.157  20.181  1.00  0.00     0.153 C 
HETATM   23  C26 UNL     1      21.884  13.277  18.639  1.00  0.00     0.242 C 
HETATM   24  O4  UNL     1      21.086  13.022  19.609  1.00  0.00    -0.271 OA
ENDROOT
BRANCH   1  25
HETATM   25  C4  UNL     1      21.665  11.654  16.769  1.00  0.00     0.035 C 
BRANCH  25  26
HETATM   26  C3  UNL     1      20.782  10.567  17.233  1.00  0.00     0.002 C 
BRANCH  26  27
HETATM   27  C2  UNL     1      21.537   9.860  18.374  1.00  0.00    -0.004 C 
HETATM   28  C1  UNL     1      20.537   9.506  19.481  1.00  0.00     0.005 C 
ENDBRANCH  26  27
ENDBRANCH  25  26
ENDBRANCH   1  25
BRANCH  20  29
HETATM   29  C21 UNL     1      24.620  14.454  17.118  1.00  0.00     0.029 C 
BRANCH  29  30
HETATM   30  C22 UNL     1      26.061  14.072  17.275  1.00  0.00    -0.021 C 
HETATM   31  C23 UNL     1      26.730  14.650  18.466  1.00  0.00     0.009 C 
HETATM   32  C24 UNL     1      26.863  14.341  16.010  1.00  0.00     0.009 C 
ENDBRANCH  29  30
ENDBRANCH  20  29
BRANCH   8  33
HETATM   33  N2  UNL     1      20.440  16.564  13.538  1.00  0.00    -0.073 N 
ATOM     34  H23 UNL     1      20.612  15.610  13.855  1.00  0.00     0.274 HD
ATOM     35  H22 UNL     1      20.310  16.369  12.545  1.00  0.00     0.274 HD
ATOM     36  H21 UNL     1      21.240  17.173  13.707  1.00  0.00     0.274 HD
ENDBRANCH   8  33
BRANCH   9  37
HETATM   37  C11 UNL     1      18.482  19.445  14.240  1.00  0.00     0.002 C 
HETATM   38  C12 UNL     1      19.034  20.721  13.685  1.00  0.00     0.011 C 
HETATM   39  C13 UNL     1      17.537  19.772  15.356  1.00  0.00     0.011 C 
ENDBRANCH   9  37
BRANCH  14  40
HETATM   40  C16 UNL     1      21.723  19.835  17.367  1.00  0.00     0.030 C 
HETATM   41  C17 UNL     1      20.472  19.641  18.180  1.00  0.00     0.007 C 
ENDBRANCH  14  40
TORSDOF 8
ENDMDL
MODEL 4
REMARK VINA RESULT: -6.753462815      2.892      6.039
REMARK  8 active torsions:
REMARK  status: ('A' for Active; 'I' for Inactive)
REMARK    1  A    between atoms: C2_2  and  C3_3 
REMARK    2  A    between atoms: C3_3  and  C4_4 
REMARK    3  A    between atoms: C4_4  and  C5_5 
REMARK    4  A    between atoms: C9_12  and  N2_13 
REMARK    5  A    between atoms: C10_17  and  C11_18 
REMARK    6  A    between atoms: C15_25  and  C16_26 
REMARK    7  A    between atoms: C20_33  and  C21_34 
REMARK    8  A    between atoms: C21_34  and  C22_35 
ROOT
HETATM    1  C5  UNL     1      24.752  17.328  14.650  1.00  0.00     0.176 C 
HETATM    2  N1  UNL     1      23.904  16.531  13.767  1.00  0.00    -0.348 N 
ATOM      3  H1  UNL     1      23.896  16.773  12.776  1.00  0.00     0.163 HD
HETATM    4  C6  UNL     1      23.100  15.461  14.178  1.00  0.00     0.218 C 
HETATM    5  O1  UNL     1      23.017  14.453  13.428  1.00  0.00    -0.274 OA
HETATM    6  C7  UNL     1      22.329  15.419  15.444  1.00  0.00     0.105 C 
HETATM    7  C8  UNL     1      21.519  14.155  15.560  1.00  0.00     0.044 C 
HETATM    8  C9  UNL     1      20.863  14.001  16.891  1.00  0.00     0.207 C 
HETATM    9  C10 UNL     1      21.509  12.827  17.631  1.00  0.00     0.118 C 
HETATM   10  N3  UNL     1      21.847  13.245  18.972  1.00  0.00    -0.352 N 
ATOM     11  H3  UNL     1      21.073  13.403  19.618  1.00  0.00     0.163 HD
HETATM   12  C14 UNL     1      23.149  13.453  19.465  1.00  0.00     0.240 C 
HETATM   13  O2  UNL     1      23.305  13.747  20.678  1.00  0.00    -0.271 OA
HETATM   14  C15 UNL     1      24.381  13.351  18.642  1.00  0.00     0.176 C 
HETATM   15  N4  UNL     1      25.363  14.257  19.200  1.00  0.00    -0.348 N 
ATOM     16  H4  UNL     1      25.278  14.496  20.188  1.00  0.00     0.163 HD
HETATM   17  C18 UNL     1      26.426  14.830  18.479  1.00  0.00     0.220 C 
HETATM   18  O3  UNL     1      27.567  14.903  19.053  1.00  0.00    -0.274 OA
HETATM   19  C19 UNL     1      26.359  15.366  17.107  1.00  0.00     0.128 C 
HETATM   20  C20 UNL     1      27.008  16.739  16.989  1.00  0.00     0.095 C 
HETATM   21  N5  UNL     1      27.154  17.037  15.585  1.00  0.00    -0.349 N 
HETATM   22  C25 UNL     1      28.520  17.474  15.222  1.00  0.00     0.153 C 
HETATM   23  C26 UNL     1      26.157  16.950  14.583  1.00  0.00     0.242 C 
HETATM   24  O4  UNL     1      26.547  16.470  13.460  1.00  0.00    -0.271 OA
ENDROOT
BRANCH   1  25
HETATM   25  C4  UNL     1      24.502  18.785  14.313  1.00  0.00     0.035 C 
BRANCH  25  26
HETATM   26  C3  UNL     1      24.166  19.661  15.453  1.00  0.00     0.002 C 
BRANCH  26  27
HETATM   27  C2  UNL     1      22.801  19.176  15.976  1.00  0.00    -0.004 C 
HETATM   28  C1  UNL     1      22.899  18.979  17.495  1.00  0.00     0.005 C 
ENDBRANCH  26  27
ENDBRANCH  25  26
ENDBRANCH   1  25
BRANCH  20  29
HETATM   29  C21 UNL     1      26.328  17.763  17.822  1.00  0.00     0.029 C 
BRANCH  29  30
HETATM   30  C22 UNL     1      27.244  18.752  18.479  1.00  0.00    -0.021 C 
HETATM   31  C23 UNL     1      27.429  20.019  17.732  1.00  0.00     0.009 C 
HETATM   32  C24 UNL     1      28.584  18.130  18.847  1.00  0.00     0.009 C 
ENDBRANCH  29  30
ENDBRANCH  20  29
BRANCH   8  33
HETATM   33  N2  UNL     1      21.011  15.227  17.659  1.00  0.00    -0.073 N 
ATOM     34  H23 UNL     1      21.785  15.174  18.320  1.00  0.00     0.274 HD
ATOM     35  H22 UNL     1      21.356  15.998  17.087  1.00  0.00     0.274 HD
ATOM     36  H21 UNL     1      20.130  15.455  18.118  1.00  0.00     0.274 HD
ENDBRANCH   8  33
BRANCH   9  37
HETATM   37  C11 UNL     1      20.478  11.714  17.633  1.00  0.00     0.002 C 
HETATM   38  C12 UNL     1      19.147  12.154  18.158  1.00  0.00     0.011 C 
HETATM   39  C13 UNL     1      20.973  10.572  18.467  1.00  0.00     0.011 C 
ENDBRANCH   9  37
BRANCH  14  40
HETATM   40  C16 UNL     1      24.850  11.904  18.764  1.00  0.00     0.030 C 
HETATM   41  C17 UNL     1      24.955  11.475  20.202  1.00  0.00     0.007 C 
ENDBRANCH  14  40
TORSDOF 8
ENDMDL
MODEL 5
REMARK VINA RESULT: -6.704531945      2.314      5.407
REMARK  8 active torsions:
REMARK  status: ('A' for Active; 'I' for Inactive)
REMARK    1  A    between atoms: C2_2  and  C3_3 
REMARK    2  A    between atoms: C3_3  and  C4_4 
REMARK    3  A    between atoms: C4_4  and  C5_5 
REMARK    4  A    between atoms: C9_12  and  N2_13 
REMARK    5  A    between atoms: C10_17  and  C11_18 
REMARK    6  A    between atoms: C15_25  and  C16_26 
REMARK    7  A    between atoms: C20_33  and  C21_34 
REMARK    8  A    between atoms: C21_34  and  C22_35 
ROOT
HETATM    1  C5  UNL     1      23.538  15.103  16.990  1.00  0.00     0.176 C 
HETATM    2  N1  UNL     1      22.443  14.140  17.078  1.00  0.00    -0.348 N 
ATOM      3  H1  UNL     1      22.642  13.238  17.513  1.00  0.00     0.163 HD
HETATM    4  C6  UNL     1      21.142  14.360  16.611  1.00  0.00     0.218 C 
HETATM    5  O1  UNL     1      20.180  13.922  17.293  1.00  0.00    -0.274 OA
HETATM    6  C7  UNL     1      20.804  15.078  15.358  1.00  0.00     0.105 C 
HETATM    7  C8  UNL     1      19.319  15.090  15.108  1.00  0.00     0.044 C 
HETATM    8  C9  UNL     1      18.928  15.944  13.949  1.00  0.00     0.207 C 
HETATM    9  C10 UNL     1      18.146  17.155  14.465  1.00  0.00     0.118 C 
HETATM   10  N3  UNL     1      18.692  18.354  13.871  1.00  0.00    -0.352 N 
ATOM     11  H3  UNL     1      18.523  18.498  12.875  1.00  0.00     0.163 HD
HETATM   12  C14 UNL     1      19.436  19.341  14.545  1.00  0.00     0.240 C 
HETATM   13  O2  UNL     1      19.790  20.374  13.921  1.00  0.00    -0.271 OA
HETATM   14  C15 UNL     1      19.846  19.252  15.971  1.00  0.00     0.176 C 
HETATM   15  N4  UNL     1      21.089  19.976  16.120  1.00  0.00    -0.348 N 
ATOM     16  H4  UNL     1      21.289  20.718  15.448  1.00  0.00     0.163 HD
HETATM   17  C18 UNL     1      22.043  19.734  17.126  1.00  0.00     0.220 C 
HETATM   18  O3  UNL     1      22.599  20.744  17.680  1.00  0.00    -0.274 OA
HETATM   19  C19 UNL     1      22.476  18.411  17.615  1.00  0.00     0.128 C 
HETATM   20  C20 UNL     1      23.993  18.295  17.703  1.00  0.00     0.095 C 
HETATM   21  N5  UNL     1      24.299  17.104  18.455  1.00  0.00    -0.349 N 
HETATM   22  C25 UNL     1      25.262  17.340  19.553  1.00  0.00     0.153 C 
HETATM   23  C26 UNL     1      23.783  15.802  18.245  1.00  0.00     0.242 C 
HETATM   24  O4  UNL     1      23.491  15.148  19.308  1.00  0.00    -0.271 OA
ENDROOT
BRANCH   1  25
HETATM   25  C4  UNL     1      24.750  14.354  16.470  1.00  0.00     0.035 C 
BRANCH  25  26
HETATM   26  C3  UNL     1      25.432  14.961  15.310  1.00  0.00     0.002 C 
BRANCH  26  27
HETATM   27  C2  UNL     1      24.415  14.933  14.154  1.00  0.00    -0.004 C 
HETATM   28  C1  UNL     1      24.343  16.332  13.528  1.00  0.00     0.005 C 
ENDBRANCH  26  27
ENDBRANCH  25  26
ENDBRANCH   1  25
BRANCH  20  29
HETATM   29  C21 UNL     1      24.652  18.437  16.380  1.00  0.00     0.029 C 
BRANCH  29  30
HETATM   30  C22 UNL     1      26.070  18.921  16.430  1.00  0.00    -0.021 C 
HETATM   31  C23 UNL     1      26.235  20.309  16.927  1.00  0.00     0.009 C 
HETATM   32  C24 UNL     1      26.787  18.726  15.100  1.00  0.00     0.009 C 
ENDBRANCH  29  30
ENDBRANCH  20  29
BRANCH   8  33
HETATM   33  N2  UNL     1      20.116  16.376  13.231  1.00  0.00    -0.073 N 
ATOM     34  H23 UNL     1      20.386  15.714  12.504  1.00  0.00     0.274 HD
ATOM     35  H22 UNL     1      19.931  17.183  12.636  1.00  0.00     0.274 HD
ATOM     36  H21 UNL     1      20.874  16.551  13.890  1.00  0.00     0.274 HD
ENDBRANCH   8  33
BRANCH   9  37
HETATM   37  C11 UNL     1      16.704  16.931  14.052  1.00  0.00     0.002 C 
HETATM   38  C12 UNL     1      16.577  16.259  12.721  1.00  0.00     0.011 C 
HETATM   39  C13 UNL     1      15.986  18.245  14.001  1.00  0.00     0.011 C 
ENDBRANCH   9  37
BRANCH  14  40
HETATM   40  C16 UNL     1      18.731  19.919  16.771  1.00  0.00     0.030 C 
HETATM   41  C17 UNL     1      18.460  19.189  18.058  1.00  0.00     0.007 C 
ENDBRANCH  14  40
TORSDOF 8
ENDMDL
