MODEL 1
REMARK VINA RESULT: -8.991452373      0.000      0.000
REMARK  9 active torsions:
REMARK  status: ('A' for Active; 'I' for Inactive)
REMARK    1  A    between atoms: C3_3  and  N1_4 
REMARK       I    between atoms: N1_4  and  C4_6 
REMARK    2  A    between atoms: C4_6  and  C5_8 
REMARK       I    between atoms: N2_12  and  C9_13 
REMARK    3  A    between atoms: C9_13  and  C10_15 
REMARK    4  A    between atoms: C10_15  and  C11_16 
REMARK    5  A    between atoms: C10_15  and  N5_30 
REMARK    6  A    between atoms: C11_16  and  C12_17 
REMARK    7  A    between atoms: C15_20  and  C16_21 
REMARK       I    between atoms: N5_30  and  C21_32 
REMARK    8  A    between atoms: C21_32  and  O4_34 
REMARK    9  A    between atoms: O4_34  and  C22_35 
ROOT
HETATM    1  C1  UNL     1      25.567  14.539  16.079  1.00  0.00     0.014 C 
HETATM    2  C2  UNL     1      25.422  14.250  17.247  1.00  0.00    -0.098 C 
HETATM    3  C3  UNL     1      25.235  13.878  18.666  1.00  0.00     0.216 C 
ENDROOT
BRANCH   3   4
HETATM    4  N1  UNL     1      24.181  12.887  18.824  1.00  0.00    -0.349 N 
HETATM    5  C4  UNL     1      24.215  11.931  19.891  1.00  0.00     0.241 C 
HETATM    6  O1  UNL     1      25.179  11.965  20.695  1.00  0.00    -0.271 OA
ATOM      7  H1  UNL     1      23.404  12.873  18.164  1.00  0.00     0.163 HD
BRANCH   5   8
HETATM    8  C5  UNL     1      23.144  10.947  20.026  1.00  0.00     0.179 C 
HETATM    9  C6  UNL     1      22.978  10.566  21.483  1.00  0.00     0.037 C 
HETATM   10  C7  UNL     1      22.285  11.737  22.085  1.00  0.00     0.022 C 
HETATM   11  C8  UNL     1      21.514  12.356  20.935  1.00  0.00     0.127 C 
HETATM   12  N2  UNL     1      21.824  11.560  19.772  1.00  0.00    -0.337 N 
HETATM   13  C9  UNL     1      21.036  11.370  18.628  1.00  0.00     0.243 C 
HETATM   14  O2  UNL     1      21.475  10.583  17.706  1.00  0.00    -0.271 OA
BRANCH  13  15
HETATM   15  C10 UNL     1      19.708  12.030  18.424  1.00  0.00     0.179 C 
BRANCH  15  16
HETATM   16  C11 UNL     1      19.720  12.970  17.265  1.00  0.00     0.040 C 
BRANCH  16  17
HETATM   17  C12 UNL     1      20.830  13.978  17.251  1.00  0.00    -0.007 C 
HETATM   18  C13 UNL     1      21.571  13.823  15.901  1.00  0.00     0.011 C 
HETATM   19  C14 UNL     1      20.691  14.894  15.371  1.00  0.00     0.001 C 
HETATM   20  C15 UNL     1      21.272  15.911  14.459  1.00  0.00     0.054 C 
HETATM   21  C20 UNL     1      20.503  15.376  16.791  1.00  0.00    -0.005 C 
HETATM   22  C17 UNL     1      22.556  16.452  14.966  1.00  0.00     0.012 C 
HETATM   23  C18 UNL     1      22.636  16.706  16.431  1.00  0.00     0.001 C 
HETATM   24  C19 UNL     1      21.426  16.443  17.234  1.00  0.00     0.005 C 
BRANCH  20  25
HETATM   25  C16 UNL     1      20.248  16.931  14.161  1.00  0.00     0.091 C 
HETATM   26  N3  UNL     1      20.526  18.180  14.190  1.00  0.00    -0.391 N 
ATOM     27  H32 UNL     1      21.482  18.441  14.429  1.00  0.00     0.157 HD
ATOM     28  H31 UNL     1      19.818  18.885  13.985  1.00  0.00     0.157 HD
HETATM   29  N4  UNL     1      18.904  16.565  13.825  1.00  0.00    -0.088 NA
ENDBRANCH  20  25
ENDBRANCH  16  17
ENDBRANCH  15  16
BRANCH  15  30
HETATM   30  N5  UNL     1      18.704  11.013  18.141  1.00  0.00    -0.324 N 
HETATM   31  C21 UNL     1      18.110  10.218  19.131  1.00  0.00     0.361 C 
HETATM   32  O3  UNL     1      18.488  10.408  20.326  1.00  0.00    -0.238 OA
ATOM     33  H5  UNL     1      18.419  10.873  17.171  1.00  0.00     0.165 HD
BRANCH  31  34
HETATM   34  O4  UNL     1      17.153   9.251  18.926  1.00  0.00    -0.297 OA
BRANCH  34  35
HETATM   35  C22 UNL     1      15.834   9.488  19.296  1.00  0.00     0.149 C 
HETATM   36  C23 UNL     1      14.931  10.154  18.268  1.00  0.00     0.039 C 
HETATM   37  C24 UNL     1      13.599   9.973  18.893  1.00  0.00    -0.023 C 
HETATM   38  C27 UNL     1      15.077   8.849  17.495  1.00  0.00     0.022 C 
HETATM   39  C25 UNL     1      13.655   8.687  19.325  1.00  0.00    -0.023 C 
HETATM   40  C26 UNL     1      14.991   8.262  18.913  1.00  0.00     0.039 C 
ENDBRANCH  34  35
ENDBRANCH  31  34
ENDBRANCH  15  30
ENDBRANCH  13  15
ENDBRANCH   5   8
ENDBRANCH   3   4
TORSDOF 9
ENDMDL
MODEL 2
REMARK VINA RESULT: -8.499550362      4.383      6.607
REMARK  9 active torsions:
REMARK  status: ('A' for Active; 'I' for Inactive)
REMARK    1  A    between atoms: C3_3  and  N1_4 
REMARK       I    between atoms: N1_4  and  C4_6 
REMARK    2  A    between atoms: C4_6  and  C5_8 
REMARK       I    between atoms: N2_12  and  C9_13 
REMARK    3  A    between atoms: C9_13  and  C10_15 
REMARK    4  A    between atoms: C10_15  and  C11_16 
REMARK    5  A    between atoms: C10_15  and  N5_30 
REMARK    6  A    between atoms: C11_16  and  C12_17 
REMARK    7  A    between atoms: C15_20  and  C16_21 
REMARK       I    between atoms: N5_30  and  C21_32 
REMARK    8  A    between atoms: C21_32  and  O4_34 
REMARK    9  A    between atoms: O4_34  and  C22_35 
ROOT
HETATM    1  C1  UNL     1      24.067  12.062  21.410  1.00  0.00     0.014 C 
HETATM    2  C2  UNL     1      24.297  12.566  20.332  1.00  0.00    -0.098 C 
HETATM    3  C3  UNL     1      24.556  13.177  19.011  1.00  0.00     0.216 C 
ENDROOT
BRANCH   3   4
HETATM    4  N1  UNL     1      23.559  12.773  18.030  1.00  0.00    -0.349 N 
HETATM    5  C4  UNL     1      23.154  13.654  16.976  1.00  0.00     0.241 C 
HETATM    6  O1  UNL     1      23.681  14.793  16.912  1.00  0.00    -0.271 OA
ATOM      7  H1  UNL     1      23.141  11.844  18.095  1.00  0.00     0.163 HD
BRANCH   5   8
HETATM    8  C5  UNL     1      22.151  13.223  16.006  1.00  0.00     0.179 C 
HETATM    9  C6  UNL     1      21.382  12.038  16.555  1.00  0.00     0.037 C 
HETATM   10  C7  UNL     1      20.473  12.636  17.568  1.00  0.00     0.022 C 
HETATM   11  C8  UNL     1      20.258  14.060  17.094  1.00  0.00     0.127 C 
HETATM   12  N2  UNL     1      21.055  14.208  15.901  1.00  0.00    -0.337 N 
HETATM   13  C9  UNL     1      20.841  15.087  14.829  1.00  0.00     0.243 C 
HETATM   14  O2  UNL     1      21.650  15.040  13.827  1.00  0.00    -0.271 OA
BRANCH  13  15
HETATM   15  C10 UNL     1      19.715  16.073  14.787  1.00  0.00     0.179 C 
BRANCH  15  16
HETATM   16  C11 UNL     1      20.192  17.477  14.963  1.00  0.00     0.040 C 
BRANCH  16  17
HETATM   17  C12 UNL     1      20.398  17.924  16.378  1.00  0.00    -0.007 C 
HETATM   18  C13 UNL     1      20.672  19.448  16.339  1.00  0.00     0.011 C 
HETATM   19  C14 UNL     1      19.218  19.648  16.565  1.00  0.00     0.001 C 
HETATM   20  C15 UNL     1      18.779  20.737  17.472  1.00  0.00     0.054 C 
HETATM   21  C20 UNL     1      19.176  18.272  17.190  1.00  0.00    -0.005 C 
HETATM   22  C17 UNL     1      19.543  20.752  18.743  1.00  0.00     0.012 C 
HETATM   23  C18 UNL     1      19.851  19.427  19.348  1.00  0.00     0.001 C 
HETATM   24  C19 UNL     1      19.333  18.228  18.660  1.00  0.00     0.005 C 
BRANCH  20  25
HETATM   25  C16 UNL     1      17.314  20.667  17.635  1.00  0.00     0.091 C 
HETATM   26  N3  UNL     1      16.533  20.643  16.621  1.00  0.00    -0.391 N 
ATOM     27  H32 UNL     1      16.965  20.676  15.698  1.00  0.00     0.157 HD
ATOM     28  H31 UNL     1      15.520  20.595  16.733  1.00  0.00     0.157 HD
HETATM   29  N4  UNL     1      16.707  20.620  18.933  1.00  0.00    -0.088 NA
ENDBRANCH  20  25
ENDBRANCH  16  17
ENDBRANCH  15  16
BRANCH  15  30
HETATM   30  N5  UNL     1      19.063  16.002  13.486  1.00  0.00    -0.324 N 
HETATM   31  C21 UNL     1      17.671  15.994  13.319  1.00  0.00     0.361 C 
HETATM   32  O3  UNL     1      16.965  16.044  14.372  1.00  0.00    -0.238 OA
ATOM     33  H5  UNL     1      19.651  15.957  12.652  1.00  0.00     0.165 HD
BRANCH  31  34
HETATM   34  O4  UNL     1      16.999  15.938  12.120  1.00  0.00    -0.297 OA
BRANCH  34  35
HETATM   35  C22 UNL     1      15.609  15.974  12.099  1.00  0.00     0.149 C 
HETATM   36  C23 UNL     1      14.944  17.323  12.336  1.00  0.00     0.039 C 
HETATM   37  C24 UNL     1      13.542  17.023  11.958  1.00  0.00    -0.023 C 
HETATM   38  C27 UNL     1      15.542  17.701  10.987  1.00  0.00     0.022 C 
HETATM   39  C25 UNL     1      13.698  16.297  10.821  1.00  0.00    -0.023 C 
HETATM   40  C26 UNL     1      15.150  16.251  10.659  1.00  0.00     0.039 C 
ENDBRANCH  34  35
ENDBRANCH  31  34
ENDBRANCH  15  30
ENDBRANCH  13  15
ENDBRANCH   5   8
ENDBRANCH   3   4
TORSDOF 9
ENDMDL
MODEL 3
REMARK VINA RESULT: -8.377079509      4.341      6.722
REMARK  9 active torsions:
REMARK  status: ('A' for Active; 'I' for Inactive)
REMARK    1  A    between atoms: C3_3  and  N1_4 
REMARK       I    between atoms: N1_4  and  C4_6 
REMARK    2  A    between atoms: C4_6  and  C5_8 
REMARK       I    between atoms: N2_12  and  C9_13 
REMARK    3  A    between atoms: C9_13  and  C10_15 
REMARK    4  A    between atoms: C10_15  and  C11_16 
REMARK    5  A    between atoms: C10_15  and  N5_30 
REMARK    6  A    between atoms: C11_16  and  C12_17 
REMARK    7  A    between atoms: C15_20  and  C16_21 
REMARK       I    between atoms: N5_30  and  C21_32 
REMARK    8  A    between atoms: C21_32  and  O4_34 
REMARK    9  A    between atoms: O4_34  and  C22_35 
ROOT
HETATM    1  C1  UNL     1      23.805  12.192  21.529  1.00  0.00     0.014 C 
HETATM    2  C2  UNL     1      24.057  12.650  20.435  1.00  0.00    -0.098 C 
HETATM    3  C3  UNL     1      24.342  13.206  19.095  1.00  0.00     0.216 C 
ENDROOT
BRANCH   3   4
HETATM    4  N1  UNL     1      23.307  12.848  18.136  1.00  0.00    -0.349 N 
HETATM    5  C4  UNL     1      23.026  13.679  17.003  1.00  0.00     0.241 C 
HETATM    6  O1  UNL     1      23.696  14.730  16.850  1.00  0.00    -0.271 OA
ATOM      7  H1  UNL     1      22.772  11.991  18.274  1.00  0.00     0.163 HD
BRANCH   5   8
HETATM    8  C5  UNL     1      21.982  13.296  16.057  1.00  0.00     0.179 C 
HETATM    9  C6  UNL     1      21.122  12.201  16.656  1.00  0.00     0.037 C 
HETATM   10  C7  UNL     1      20.275  12.911  17.651  1.00  0.00     0.022 C 
HETATM   11  C8  UNL     1      20.175  14.329  17.124  1.00  0.00     0.127 C 
HETATM   12  N2  UNL     1      20.971  14.365  15.921  1.00  0.00    -0.337 N 
HETATM   13  C9  UNL     1      20.819  15.217  14.817  1.00  0.00     0.243 C 
HETATM   14  O2  UNL     1      21.612  15.065  13.813  1.00  0.00    -0.271 OA
BRANCH  13  15
HETATM   15  C10 UNL     1      19.779  16.291  14.744  1.00  0.00     0.179 C 
BRANCH  15  16
HETATM   16  C11 UNL     1      20.372  17.656  14.866  1.00  0.00     0.040 C 
BRANCH  16  17
HETATM   17  C12 UNL     1      19.501  18.692  15.509  1.00  0.00    -0.007 C 
HETATM   18  C13 UNL     1      18.549  17.950  16.479  1.00  0.00     0.011 C 
HETATM   19  C14 UNL     1      19.539  18.222  17.552  1.00  0.00     0.001 C 
HETATM   20  C15 UNL     1      19.046  18.592  18.901  1.00  0.00     0.054 C 
HETATM   21  C20 UNL     1      20.031  19.394  16.733  1.00  0.00    -0.005 C 
HETATM   22  C17 UNL     1      17.989  19.631  18.848  1.00  0.00     0.012 C 
HETATM   23  C18 UNL     1      18.183  20.724  17.856  1.00  0.00     0.001 C 
HETATM   24  C19 UNL     1      19.420  20.702  17.052  1.00  0.00     0.005 C 
BRANCH  20  25
HETATM   25  C16 UNL     1      20.199  18.930  19.759  1.00  0.00     0.091 C 
HETATM   26  N3  UNL     1      21.186  18.126  19.893  1.00  0.00    -0.391 N 
ATOM     27  H32 UNL     1      21.142  17.243  19.383  1.00  0.00     0.157 HD
ATOM     28  H31 UNL     1      21.982  18.359  20.486  1.00  0.00     0.157 HD
HETATM   29  N4  UNL     1      20.261  20.170  20.474  1.00  0.00    -0.088 NA
ENDBRANCH  20  25
ENDBRANCH  16  17
ENDBRANCH  15  16
BRANCH  15  30
HETATM   30  N5  UNL     1      19.113  16.227  13.450  1.00  0.00    -0.324 N 
HETATM   31  C21 UNL     1      17.734  16.023  13.301  1.00  0.00     0.361 C 
HETATM   32  O3  UNL     1      17.055  15.882  14.363  1.00  0.00    -0.238 OA
ATOM     33  H5  UNL     1      19.680  16.338  12.608  1.00  0.00     0.165 HD
BRANCH  31  34
HETATM   34  O4  UNL     1      17.048  15.962  12.109  1.00  0.00    -0.297 OA
BRANCH  34  35
HETATM   35  C22 UNL     1      15.658  15.981  12.105  1.00  0.00     0.149 C 
HETATM   36  C23 UNL     1      14.979  17.317  12.370  1.00  0.00     0.039 C 
HETATM   37  C24 UNL     1      13.576  17.004  12.004  1.00  0.00    -0.023 C 
HETATM   38  C27 UNL     1      15.555  17.723  11.020  1.00  0.00     0.022 C 
HETATM   39  C25 UNL     1      13.728  16.297  10.855  1.00  0.00    -0.023 C 
HETATM   40  C26 UNL     1      15.178  16.273  10.675  1.00  0.00     0.039 C 
ENDBRANCH  34  35
ENDBRANCH  31  34
ENDBRANCH  15  30
ENDBRANCH  13  15
ENDBRANCH   5   8
ENDBRANCH   3   4
TORSDOF 9
ENDMDL
MODEL 4
REMARK VINA RESULT: -8.145917260      2.975      6.441
REMARK  9 active torsions:
REMARK  status: ('A' for Active; 'I' for Inactive)
REMARK    1  A    between atoms: C3_3  and  N1_4 
REMARK       I    between atoms: N1_4  and  C4_6 
REMARK    2  A    between atoms: C4_6  and  C5_8 
REMARK       I    between atoms: N2_12  and  C9_13 
REMARK    3  A    between atoms: C9_13  and  C10_15 
REMARK    4  A    between atoms: C10_15  and  C11_16 
REMARK    5  A    between atoms: C10_15  and  N5_30 
REMARK    6  A    between atoms: C11_16  and  C12_17 
REMARK    7  A    between atoms: C15_20  and  C16_21 
REMARK       I    between atoms: N5_30  and  C21_32 
REMARK    8  A    between atoms: C21_32  and  O4_34 
REMARK    9  A    between atoms: O4_34  and  C22_35 
ROOT
HETATM    1  C1  UNL     1      20.070  18.909  20.305  1.00  0.00     0.014 C 
HETATM    2  C2  UNL     1      19.463  18.846  19.258  1.00  0.00    -0.098 C 
HETATM    3  C3  UNL     1      18.723  18.747  17.982  1.00  0.00     0.216 C 
ENDROOT
BRANCH   3   4
HETATM    4  N1  UNL     1      18.813  17.409  17.414  1.00  0.00    -0.349 N 
HETATM    5  C4  UNL     1      18.320  17.126  16.099  1.00  0.00     0.241 C 
HETATM    6  O1  UNL     1      17.805  18.062  15.438  1.00  0.00    -0.271 OA
ATOM      7  H1  UNL     1      19.235  16.660  17.963  1.00  0.00     0.163 HD
BRANCH   5   8
HETATM    8  C5  UNL     1      18.423  15.776  15.554  1.00  0.00     0.179 C 
HETATM    9  C6  UNL     1      18.656  15.842  14.058  1.00  0.00     0.037 C 
HETATM   10  C7  UNL     1      20.082  16.245  13.932  1.00  0.00     0.022 C 
HETATM   11  C8  UNL     1      20.735  15.737  15.203  1.00  0.00     0.127 C 
HETATM   12  N2  UNL     1      19.681  15.127  15.977  1.00  0.00    -0.337 N 
HETATM   13  C9  UNL     1      19.798  14.103  16.929  1.00  0.00     0.243 C 
HETATM   14  O2  UNL     1      18.725  13.662  17.488  1.00  0.00    -0.271 OA
BRANCH  13  15
HETATM   15  C10 UNL     1      21.107  13.492  17.323  1.00  0.00     0.179 C 
BRANCH  15  16
HETATM   16  C11 UNL     1      22.183  14.517  17.471  1.00  0.00     0.040 C 
BRANCH  16  17
HETATM   17  C12 UNL     1      23.545  14.106  17.002  1.00  0.00    -0.007 C 
HETATM   18  C13 UNL     1      24.118  15.284  16.175  1.00  0.00     0.011 C 
HETATM   19  C14 UNL     1      24.770  15.756  17.422  1.00  0.00     0.001 C 
HETATM   20  C15 UNL     1      26.144  16.311  17.344  1.00  0.00     0.054 C 
HETATM   21  C20 UNL     1      24.707  14.335  17.934  1.00  0.00    -0.005 C 
HETATM   22  C17 UNL     1      27.049  15.459  16.536  1.00  0.00     0.012 C 
HETATM   23  C18 UNL     1      26.903  13.987  16.708  1.00  0.00     0.001 C 
HETATM   24  C19 UNL     1      25.912  13.512  17.693  1.00  0.00     0.005 C 
BRANCH  20  25
HETATM   25  C16 UNL     1      26.624  16.599  18.710  1.00  0.00     0.091 C 
HETATM   26  N3  UNL     1      25.914  17.269  19.537  1.00  0.00    -0.391 N 
ATOM     27  H32 UNL     1      25.003  17.596  19.214  1.00  0.00     0.157 HD
ATOM     28  H31 UNL     1      26.246  17.468  20.481  1.00  0.00     0.157 HD
HETATM   29  N4  UNL     1      27.903  16.139  19.164  1.00  0.00    -0.088 NA
ENDBRANCH  20  25
ENDBRANCH  16  17
ENDBRANCH  15  16
BRANCH  15  30
HETATM   30  N5  UNL     1      20.960  12.837  18.616  1.00  0.00    -0.324 N 
HETATM   31  C21 UNL     1      21.143  11.459  18.807  1.00  0.00     0.361 C 
HETATM   32  O3  UNL     1      21.443  10.770  17.786  1.00  0.00    -0.238 OA
ATOM     33  H5  UNL     1      20.713  13.409  19.424  1.00  0.00     0.165 HD
BRANCH  31  34
HETATM   34  O4  UNL     1      21.027  10.785  20.002  1.00  0.00    -0.297 OA
BRANCH  34  35
HETATM   35  C22 UNL     1      20.976   9.396  20.014  1.00  0.00     0.149 C 
HETATM   36  C23 UNL     1      20.747   8.720  21.358  1.00  0.00     0.039 C 
HETATM   37  C24 UNL     1      20.468   7.326  20.936  1.00  0.00    -0.023 C 
HETATM   38  C27 UNL     1      19.357   9.338  21.279  1.00  0.00     0.022 C 
HETATM   39  C25 UNL     1      19.636   7.506  19.879  1.00  0.00    -0.023 C 
HETATM   40  C26 UNL     1      19.518   8.960  19.798  1.00  0.00     0.039 C 
ENDBRANCH  34  35
ENDBRANCH  31  34
ENDBRANCH  15  30
ENDBRANCH  13  15
ENDBRANCH   5   8
ENDBRANCH   3   4
TORSDOF 9
ENDMDL
MODEL 5
REMARK VINA RESULT: -8.119820313      3.169      6.645
REMARK  9 active torsions:
REMARK  status: ('A' for Active; 'I' for Inactive)
REMARK    1  A    between atoms: C3_3  and  N1_4 
REMARK       I    between atoms: N1_4  and  C4_6 
REMARK    2  A    between atoms: C4_6  and  C5_8 
REMARK       I    between atoms: N2_12  and  C9_13 
REMARK    3  A    between atoms: C9_13  and  C10_15 
REMARK    4  A    between atoms: C10_15  and  C11_16 
REMARK    5  A    between atoms: C10_15  and  N5_30 
REMARK    6  A    between atoms: C11_16  and  C12_17 
REMARK    7  A    between atoms: C15_20  and  C16_21 
REMARK       I    between atoms: N5_30  and  C21_32 
REMARK    8  A    between atoms: C21_32  and  O4_34 
REMARK    9  A    between atoms: O4_34  and  C22_35 
ROOT
HETATM    1  C1  UNL     1      19.986  18.961  20.309  1.00  0.00     0.014 C 
HETATM    2  C2  UNL     1      19.507  18.996  19.196  1.00  0.00    -0.098 C 
HETATM    3  C3  UNL     1      18.919  19.015  17.840  1.00  0.00     0.216 C 
ENDROOT
BRANCH   3   4
HETATM    4  N1  UNL     1      18.832  17.676  17.275  1.00  0.00    -0.349 N 
HETATM    5  C4  UNL     1      18.224  17.447  15.998  1.00  0.00     0.241 C 
HETATM    6  O1  UNL     1      17.766  18.431  15.368  1.00  0.00    -0.271 OA
ATOM      7  H1  UNL     1      19.210  16.886  17.799  1.00  0.00     0.163 HD
BRANCH   5   8
HETATM    8  C5  UNL     1      18.150  16.093  15.456  1.00  0.00     0.179 C 
HETATM    9  C6  UNL     1      18.239  16.140  13.944  1.00  0.00     0.037 C 
HETATM   10  C7  UNL     1      19.677  16.411  13.676  1.00  0.00     0.022 C 
HETATM   11  C8  UNL     1      20.403  15.844  14.880  1.00  0.00     0.127 C 
HETATM   12  N2  UNL     1      19.379  15.331  15.758  1.00  0.00    -0.337 N 
HETATM   13  C9  UNL     1      19.495  14.300  16.702  1.00  0.00     0.243 C 
HETATM   14  O2  UNL     1      18.446  13.958  17.367  1.00  0.00    -0.271 OA
BRANCH  13  15
HETATM   15  C10 UNL     1      20.775  13.572  16.971  1.00  0.00     0.179 C 
BRANCH  15  16
HETATM   16  C11 UNL     1      21.883  14.502  17.341  1.00  0.00     0.040 C 
BRANCH  16  17
HETATM   17  C12 UNL     1      23.264  14.055  16.967  1.00  0.00    -0.007 C 
HETATM   18  C13 UNL     1      23.885  15.173  16.094  1.00  0.00     0.011 C 
HETATM   19  C14 UNL     1      24.479  15.723  17.338  1.00  0.00     0.001 C 
HETATM   20  C15 UNL     1      25.859  16.265  17.291  1.00  0.00     0.054 C 
HETATM   21  C20 UNL     1      24.381  14.339  17.939  1.00  0.00    -0.005 C 
HETATM   22  C17 UNL     1      26.796  15.358  16.586  1.00  0.00     0.012 C 
HETATM   23  C18 UNL     1      26.631  13.901  16.847  1.00  0.00     0.001 C 
HETATM   24  C19 UNL     1      25.589  13.496  17.811  1.00  0.00     0.005 C 
BRANCH  20  25
HETATM   25  C16 UNL     1      26.275  16.641  18.657  1.00  0.00     0.091 C 
HETATM   26  N3  UNL     1      25.492  17.287  19.436  1.00  0.00    -0.391 N 
ATOM     27  H32 UNL     1      24.571  17.533  19.074  1.00  0.00     0.157 HD
ATOM     28  H31 UNL     1      25.780  17.547  20.380  1.00  0.00     0.157 HD
HETATM   29  N4  UNL     1      27.570  16.295  19.166  1.00  0.00    -0.088 NA
ENDBRANCH  20  25
ENDBRANCH  16  17
ENDBRANCH  15  16
BRANCH  15  30
HETATM   30  N5  UNL     1      20.585  12.664  18.094  1.00  0.00    -0.324 N 
HETATM   31  C21 UNL     1      20.876  11.293  18.038  1.00  0.00     0.361 C 
HETATM   32  O3  UNL     1      21.321  10.844  16.938  1.00  0.00    -0.238 OA
ATOM     33  H5  UNL     1      20.221  13.046  18.968  1.00  0.00     0.165 HD
BRANCH  31  34
HETATM   34  O4  UNL     1      20.726  10.390  19.065  1.00  0.00    -0.297 OA
BRANCH  34  35
HETATM   35  C22 UNL     1      20.731  10.831  20.384  1.00  0.00     0.149 C 
HETATM   36  C23 UNL     1      19.865  10.069  21.376  1.00  0.00     0.039 C 
HETATM   37  C24 UNL     1      20.346  10.623  22.664  1.00  0.00    -0.023 C 
HETATM   38  C27 UNL     1      20.852   8.930  21.154  1.00  0.00     0.022 C 
HETATM   39  C25 UNL     1      21.692  10.637  22.488  1.00  0.00    -0.023 C 
HETATM   40  C26 UNL     1      21.851  10.098  21.139  1.00  0.00     0.039 C 
ENDBRANCH  34  35
ENDBRANCH  31  34
ENDBRANCH  15  30
ENDBRANCH  13  15
ENDBRANCH   5   8
ENDBRANCH   3   4
TORSDOF 9
ENDMDL
