MODEL 1
REMARK VINA RESULT: -9.233110943      0.000      0.000
REMARK  8 active torsions:
REMARK  status: ('A' for Active; 'I' for Inactive)
REMARK    1  A    between atoms: C2_2  and  C3_3 
REMARK    2  A    between atoms: C2_2  and  N2_6 
REMARK    3  A    between atoms: N2_6  and  C4_7 
REMARK       I    between atoms: N2_6  and  C21_29 
REMARK    4  A    between atoms: C4_7  and  C5_8 
REMARK    5  A    between atoms: C8_11  and  O2_12 
REMARK    6  A    between atoms: C11_16  and  C12_17 
REMARK       I    between atoms: C12_17  and  N3_19 
REMARK    7  A    between atoms: N3_19  and  C13_21 
REMARK       I    between atoms: C21_29  and  N4_31 
REMARK    8  A    between atoms: N4_31  and  C22_33 
ROOT
HETATM    1  C5  UNL     1      20.150  11.949  17.929  1.00  0.00     0.026 C 
HETATM    2  C6  UNL     1      19.292  13.078  17.397  1.00  0.00     0.018 C 
HETATM    3  C7  UNL     1      20.301  14.218  17.295  1.00  0.00     0.033 C 
HETATM    4  C8  UNL     1      19.978  15.213  16.239  1.00  0.00     0.123 C 
HETATM    5  C9  UNL     1      21.047  15.127  15.175  1.00  0.00     0.033 C 
HETATM    6  C10 UNL     1      21.794  13.836  15.445  1.00  0.00     0.022 C 
HETATM    7  C11 UNL     1      21.585  13.572  16.937  1.00  0.00     0.048 C 
HETATM    8  C20 UNL     1      21.386  12.101  17.126  1.00  0.00     0.029 C 
ENDROOT
BRANCH   1   9
HETATM    9  C4  UNL     1      19.523  10.634  18.039  1.00  0.00     0.074 C 
BRANCH   9  10
HETATM   10  N2  UNL     1      18.935  10.173  19.249  1.00  0.00    -0.300 N 
HETATM   11  C21 UNL     1      17.536  10.004  19.322  1.00  0.00     0.323 C 
HETATM   12  O4  UNL     1      17.034   9.581  20.412  1.00  0.00    -0.247 OA
HETATM   13  N4  UNL     1      16.601  10.256  18.286  1.00  0.00    -0.338 N 
ATOM     14  H4  UNL     1      16.948  10.591  17.387  1.00  0.00     0.164 HD
BRANCH  10  15
HETATM   15  C2  UNL     1      19.738   9.854  20.388  1.00  0.00     0.178 C 
HETATM   16  C1  UNL     1      21.108  10.519  20.325  1.00  0.00     0.042 C 
BRANCH  15  17
HETATM   17  C3  UNL     1      19.975   8.443  20.680  1.00  0.00     0.254 C 
HETATM   18  N1  UNL     1      20.421   7.540  19.706  1.00  0.00    -0.060 NA
HETATM   19  O1  UNL     1      19.770   8.021  21.843  1.00  0.00    -0.275 OA
ENDBRANCH  15  17
ENDBRANCH  10  15
BRANCH  13  20
HETATM   20  C22 UNL     1      15.179  10.058  18.446  1.00  0.00     0.086 C 
HETATM   21  C23 UNL     1      14.430  10.776  17.314  1.00  0.00     0.025 C 
HETATM   22  C24 UNL     1      12.988  10.857  17.767  1.00  0.00     0.002 C 
HETATM   23  C25 UNL     1      12.442   9.477  17.898  1.00  0.00     0.000 C 
HETATM   24  C26 UNL     1      13.291   8.522  18.659  1.00  0.00     0.002 C 
HETATM   25  C27 UNL     1      14.756   8.630  18.404  1.00  0.00     0.025 C 
ENDBRANCH  13  20
ENDBRANCH   9  10
ENDBRANCH   1   9
BRANCH   7  26
HETATM   26  C12 UNL     1      22.736  14.112  17.715  1.00  0.00     0.227 C 
HETATM   27  O3  UNL     1      22.575  14.211  18.969  1.00  0.00    -0.273 OA
HETATM   28  N3  UNL     1      23.964  14.515  17.184  1.00  0.00    -0.355 N 
ATOM     29  H3  UNL     1      24.117  14.444  16.178  1.00  0.00     0.162 HD
BRANCH  28  30
HETATM   30  C13 UNL     1      25.025  15.031  18.025  1.00  0.00     0.088 C 
HETATM   31  C14 UNL     1      25.033  16.547  18.061  1.00  0.00     0.030 C 
HETATM   32  C15 UNL     1      26.485  16.850  17.785  1.00  0.00    -0.012 C 
HETATM   33  C16 UNL     1      27.353  16.254  18.871  1.00  0.00     0.005 C 
HETATM   34  C19 UNL     1      26.742  15.832  16.659  1.00  0.00     0.011 C 
HETATM   35  C17 UNL     1      27.369  14.747  18.621  1.00  0.00     0.007 C 
HETATM   36  C18 UNL     1      26.380  14.601  17.511  1.00  0.00     0.009 C 
ENDBRANCH  28  30
ENDBRANCH   7  26
BRANCH   4  37
HETATM   37  O2  UNL     1      18.705  15.023  15.691  1.00  0.00    -0.395 OA
ATOM     38  H2  UNL     1      18.736  14.653  14.816  1.00  0.00     0.210 HD
ENDBRANCH   4  37
TORSDOF 8
ENDMDL
MODEL 2
REMARK VINA RESULT: -9.089293017      3.839      7.970
REMARK  8 active torsions:
REMARK  status: ('A' for Active; 'I' for Inactive)
REMARK    1  A    between atoms: C2_2  and  C3_3 
REMARK    2  A    between atoms: C2_2  and  N2_6 
REMARK    3  A    between atoms: N2_6  and  C4_7 
REMARK       I    between atoms: N2_6  and  C21_29 
REMARK    4  A    between atoms: C4_7  and  C5_8 
REMARK    5  A    between atoms: C8_11  and  O2_12 
REMARK    6  A    between atoms: C11_16  and  C12_17 
REMARK       I    between atoms: C12_17  and  N3_19 
REMARK    7  A    between atoms: N3_19  and  C13_21 
REMARK       I    between atoms: C21_29  and  N4_31 
REMARK    8  A    between atoms: N4_31  and  C22_33 
ROOT
HETATM    1  C5  UNL     1      20.839  14.999  15.326  1.00  0.00     0.026 C 
HETATM    2  C6  UNL     1      21.399  16.303  14.798  1.00  0.00     0.018 C 
HETATM    3  C7  UNL     1      20.129  17.073  14.450  1.00  0.00     0.033 C 
HETATM    4  C8  UNL     1      20.280  18.549  14.537  1.00  0.00     0.123 C 
HETATM    5  C9  UNL     1      19.409  19.040  15.671  1.00  0.00     0.033 C 
HETATM    6  C10 UNL     1      19.030  17.805  16.463  1.00  0.00     0.022 C 
HETATM    7  C11 UNL     1      19.130  16.654  15.460  1.00  0.00     0.048 C 
HETATM    8  C20 UNL     1      19.712  15.469  16.165  1.00  0.00     0.029 C 
ENDROOT
BRANCH   1   9
HETATM    9  C4  UNL     1      21.793  14.041  15.880  1.00  0.00     0.074 C 
BRANCH   9  10
HETATM   10  N2  UNL     1      22.175  14.058  17.250  1.00  0.00    -0.300 N 
HETATM   11  C21 UNL     1      21.625  13.108  18.137  1.00  0.00     0.323 C 
HETATM   12  O4  UNL     1      21.990  13.137  19.356  1.00  0.00    -0.247 OA
HETATM   13  N4  UNL     1      20.690  12.094  17.812  1.00  0.00    -0.338 N 
ATOM     14  H4  UNL     1      20.366  12.019  16.848  1.00  0.00     0.164 HD
BRANCH  10  15
HETATM   15  C2  UNL     1      23.125  15.006  17.742  1.00  0.00     0.178 C 
HETATM   16  C1  UNL     1      22.463  16.315  18.155  1.00  0.00     0.042 C 
BRANCH  15  17
HETATM   17  C3  UNL     1      24.243  15.363  16.874  1.00  0.00     0.254 C 
HETATM   18  N1  UNL     1      24.417  16.659  16.368  1.00  0.00    -0.060 NA
HETATM   19  O1  UNL     1      25.078  14.481  16.564  1.00  0.00    -0.275 OA
ENDBRANCH  15  17
ENDBRANCH  10  15
BRANCH  13  20
HETATM   20  C22 UNL     1      20.174  11.160  18.786  1.00  0.00     0.086 C 
HETATM   21  C23 UNL     1      18.785  10.674  18.347  1.00  0.00     0.025 C 
HETATM   22  C24 UNL     1      18.168  10.038  19.574  1.00  0.00     0.002 C 
HETATM   23  C25 UNL     1      18.982   8.855  19.970  1.00  0.00     0.000 C 
HETATM   24  C26 UNL     1      20.450   9.085  20.047  1.00  0.00     0.002 C 
HETATM   25  C27 UNL     1      21.018   9.945  18.969  1.00  0.00     0.025 C 
ENDBRANCH  13  20
ENDBRANCH   9  10
ENDBRANCH   1   9
BRANCH   7  26
HETATM   26  C12 UNL     1      17.791  16.381  14.864  1.00  0.00     0.227 C 
HETATM   27  O3  UNL     1      16.989  15.693  15.563  1.00  0.00    -0.273 OA
HETATM   28  N3  UNL     1      17.352  16.816  13.610  1.00  0.00    -0.355 N 
ATOM     29  H3  UNL     1      17.979  17.373  13.029  1.00  0.00     0.162 HD
BRANCH  28  30
HETATM   30  C13 UNL     1      16.028  16.497  13.115  1.00  0.00     0.088 C 
HETATM   31  C14 UNL     1      16.081  15.578  11.910  1.00  0.00     0.030 C 
HETATM   32  C15 UNL     1      15.163  16.289  10.946  1.00  0.00    -0.012 C 
HETATM   33  C16 UNL     1      13.770  16.379  11.528  1.00  0.00     0.005 C 
HETATM   34  C19 UNL     1      15.635  17.736  11.175  1.00  0.00     0.011 C 
HETATM   35  C17 UNL     1      13.837  17.441  12.625  1.00  0.00     0.007 C 
HETATM   36  C18 UNL     1      15.299  17.747  12.678  1.00  0.00     0.009 C 
ENDBRANCH  28  30
ENDBRANCH   7  26
BRANCH   4  37
HETATM   37  O2  UNL     1      21.609  18.946  14.716  1.00  0.00    -0.395 OA
ATOM     38  H2  UNL     1      22.114  18.907  13.913  1.00  0.00     0.210 HD
ENDBRANCH   4  37
TORSDOF 8
ENDMDL
MODEL 3
REMARK VINA RESULT: -9.032496908      5.149      7.510
REMARK  8 active torsions:
REMARK  status: ('A' for Active; 'I' for Inactive)
REMARK    1  A    between atoms: C2_2  and  C3_3 
REMARK    2  A    between atoms: C2_2  and  N2_6 
REMARK    3  A    between atoms: N2_6  and  C4_7 
REMARK       I    between atoms: N2_6  and  C21_29 
REMARK    4  A    between atoms: C4_7  and  C5_8 
REMARK    5  A    between atoms: C8_11  and  O2_12 
REMARK    6  A    between atoms: C11_16  and  C12_17 
REMARK       I    between atoms: C12_17  and  N3_19 
REMARK    7  A    between atoms: N3_19  and  C13_21 
REMARK       I    between atoms: C21_29  and  N4_31 
REMARK    8  A    between atoms: N4_31  and  C22_33 
ROOT
HETATM    1  C5  UNL     1      19.719  16.861  16.896  1.00  0.00     0.026 C 
HETATM    2  C6  UNL     1      20.529  17.086  15.636  1.00  0.00     0.018 C 
HETATM    3  C7  UNL     1      21.784  16.267  15.919  1.00  0.00     0.033 C 
HETATM    4  C8  UNL     1      22.449  15.748  14.695  1.00  0.00     0.123 C 
HETATM    5  C9  UNL     1      22.331  14.241  14.705  1.00  0.00     0.033 C 
HETATM    6  C10 UNL     1      21.289  13.917  15.756  1.00  0.00     0.022 C 
HETATM    7  C11 UNL     1      21.322  15.107  16.716  1.00  0.00     0.048 C 
HETATM    8  C20 UNL     1      19.916  15.411  17.129  1.00  0.00     0.029 C 
ENDROOT
BRANCH   1   9
HETATM    9  C4  UNL     1      18.366  17.414  16.924  1.00  0.00     0.074 C 
BRANCH   9  10
HETATM   10  N2  UNL     1      18.026  18.619  16.251  1.00  0.00    -0.300 N 
HETATM   11  C21 UNL     1      17.250  18.563  15.073  1.00  0.00     0.323 C 
HETATM   12  O4  UNL     1      16.950  19.655  14.494  1.00  0.00    -0.247 OA
HETATM   13  N4  UNL     1      16.749  17.393  14.449  1.00  0.00    -0.338 N 
ATOM     14  H4  UNL     1      16.954  16.488  14.873  1.00  0.00     0.164 HD
BRANCH  10  15
HETATM   15  C2  UNL     1      18.436  19.892  16.757  1.00  0.00     0.178 C 
HETATM   16  C1  UNL     1      19.908  20.170  16.477  1.00  0.00     0.042 C 
BRANCH  15  17
HETATM   17  C3  UNL     1      18.227  20.159  18.177  1.00  0.00     0.254 C 
HETATM   18  N1  UNL     1      16.993  20.584  18.686  1.00  0.00    -0.060 NA
HETATM   19  O1  UNL     1      19.185  20.008  18.971  1.00  0.00    -0.275 OA
ENDBRANCH  15  17
ENDBRANCH  10  15
BRANCH  13  20
HETATM   20  C22 UNL     1      15.962  17.424  13.238  1.00  0.00     0.086 C 
HETATM   21  C23 UNL     1      16.445  16.325  12.282  1.00  0.00     0.025 C 
HETATM   22  C24 UNL     1      15.862  16.674  10.930  1.00  0.00     0.002 C 
HETATM   23  C25 UNL     1      14.376  16.613  11.011  1.00  0.00     0.000 C 
HETATM   24  C26 UNL     1      13.768  17.327  12.167  1.00  0.00     0.002 C 
HETATM   25  C27 UNL     1      14.505  17.196  13.456  1.00  0.00     0.025 C 
ENDBRANCH  13  20
ENDBRANCH   9  10
ENDBRANCH   1   9
BRANCH   7  26
HETATM   26  C12 UNL     1      22.219  14.809  17.867  1.00  0.00     0.227 C 
HETATM   27  O3  UNL     1      22.791  15.800  18.412  1.00  0.00    -0.273 OA
HETATM   28  N3  UNL     1      22.481  13.540  18.391  1.00  0.00    -0.355 N 
ATOM     29  H3  UNL     1      22.031  12.726  17.971  1.00  0.00     0.162 HD
BRANCH  28  30
HETATM   30  C13 UNL     1      23.374  13.350  19.516  1.00  0.00     0.088 C 
HETATM   31  C14 UNL     1      24.735  12.843  19.080  1.00  0.00     0.030 C 
HETATM   32  C15 UNL     1      24.943  11.682  20.021  1.00  0.00    -0.012 C 
HETATM   33  C16 UNL     1      24.954  12.171  21.452  1.00  0.00     0.005 C 
HETATM   34  C19 UNL     1      23.534  11.064  19.969  1.00  0.00     0.011 C 
HETATM   35  C17 UNL     1      23.503  12.505  21.797  1.00  0.00     0.007 C 
HETATM   36  C18 UNL     1      22.818  12.327  20.481  1.00  0.00     0.009 C 
ENDBRANCH  28  30
ENDBRANCH   7  26
BRANCH   4  37
HETATM   37  O2  UNL     1      21.915  16.286  13.520  1.00  0.00    -0.395 OA
ATOM     38  H2  UNL     1      22.408  17.033  13.202  1.00  0.00     0.210 HD
ENDBRANCH   4  37
TORSDOF 8
ENDMDL
MODEL 4
REMARK VINA RESULT: -9.013246994      2.119      8.673
REMARK  8 active torsions:
REMARK  status: ('A' for Active; 'I' for Inactive)
REMARK    1  A    between atoms: C2_2  and  C3_3 
REMARK    2  A    between atoms: C2_2  and  N2_6 
REMARK    3  A    between atoms: N2_6  and  C4_7 
REMARK       I    between atoms: N2_6  and  C21_29 
REMARK    4  A    between atoms: C4_7  and  C5_8 
REMARK    5  A    between atoms: C8_11  and  O2_12 
REMARK    6  A    between atoms: C11_16  and  C12_17 
REMARK       I    between atoms: C12_17  and  N3_19 
REMARK    7  A    between atoms: N3_19  and  C13_21 
REMARK       I    between atoms: C21_29  and  N4_31 
REMARK    8  A    between atoms: N4_31  and  C22_33 
ROOT
HETATM    1  C5  UNL     1      20.611  11.470  18.629  1.00  0.00     0.026 C 
HETATM    2  C6  UNL     1      21.137  11.035  19.981  1.00  0.00     0.018 C 
HETATM    3  C7  UNL     1      19.941  10.282  20.556  1.00  0.00     0.033 C 
HETATM    4  C8  UNL     1      20.313   9.213  21.520  1.00  0.00     0.123 C 
HETATM    5  C9  UNL     1      19.945   7.883  20.905  1.00  0.00     0.033 C 
HETATM    6  C10 UNL     1      19.685   8.165  19.439  1.00  0.00     0.022 C 
HETATM    7  C11 UNL     1      19.287   9.641  19.392  1.00  0.00     0.048 C 
HETATM    8  C20 UNL     1      19.903  10.251  18.172  1.00  0.00     0.029 C 
ENDROOT
BRANCH   1   9
HETATM    9  C4  UNL     1      21.554  12.130  17.730  1.00  0.00     0.074 C 
BRANCH   9  10
HETATM   10  N2  UNL     1      21.946  13.486  17.905  1.00  0.00    -0.300 N 
HETATM   11  C21 UNL     1      21.197  14.511  17.290  1.00  0.00     0.323 C 
HETATM   12  O4  UNL     1      21.561  15.717  17.470  1.00  0.00    -0.247 OA
HETATM   13  N4  UNL     1      20.049  14.345  16.475  1.00  0.00    -0.338 N 
ATOM     14  H4  UNL     1      19.708  13.399  16.301  1.00  0.00     0.164 HD
BRANCH  10  15
HETATM   15  C2  UNL     1      23.072  13.832  18.714  1.00  0.00     0.178 C 
HETATM   16  C1  UNL     1      24.363  13.212  18.192  1.00  0.00     0.042 C 
BRANCH  15  17
HETATM   17  C3  UNL     1      23.010  13.519  20.139  1.00  0.00     0.254 C 
HETATM   18  N1  UNL     1      23.918  12.649  20.756  1.00  0.00    -0.060 NA
HETATM   19  O1  UNL     1      22.110  14.043  20.838  1.00  0.00    -0.275 OA
ENDBRANCH  15  17
ENDBRANCH  10  15
BRANCH  13  20
HETATM   20  C22 UNL     1      19.341  15.453  15.879  1.00  0.00     0.086 C 
HETATM   21  C23 UNL     1      19.676  15.533  14.383  1.00  0.00     0.025 C 
HETATM   22  C24 UNL     1      19.230  16.909  13.937  1.00  0.00     0.002 C 
HETATM   23  C25 UNL     1      17.753  17.018  14.100  1.00  0.00     0.000 C 
HETATM   24  C26 UNL     1      17.220  16.575  15.417  1.00  0.00     0.002 C 
HETATM   25  C27 UNL     1      17.857  15.352  15.984  1.00  0.00     0.025 C 
ENDBRANCH  13  20
ENDBRANCH   9  10
ENDBRANCH   1   9
BRANCH   7  26
HETATM   26  C12 UNL     1      17.803   9.770  19.426  1.00  0.00     0.227 C 
HETATM   27  O3  UNL     1      17.270   9.880  20.571  1.00  0.00    -0.273 OA
HETATM   28  N3  UNL     1      16.958   9.777  18.313  1.00  0.00    -0.355 N 
ATOM     29  H3  UNL     1      17.364   9.691  17.381  1.00  0.00     0.162 HD
BRANCH  28  30
HETATM   30  C13 UNL     1      15.521   9.905  18.449  1.00  0.00     0.088 C 
HETATM   31  C14 UNL     1      14.854   8.566  18.694  1.00  0.00     0.030 C 
HETATM   32  C15 UNL     1      13.741   8.590  17.677  1.00  0.00    -0.012 C 
HETATM   33  C16 UNL     1      12.807   9.747  17.958  1.00  0.00     0.005 C 
HETATM   34  C19 UNL     1      14.513   9.165  16.476  1.00  0.00     0.011 C 
HETATM   35  C17 UNL     1      13.555  11.008  17.527  1.00  0.00     0.007 C 
HETATM   36  C18 UNL     1      14.908  10.473  17.189  1.00  0.00     0.009 C 
ENDBRANCH  28  30
ENDBRANCH   7  26
BRANCH   4  37
HETATM   37  O2  UNL     1      21.668   9.248  21.869  1.00  0.00    -0.395 OA
ATOM     38  H2  UNL     1      22.026   8.384  22.032  1.00  0.00     0.210 HD
ENDBRANCH   4  37
TORSDOF 8
ENDMDL
MODEL 5
REMARK VINA RESULT: -8.956266133      1.737      9.948
REMARK  8 active torsions:
REMARK  status: ('A' for Active; 'I' for Inactive)
REMARK    1  A    between atoms: C2_2  and  C3_3 
REMARK    2  A    between atoms: C2_2  and  N2_6 
REMARK    3  A    between atoms: N2_6  and  C4_7 
REMARK       I    between atoms: N2_6  and  C21_29 
REMARK    4  A    between atoms: C4_7  and  C5_8 
REMARK    5  A    between atoms: C8_11  and  O2_12 
REMARK    6  A    between atoms: C11_16  and  C12_17 
REMARK       I    between atoms: C12_17  and  N3_19 
REMARK    7  A    between atoms: N3_19  and  C13_21 
REMARK       I    between atoms: C21_29  and  N4_31 
REMARK    8  A    between atoms: N4_31  and  C22_33 
ROOT
HETATM    1  C5  UNL     1      20.152  12.133  17.769  1.00  0.00     0.026 C 
HETATM    2  C6  UNL     1      20.914  12.084  19.077  1.00  0.00     0.018 C 
HETATM    3  C7  UNL     1      20.001  11.218  19.940  1.00  0.00     0.033 C 
HETATM    4  C8  UNL     1      20.720  10.454  20.993  1.00  0.00     0.123 C 
HETATM    5  C9  UNL     1      20.608   8.984  20.661  1.00  0.00     0.033 C 
HETATM    6  C10 UNL     1      20.126   8.922  19.226  1.00  0.00     0.022 C 
HETATM    7  C11 UNL     1      19.389  10.244  19.006  1.00  0.00     0.048 C 
HETATM    8  C20 UNL     1      19.703  10.728  17.625  1.00  0.00     0.029 C 
ENDROOT
BRANCH   1   9
HETATM    9  C4  UNL     1      20.806  12.795  16.643  1.00  0.00     0.074 C 
BRANCH   9  10
HETATM   10  N2  UNL     1      21.021  14.201  16.612  1.00  0.00    -0.300 N 
HETATM   11  C21 UNL     1      22.318  14.710  16.838  1.00  0.00     0.323 C 
HETATM   12  O4  UNL     1      22.488  15.971  16.795  1.00  0.00    -0.247 OA
HETATM   13  N4  UNL     1      23.486  13.954  17.112  1.00  0.00    -0.338 N 
ATOM     14  H4  UNL     1      23.410  12.938  17.152  1.00  0.00     0.164 HD
BRANCH  10  15
HETATM   15  C2  UNL     1      19.953  15.108  16.331  1.00  0.00     0.178 C 
HETATM   16  C1  UNL     1      18.636  14.645  16.942  1.00  0.00     0.042 C 
BRANCH  15  17
HETATM   17  C3  UNL     1      19.674  15.419  14.932  1.00  0.00     0.254 C 
HETATM   18  N1  UNL     1      18.389  15.747  14.478  1.00  0.00    -0.060 NA
HETATM   19  O1  UNL     1      20.614  15.388  14.103  1.00  0.00    -0.275 OA
ENDBRANCH  15  17
ENDBRANCH  10  15
BRANCH  13  20
HETATM   20  C22 UNL     1      24.778  14.558  17.336  1.00  0.00     0.086 C 
HETATM   21  C23 UNL     1      25.612  13.660  18.261  1.00  0.00     0.025 C 
HETATM   22  C24 UNL     1      26.752  14.526  18.751  1.00  0.00     0.002 C 
HETATM   23  C25 UNL     1      27.595  14.924  17.589  1.00  0.00     0.000 C 
HETATM   24  C26 UNL     1      26.854  15.458  16.414  1.00  0.00     0.002 C 
HETATM   25  C27 UNL     1      25.578  14.758  16.094  1.00  0.00     0.025 C 
ENDBRANCH  13  20
ENDBRANCH   9  10
ENDBRANCH   1   9
BRANCH   7  26
HETATM   26  C12 UNL     1      17.930  10.060  19.245  1.00  0.00     0.227 C 
HETATM   27  O3  UNL     1      17.577   9.822  20.438  1.00  0.00    -0.273 OA
HETATM   28  N3  UNL     1      16.929  10.126  18.272  1.00  0.00    -0.355 N 
ATOM     29  H3  UNL     1      17.188  10.318  17.304  1.00  0.00     0.162 HD
BRANCH  28  30
HETATM   30  C13 UNL     1      15.532   9.930  18.604  1.00  0.00     0.088 C 
HETATM   31  C14 UNL     1      15.147   8.464  18.590  1.00  0.00     0.030 C 
HETATM   32  C15 UNL     1      13.895   8.486  17.747  1.00  0.00    -0.012 C 
HETATM   33  C16 UNL     1      12.839   9.341  18.412  1.00  0.00     0.005 C 
HETATM   34  C19 UNL     1      14.356   9.454  16.642  1.00  0.00     0.011 C 
HETATM   35  C17 UNL     1      13.286  10.790  18.219  1.00  0.00     0.007 C 
HETATM   36  C18 UNL     1      14.636  10.625  17.603  1.00  0.00     0.009 C 
ENDBRANCH  28  30
ENDBRANCH   7  26
BRANCH   4  37
HETATM   37  O2  UNL     1      22.058  10.840  21.121  1.00  0.00    -0.395 OA
ATOM     38  H2  UNL     1      22.246  11.236  21.964  1.00  0.00     0.210 HD
ENDBRANCH   4  37
TORSDOF 8
ENDMDL
