MODEL 1
REMARK VINA RESULT: -8.303578800      0.000      0.000
REMARK  9 active torsions:
REMARK  status: ('A' for Active; 'I' for Inactive)
REMARK    1  A    between atoms: C2_2  and  O2_4 
REMARK    2  A    between atoms: O2_4  and  C3_5 
REMARK    3  A    between atoms: C5_7  and  C6_8 
REMARK    4  A    between atoms: C6_8  and  C7_10 
REMARK    5  A    between atoms: C7_10  and  S1_11 
REMARK    6  A    between atoms: S1_11  and  C8_12 
REMARK    7  A    between atoms: C8_12  and  C9_13 
REMARK    8  A    between atoms: C9_13  and  O4_14 
REMARK    9  A    between atoms: C20_29  and  N2_30 
ROOT
HETATM    1  C3  UNL     1      51.078  44.677  63.195  1.00  0.00     0.141 C 
HETATM    2  C4  UNL     1      52.048  45.052  62.122  1.00  0.00     0.046 C 
HETATM    3  C5  UNL     1      51.648  44.330  60.852  1.00  0.00     0.065 C 
HETATM    4  C10 UNL     1      50.828  45.257  60.049  1.00  0.00     0.033 C 
HETATM    5  C11 UNL     1      50.304  44.481  58.836  1.00  0.00     0.238 C 
HETATM    6  N1  UNL     1      48.882  44.315  59.037  1.00  0.00    -0.074 N 
ATOM      7  H11 UNL     1      48.521  43.426  58.691  1.00  0.00     0.277 HD
ATOM      8  H12 UNL     1      48.312  44.917  58.442  1.00  0.00     0.277 HD
HETATM    9  C12 UNL     1      48.659  44.525  60.484  1.00  0.00     0.242 C 
HETATM   10  C13 UNL     1      49.544  45.701  60.700  1.00  0.00    -0.010 C 
HETATM   11  C14 UNL     1      49.020  46.743  59.683  1.00  0.00     0.018 C 
HETATM   12  C15 UNL     1      49.600  46.330  61.990  1.00  0.00     0.007 C 
HETATM   13  C16 UNL     1      48.392  47.236  62.223  1.00  0.00     0.007 C 
HETATM   14  C17 UNL     1      48.721  48.295  63.294  1.00  0.00     0.012 C 
HETATM   15  C18 UNL     1      49.010  47.561  64.537  1.00  0.00    -0.019 C 
HETATM   16  C19 UNL     1      47.669  47.114  65.091  1.00  0.00     0.018 C 
HETATM   17  C20 UNL     1      49.619  48.362  65.660  1.00  0.00     0.087 C 
HETATM   18  C25 UNL     1      50.338  47.292  66.472  1.00  0.00     0.026 C 
HETATM   19  C26 UNL     1      50.163  45.983  65.712  1.00  0.00     0.008 C 
HETATM   20  C27 UNL     1      50.000  46.491  64.348  1.00  0.00     0.007 C 
HETATM   21  C28 UNL     1      49.807  45.502  63.228  1.00  0.00    -0.008 C 
HETATM   22  C29 UNL     1      48.674  44.599  63.560  1.00  0.00     0.018 C 
ENDROOT
BRANCH   3  23
HETATM   23  C6  UNL     1      52.881  43.991  60.086  1.00  0.00     0.140 C 
HETATM   24  O3  UNL     1      53.467  44.816  59.402  1.00  0.00    -0.297 OA
BRANCH  23  25
HETATM   25  C7  UNL     1      53.435  42.609  60.139  1.00  0.00     0.152 C 
BRANCH  25  26
HETATM   26  S1  UNL     1      55.026  42.584  61.007  1.00  0.00    -0.160 SA
BRANCH  26  27
HETATM   27  C8  UNL     1      54.973  43.622  62.481  1.00  0.00     0.100 C 
BRANCH  27  28
HETATM   28  C9  UNL     1      55.815  44.846  62.237  1.00  0.00     0.174 C 
BRANCH  28  29
HETATM   29  O4  UNL     1      56.014  44.977  60.864  1.00  0.00    -0.400 OA
ATOM     30  H4  UNL     1      56.220  45.885  60.675  1.00  0.00     0.209 HD
ENDBRANCH  28  29
ENDBRANCH  27  28
ENDBRANCH  26  27
ENDBRANCH  25  26
ENDBRANCH  23  25
ENDBRANCH   3  23
BRANCH   1  31
HETATM   31  O2  UNL     1      50.855  43.285  63.090  1.00  0.00    -0.316 OA
BRANCH  31  32
HETATM   32  C2  UNL     1      51.616  42.315  63.676  1.00  0.00     0.255 C 
HETATM   33  C1  UNL     1      52.026  42.381  65.119  1.00  0.00     0.126 C 
HETATM   34  O1  UNL     1      51.987  41.342  62.995  1.00  0.00    -0.266 OA
ENDBRANCH  31  32
ENDBRANCH   1  31
BRANCH  17  35
HETATM   35  N2  UNL     1      50.382  49.471  65.341  1.00  0.00    -0.407 N 
HETATM   36  C21 UNL     1      51.757  49.480  65.147  1.00  0.00     0.117 C 
HETATM   37  C22 UNL     1      52.004  50.983  64.851  1.00  0.00     0.021 C 
HETATM   38  C23 UNL     1      51.207  51.604  65.973  1.00  0.00     0.021 C 
HETATM   39  C24 UNL     1      50.094  50.639  66.170  1.00  0.00     0.117 C 
ENDBRANCH  17  35
TORSDOF 9
ENDMDL
MODEL 2
REMARK VINA RESULT: -7.049008471      3.938      7.388
REMARK  9 active torsions:
REMARK  status: ('A' for Active; 'I' for Inactive)
REMARK    1  A    between atoms: C2_2  and  O2_4 
REMARK    2  A    between atoms: O2_4  and  C3_5 
REMARK    3  A    between atoms: C5_7  and  C6_8 
REMARK    4  A    between atoms: C6_8  and  C7_10 
REMARK    5  A    between atoms: C7_10  and  S1_11 
REMARK    6  A    between atoms: S1_11  and  C8_12 
REMARK    7  A    between atoms: C8_12  and  C9_13 
REMARK    8  A    between atoms: C9_13  and  O4_14 
REMARK    9  A    between atoms: C20_29  and  N2_30 
ROOT
HETATM    1  C3  UNL     1      49.105  45.626  63.910  1.00  0.00     0.141 C 
HETATM    2  C4  UNL     1      47.925  44.873  63.383  1.00  0.00     0.046 C 
HETATM    3  C5  UNL     1      47.430  45.583  62.140  1.00  0.00     0.065 C 
HETATM    4  C10 UNL     1      48.030  44.911  60.972  1.00  0.00     0.033 C 
HETATM    5  C11 UNL     1      47.645  45.717  59.726  1.00  0.00     0.238 C 
HETATM    6  N1  UNL     1      48.856  46.350  59.255  1.00  0.00    -0.074 N 
ATOM      7  H11 UNL     1      48.706  47.278  58.859  1.00  0.00     0.277 HD
ATOM      8  H12 UNL     1      49.242  45.920  58.415  1.00  0.00     0.277 HD
HETATM    9  C12 UNL     1      49.784  46.339  60.408  1.00  0.00     0.242 C 
HETATM   10  C13 UNL     1      49.534  44.960  60.909  1.00  0.00    -0.010 C 
HETATM   11  C14 UNL     1      49.827  44.067  59.679  1.00  0.00     0.018 C 
HETATM   12  C15 UNL     1      50.292  44.451  62.018  1.00  0.00     0.007 C 
HETATM   13  C16 UNL     1      51.688  44.007  61.582  1.00  0.00     0.007 C 
HETATM   14  C17 UNL     1      52.258  42.986  62.588  1.00  0.00     0.012 C 
HETATM   15  C18 UNL     1      52.364  43.682  63.881  1.00  0.00    -0.019 C 
HETATM   16  C19 UNL     1      53.583  44.582  63.783  1.00  0.00     0.018 C 
HETATM   17  C20 UNL     1      52.644  42.819  65.085  1.00  0.00     0.087 C 
HETATM   18  C25 UNL     1      52.086  43.659  66.226  1.00  0.00     0.026 C 
HETATM   19  C26 UNL     1      51.454  44.890  65.588  1.00  0.00     0.008 C 
HETATM   20  C27 UNL     1      51.115  44.356  64.267  1.00  0.00     0.007 C 
HETATM   21  C28 UNL     1      50.433  45.262  63.275  1.00  0.00    -0.008 C 
HETATM   22  C29 UNL     1      51.230  46.506  63.119  1.00  0.00     0.018 C 
ENDROOT
BRANCH   3  23
HETATM   23  C6  UNL     1      45.948  45.444  62.068  1.00  0.00     0.140 C 
HETATM   24  O3  UNL     1      45.366  45.232  61.015  1.00  0.00    -0.297 OA
BRANCH  23  25
HETATM   25  C7  UNL     1      45.127  45.562  63.306  1.00  0.00     0.152 C 
BRANCH  25  26
HETATM   26  S1  UNL     1      43.361  45.401  62.927  1.00  0.00    -0.160 SA
BRANCH  26  27
HETATM   27  C8  UNL     1      42.354  46.177  64.206  1.00  0.00     0.100 C 
BRANCH  27  28
HETATM   28  C9  UNL     1      40.969  45.589  64.149  1.00  0.00     0.174 C 
BRANCH  28  29
HETATM   29  O4  UNL     1      41.052  44.321  63.577  1.00  0.00    -0.400 OA
ATOM     30  H4  UNL     1      40.849  43.676  64.245  1.00  0.00     0.209 HD
ENDBRANCH  28  29
ENDBRANCH  27  28
ENDBRANCH  26  27
ENDBRANCH  25  26
ENDBRANCH  23  25
ENDBRANCH   3  23
BRANCH   1  31
HETATM   31  O2  UNL     1      48.791  47.002  63.832  1.00  0.00    -0.316 OA
BRANCH  31  32
HETATM   32  C2  UNL     1      48.516  47.812  64.897  1.00  0.00     0.255 C 
HETATM   33  C1  UNL     1      47.465  47.471  65.913  1.00  0.00     0.126 C 
HETATM   34  O1  UNL     1      49.156  48.870  65.033  1.00  0.00    -0.266 OA
ENDBRANCH  31  32
ENDBRANCH   1  31
BRANCH  17  35
HETATM   35  N2  UNL     1      52.223  41.501  65.063  1.00  0.00    -0.407 N 
HETATM   36  C21 UNL     1      51.214  40.985  64.260  1.00  0.00     0.117 C 
HETATM   37  C22 UNL     1      51.208  39.501  64.711  1.00  0.00     0.021 C 
HETATM   38  C23 UNL     1      51.217  39.684  66.210  1.00  0.00     0.021 C 
HETATM   39  C24 UNL     1      51.996  40.937  66.391  1.00  0.00     0.117 C 
ENDBRANCH  17  35
TORSDOF 9
ENDMDL
MODEL 3
REMARK VINA RESULT: -6.912574152      2.285      3.684
REMARK  9 active torsions:
REMARK  status: ('A' for Active; 'I' for Inactive)
REMARK    1  A    between atoms: C2_2  and  O2_4 
REMARK    2  A    between atoms: O2_4  and  C3_5 
REMARK    3  A    between atoms: C5_7  and  C6_8 
REMARK    4  A    between atoms: C6_8  and  C7_10 
REMARK    5  A    between atoms: C7_10  and  S1_11 
REMARK    6  A    between atoms: S1_11  and  C8_12 
REMARK    7  A    between atoms: C8_12  and  C9_13 
REMARK    8  A    between atoms: C9_13  and  O4_14 
REMARK    9  A    between atoms: C20_29  and  N2_30 
ROOT
HETATM    1  C3  UNL     1      51.788  46.222  65.625  1.00  0.00     0.141 C 
HETATM    2  C4  UNL     1      52.478  45.944  64.328  1.00  0.00     0.046 C 
HETATM    3  C5  UNL     1      51.708  44.857  63.608  1.00  0.00     0.065 C 
HETATM    4  C10 UNL     1      50.787  45.513  62.660  1.00  0.00     0.033 C 
HETATM    5  C11 UNL     1      49.908  44.423  62.037  1.00  0.00     0.238 C 
HETATM    6  N1  UNL     1      48.577  44.617  62.565  1.00  0.00    -0.074 N 
ATOM      7  H11 UNL     1      48.068  43.748  62.722  1.00  0.00     0.277 HD
ATOM      8  H12 UNL     1      47.925  45.021  61.893  1.00  0.00     0.277 HD
HETATM    9  C12 UNL     1      48.750  45.433  63.788  1.00  0.00     0.242 C 
HETATM   10  C13 UNL     1      49.754  46.411  63.289  1.00  0.00    -0.010 C 
HETATM   11  C14 UNL     1      49.074  47.029  62.044  1.00  0.00     0.018 C 
HETATM   12  C15 UNL     1      50.191  47.486  64.135  1.00  0.00     0.007 C 
HETATM   13  C16 UNL     1      49.161  48.614  64.181  1.00  0.00     0.007 C 
HETATM   14  C17 UNL     1      49.840  49.936  64.594  1.00  0.00     0.012 C 
HETATM   15  C18 UNL     1      50.377  49.729  65.949  1.00  0.00    -0.019 C 
HETATM   16  C19 UNL     1      49.191  49.799  66.894  1.00  0.00     0.018 C 
HETATM   17  C20 UNL     1      51.317  50.789  66.464  1.00  0.00     0.087 C 
HETATM   18  C25 UNL     1      52.130  50.026  67.503  1.00  0.00     0.026 C 
HETATM   19  C26 UNL     1      51.660  48.579  67.443  1.00  0.00     0.008 C 
HETATM   20  C27 UNL     1      51.194  48.511  66.056  1.00  0.00     0.007 C 
HETATM   21  C28 UNL     1      50.640  47.207  65.543  1.00  0.00    -0.008 C 
HETATM   22  C29 UNL     1      49.560  46.742  66.452  1.00  0.00     0.018 C 
ENDROOT
BRANCH   3  23
HETATM   23  C6  UNL     1      52.670  44.016  62.842  1.00  0.00     0.140 C 
HETATM   24  O3  UNL     1      53.286  44.448  61.879  1.00  0.00    -0.297 OA
BRANCH  23  25
HETATM   25  C7  UNL     1      52.906  42.600  63.241  1.00  0.00     0.152 C 
BRANCH  25  26
HETATM   26  S1  UNL     1      51.547  41.985  64.271  1.00  0.00    -0.160 SA
BRANCH  26  27
HETATM   27  C8  UNL     1      51.615  40.189  64.424  1.00  0.00     0.100 C 
BRANCH  27  28
HETATM   28  C9  UNL     1      51.365  39.820  65.862  1.00  0.00     0.174 C 
BRANCH  28  29
HETATM   29  O4  UNL     1      52.170  40.621  66.669  1.00  0.00    -0.400 OA
ATOM     30  H4  UNL     1      52.100  41.519  66.366  1.00  0.00     0.209 HD
ENDBRANCH  28  29
ENDBRANCH  27  28
ENDBRANCH  26  27
ENDBRANCH  25  26
ENDBRANCH  23  25
ENDBRANCH   3  23
BRANCH   1  31
HETATM   31  O2  UNL     1      51.432  44.974  66.185  1.00  0.00    -0.316 OA
BRANCH  31  32
HETATM   32  C2  UNL     1      51.997  44.415  67.296  1.00  0.00     0.255 C 
HETATM   33  C1  UNL     1      51.563  44.782  68.685  1.00  0.00     0.126 C 
HETATM   34  O1  UNL     1      52.903  43.573  67.157  1.00  0.00    -0.266 OA
ENDBRANCH  31  32
ENDBRANCH   1  31
BRANCH  17  35
HETATM   35  N2  UNL     1      52.061  51.512  65.549  1.00  0.00    -0.407 N 
HETATM   36  C21 UNL     1      53.138  51.029  64.817  1.00  0.00     0.117 C 
HETATM   37  C22 UNL     1      53.543  52.295  64.016  1.00  0.00     0.021 C 
HETATM   38  C23 UNL     1      53.542  53.317  65.127  1.00  0.00     0.021 C 
HETATM   39  C24 UNL     1      52.474  52.825  66.038  1.00  0.00     0.117 C 
ENDBRANCH  17  35
TORSDOF 9
ENDMDL
MODEL 4
REMARK VINA RESULT: -6.865031778      2.237      3.940
REMARK  9 active torsions:
REMARK  status: ('A' for Active; 'I' for Inactive)
REMARK    1  A    between atoms: C2_2  and  O2_4 
REMARK    2  A    between atoms: O2_4  and  C3_5 
REMARK    3  A    between atoms: C5_7  and  C6_8 
REMARK    4  A    between atoms: C6_8  and  C7_10 
REMARK    5  A    between atoms: C7_10  and  S1_11 
REMARK    6  A    between atoms: S1_11  and  C8_12 
REMARK    7  A    between atoms: C8_12  and  C9_13 
REMARK    8  A    between atoms: C9_13  and  O4_14 
REMARK    9  A    between atoms: C20_29  and  N2_30 
ROOT
HETATM    1  C3  UNL     1      51.698  46.525  65.782  1.00  0.00     0.141 C 
HETATM    2  C4  UNL     1      52.157  46.198  64.397  1.00  0.00     0.046 C 
HETATM    3  C5  UNL     1      51.163  45.231  63.788  1.00  0.00     0.065 C 
HETATM    4  C10 UNL     1      50.207  46.018  62.986  1.00  0.00     0.033 C 
HETATM    5  C11 UNL     1      49.120  45.059  62.489  1.00  0.00     0.238 C 
HETATM    6  N1  UNL     1      47.911  45.401  63.204  1.00  0.00    -0.074 N 
ATOM      7  H11 UNL     1      47.325  44.597  63.426  1.00  0.00     0.277 HD
ATOM      8  H12 UNL     1      47.226  45.898  62.635  1.00  0.00     0.277 HD
HETATM    9  C12 UNL     1      48.356  46.159  64.395  1.00  0.00     0.242 C 
HETATM   10  C13 UNL     1      49.393  47.019  63.764  1.00  0.00    -0.010 C 
HETATM   11  C14 UNL     1      48.625  47.746  62.633  1.00  0.00     0.018 C 
HETATM   12  C15 UNL     1      50.076  48.012  64.546  1.00  0.00     0.007 C 
HETATM   13  C16 UNL     1      49.211  49.255  64.747  1.00  0.00     0.007 C 
HETATM   14  C17 UNL     1      50.101  50.474  65.067  1.00  0.00     0.012 C 
HETATM   15  C18 UNL     1      50.794  50.169  66.329  1.00  0.00    -0.019 C 
HETATM   16  C19 UNL     1      49.772  50.361  67.436  1.00  0.00     0.018 C 
HETATM   17  C20 UNL     1      51.922  51.093  66.712  1.00  0.00     0.087 C 
HETATM   18  C25 UNL     1      52.773  50.212  67.618  1.00  0.00     0.026 C 
HETATM   19  C26 UNL     1      52.123  48.834  67.616  1.00  0.00     0.008 C 
HETATM   20  C27 UNL     1      51.460  48.859  66.310  1.00  0.00     0.007 C 
HETATM   21  C28 UNL     1      50.681  47.646  65.872  1.00  0.00    -0.008 C 
HETATM   22  C29 UNL     1      49.692  47.293  66.924  1.00  0.00     0.018 C 
ENDROOT
BRANCH   3  23
HETATM   23  C6  UNL     1      51.895  44.298  62.886  1.00  0.00     0.140 C 
HETATM   24  O3  UNL     1      51.928  43.093  63.086  1.00  0.00    -0.297 OA
BRANCH  23  25
HETATM   25  C7  UNL     1      52.619  44.826  61.695  1.00  0.00     0.152 C 
BRANCH  25  26
HETATM   26  S1  UNL     1      52.154  43.913  60.200  1.00  0.00    -0.160 SA
BRANCH  26  27
HETATM   27  C8  UNL     1      51.014  44.875  59.185  1.00  0.00     0.100 C 
BRANCH  27  28
HETATM   28  C9  UNL     1      49.735  44.096  59.031  1.00  0.00     0.174 C 
BRANCH  28  29
HETATM   29  O4  UNL     1      49.698  43.560  57.745  1.00  0.00    -0.400 OA
ATOM     30  H4  UNL     1      50.591  43.411  57.456  1.00  0.00     0.209 HD
ENDBRANCH  28  29
ENDBRANCH  27  28
ENDBRANCH  26  27
ENDBRANCH  25  26
ENDBRANCH  23  25
ENDBRANCH   3  23
BRANCH   1  31
HETATM   31  O2  UNL     1      51.272  45.316  66.378  1.00  0.00    -0.316 OA
BRANCH  31  32
HETATM   32  C2  UNL     1      52.023  44.539  67.214  1.00  0.00     0.255 C 
HETATM   33  C1  UNL     1      52.429  44.997  68.585  1.00  0.00     0.126 C 
HETATM   34  O1  UNL     1      52.386  43.413  66.830  1.00  0.00    -0.266 OA
ENDBRANCH  31  32
ENDBRANCH   1  31
BRANCH  17  35
HETATM   35  N2  UNL     1      52.614  51.743  65.704  1.00  0.00    -0.407 N 
HETATM   36  C21 UNL     1      53.596  51.179  64.902  1.00  0.00     0.117 C 
HETATM   37  C22 UNL     1      53.985  52.391  64.015  1.00  0.00     0.021 C 
HETATM   38  C23 UNL     1      54.132  53.454  65.077  1.00  0.00     0.021 C 
HETATM   39  C24 UNL     1      53.129  53.051  66.098  1.00  0.00     0.117 C 
ENDBRANCH  17  35
TORSDOF 9
ENDMDL
MODEL 5
REMARK VINA RESULT: -6.788273002      2.215      3.763
REMARK  9 active torsions:
REMARK  status: ('A' for Active; 'I' for Inactive)
REMARK    1  A    between atoms: C2_2  and  O2_4 
REMARK    2  A    between atoms: O2_4  and  C3_5 
REMARK    3  A    between atoms: C5_7  and  C6_8 
REMARK    4  A    between atoms: C6_8  and  C7_10 
REMARK    5  A    between atoms: C7_10  and  S1_11 
REMARK    6  A    between atoms: S1_11  and  C8_12 
REMARK    7  A    between atoms: C8_12  and  C9_13 
REMARK    8  A    between atoms: C9_13  and  O4_14 
REMARK    9  A    between atoms: C20_29  and  N2_30 
ROOT
HETATM    1  C3  UNL     1      51.529  46.558  66.216  1.00  0.00     0.141 C 
HETATM    2  C4  UNL     1      52.267  46.064  65.013  1.00  0.00     0.046 C 
HETATM    3  C5  UNL     1      51.446  44.961  64.378  1.00  0.00     0.065 C 
HETATM    4  C10 UNL     1      50.646  45.565  63.296  1.00  0.00     0.033 C 
HETATM    5  C11 UNL     1      49.711  44.480  62.750  1.00  0.00     0.238 C 
HETATM    6  N1  UNL     1      48.374  44.847  63.157  1.00  0.00    -0.074 N 
ATOM      7  H11 UNL     1      47.780  44.048  63.382  1.00  0.00     0.277 HD
ATOM      8  H12 UNL     1      47.801  45.213  62.397  1.00  0.00     0.277 HD
HETATM    9  C12 UNL     1      48.546  45.793  64.282  1.00  0.00     0.242 C 
HETATM   10  C13 UNL     1      49.661  46.615  63.739  1.00  0.00    -0.010 C 
HETATM   11  C14 UNL     1      49.113  47.124  62.384  1.00  0.00     0.018 C 
HETATM   12  C15 UNL     1      50.142  47.750  64.478  1.00  0.00     0.007 C 
HETATM   13  C16 UNL     1      49.216  48.954  64.315  1.00  0.00     0.007 C 
HETATM   14  C17 UNL     1      49.984  50.258  64.611  1.00  0.00     0.012 C 
HETATM   15  C18 UNL     1      50.419  50.181  66.015  1.00  0.00    -0.019 C 
HETATM   16  C19 UNL     1      49.191  50.466  66.861  1.00  0.00     0.018 C 
HETATM   17  C20 UNL     1      51.418  51.218  66.464  1.00  0.00     0.087 C 
HETATM   18  C25 UNL     1      52.098  50.529  67.640  1.00  0.00     0.026 C 
HETATM   19  C26 UNL     1      51.505  49.128  67.723  1.00  0.00     0.008 C 
HETATM   20  C27 UNL     1      51.117  48.924  66.325  1.00  0.00     0.007 C 
HETATM   21  C28 UNL     1      50.480  47.616  65.936  1.00  0.00    -0.008 C 
HETATM   22  C29 UNL     1      49.312  47.358  66.818  1.00  0.00     0.018 C 
ENDROOT
BRANCH   3  23
HETATM   23  C6  UNL     1      52.374  43.955  63.787  1.00  0.00     0.140 C 
HETATM   24  O3  UNL     1      52.405  42.796  64.173  1.00  0.00    -0.297 OA
BRANCH  23  25
HETATM   25  C7  UNL     1      53.302  44.350  62.691  1.00  0.00     0.152 C 
BRANCH  25  26
HETATM   26  S1  UNL     1      54.243  42.919  62.095  1.00  0.00    -0.160 SA
BRANCH  26  27
HETATM   27  C8  UNL     1      53.692  42.425  60.450  1.00  0.00     0.100 C 
BRANCH  27  28
HETATM   28  C9  UNL     1      52.235  42.778  60.306  1.00  0.00     0.174 C 
BRANCH  28  29
HETATM   29  O4  UNL     1      51.639  41.848  59.457  1.00  0.00    -0.400 OA
ATOM     30  H4  UNL     1      52.187  41.749  58.687  1.00  0.00     0.209 HD
ENDBRANCH  28  29
ENDBRANCH  27  28
ENDBRANCH  26  27
ENDBRANCH  25  26
ENDBRANCH  23  25
ENDBRANCH   3  23
BRANCH   1  31
HETATM   31  O2  UNL     1      51.031  45.424  66.896  1.00  0.00    -0.316 OA
BRANCH  31  32
HETATM   32  C2  UNL     1      51.569  44.881  68.029  1.00  0.00     0.255 C 
HETATM   33  C1  UNL     1      51.022  45.174  69.395  1.00  0.00     0.126 C 
HETATM   34  O1  UNL     1      52.546  44.117  67.929  1.00  0.00    -0.266 OA
ENDBRANCH  31  32
ENDBRANCH   1  31
BRANCH  17  35
HETATM   35  N2  UNL     1      52.277  51.757  65.521  1.00  0.00    -0.407 N 
HETATM   36  C21 UNL     1      53.359  51.106  64.943  1.00  0.00     0.117 C 
HETATM   37  C22 UNL     1      53.914  52.221  64.018  1.00  0.00     0.021 C 
HETATM   38  C23 UNL     1      53.919  53.382  64.983  1.00  0.00     0.021 C 
HETATM   39  C24 UNL     1      52.758  53.092  65.865  1.00  0.00     0.117 C 
ENDBRANCH  17  35
TORSDOF 9
ENDMDL
