MODEL 1
REMARK VINA RESULT: -9.250526470      0.000      0.000
REMARK  10 active torsions:
REMARK  status: ('A' for Active; 'I' for Inactive)
REMARK    1  A    between atoms: C2_2  and  C3_3 
REMARK    2  A    between atoms: C2_2  and  C5_6 
REMARK    3  A    between atoms: C3_3  and  O1_4 
REMARK    4  A    between atoms: C15_16  and  O2_17 
REMARK    5  A    between atoms: O2_17  and  C16_18 
REMARK    6  A    between atoms: C18_21  and  O4_22 
REMARK    7  A    between atoms: O4_22  and  C19_23 
REMARK    8  A    between atoms: C19_23  and  O5_25 
REMARK    9  A    between atoms: C21_27  and  N1_28 
REMARK   10  A    between atoms: C22_32  and  O6_33 
ROOT
HETATM    1  C5  UNL     1      48.487  49.054  67.891  1.00  0.00     0.028 C 
HETATM    2  C6  UNL     1      47.379  48.066  68.118  1.00  0.00    -0.009 C 
HETATM    3  C7  UNL     1      46.146  48.521  68.790  1.00  0.00     0.011 C 
HETATM    4  C8  UNL     1      47.041  47.426  66.757  1.00  0.00     0.010 C 
HETATM    5  C9  UNL     1      47.899  48.155  65.792  1.00  0.00    -0.001 C 
HETATM    6  C10 UNL     1      48.300  47.387  64.550  1.00  0.00    -0.005 C 
HETATM    7  C11 UNL     1      47.059  46.793  63.869  1.00  0.00     0.006 C 
HETATM    8  C12 UNL     1      47.465  46.135  62.548  1.00  0.00     0.006 C 
HETATM    9  C13 UNL     1      48.481  45.100  62.894  1.00  0.00    -0.004 C 
HETATM   10  C14 UNL     1      48.936  44.143  61.897  1.00  0.00     0.037 C 
HETATM   11  C15 UNL     1      50.485  44.275  61.927  1.00  0.00     0.126 C 
HETATM   12  C23 UNL     1      50.723  44.687  63.393  1.00  0.00     0.042 C 
HETATM   13  C24 UNL     1      49.708  45.808  63.424  1.00  0.00    -0.034 C 
HETATM   14  C25 UNL     1      50.259  46.877  62.521  1.00  0.00     0.016 C 
HETATM   15  C26 UNL     1      49.301  46.306  64.769  1.00  0.00    -0.001 C 
HETATM   16  C27 UNL     1      50.381  46.563  65.746  1.00  0.00     0.006 C 
HETATM   17  C28 UNL     1      49.798  47.244  66.965  1.00  0.00     0.010 C 
HETATM   18  C29 UNL     1      49.074  48.544  66.588  1.00  0.00    -0.032 C 
HETATM   19  C30 UNL     1      50.095  49.417  65.962  1.00  0.00     0.016 C 
ENDROOT
BRANCH  11  20
HETATM   20  O2  UNL     1      51.087  43.124  61.550  1.00  0.00    -0.353 OA
BRANCH  20  21
HETATM   21  C16 UNL     1      51.678  43.289  60.287  1.00  0.00     0.290 C 
HETATM   22  O3  UNL     1      51.877  44.539  59.869  1.00  0.00    -0.356 OA
HETATM   23  C17 UNL     1      53.211  44.901  59.804  1.00  0.00     0.205 C 
HETATM   24  C18 UNL     1      53.887  44.512  61.104  1.00  0.00     0.181 C 
HETATM   25  C21 UNL     1      53.998  42.979  61.113  1.00  0.00     0.247 C 
HETATM   26  C22 UNL     1      52.928  42.418  60.203  1.00  0.00     0.206 C 
BRANCH  24  27
HETATM   27  O4  UNL     1      55.017  45.139  61.444  1.00  0.00    -0.352 OA
BRANCH  27  28
HETATM   28  C19 UNL     1      55.840  45.578  62.298  1.00  0.00     0.253 C 
HETATM   29  C20 UNL     1      56.547  45.320  63.532  1.00  0.00     0.070 C 
BRANCH  28  30
HETATM   30  O5  UNL     1      56.254  46.897  61.897  1.00  0.00    -0.372 OA
ATOM     31  H5  UNL     1      55.496  47.469  61.919  1.00  0.00     0.212 HD
ENDBRANCH  28  30
ENDBRANCH  27  28
ENDBRANCH  24  27
BRANCH  25  32
HETATM   32  N1  UNL     1      55.282  42.566  60.626  1.00  0.00    -0.070 N 
ATOM     33  H13 UNL     1      55.243  42.284  59.646  1.00  0.00     0.274 HD
ATOM     34  H12 UNL     1      55.924  43.353  60.532  1.00  0.00     0.274 HD
ATOM     35  H11 UNL     1      55.669  41.830  61.218  1.00  0.00     0.274 HD
ENDBRANCH  25  32
BRANCH  26  36
HETATM   36  O6  UNL     1      53.417  42.276  58.928  1.00  0.00    -0.388 OA
ATOM     37  H6  UNL     1      54.350  42.105  58.894  1.00  0.00     0.210 HD
ENDBRANCH  26  36
ENDBRANCH  20  21
ENDBRANCH  11  20
BRANCH   1  38
HETATM   38  C2  UNL     1      48.067  50.480  67.873  1.00  0.00    -0.061 C 
HETATM   39  C1  UNL     1      48.232  51.412  67.000  1.00  0.00     0.017 C 
BRANCH  38  40
HETATM   40  C3  UNL     1      47.476  50.942  69.207  1.00  0.00     0.201 C 
BRANCH  40  41
HETATM   41  O1  UNL     1      47.523  52.327  69.364  1.00  0.00    -0.392 OA
HETATM   42  C4  UNL     1      47.890  52.641  70.660  1.00  0.00     0.201 C 
ENDBRANCH  40  41
ENDBRANCH  38  40
ENDBRANCH   1  38
TORSDOF 10
ENDMDL
MODEL 2
REMARK VINA RESULT: -9.163076501      4.632      7.669
REMARK  10 active torsions:
REMARK  status: ('A' for Active; 'I' for Inactive)
REMARK    1  A    between atoms: C2_2  and  C3_3 
REMARK    2  A    between atoms: C2_2  and  C5_6 
REMARK    3  A    between atoms: C3_3  and  O1_4 
REMARK    4  A    between atoms: C15_16  and  O2_17 
REMARK    5  A    between atoms: O2_17  and  C16_18 
REMARK    6  A    between atoms: C18_21  and  O4_22 
REMARK    7  A    between atoms: O4_22  and  C19_23 
REMARK    8  A    between atoms: C19_23  and  O5_25 
REMARK    9  A    between atoms: C21_27  and  N1_28 
REMARK   10  A    between atoms: C22_32  and  O6_33 
ROOT
HETATM    1  C5  UNL     1      55.356  46.489  68.978  1.00  0.00     0.028 C 
HETATM    2  C6  UNL     1      56.243  47.330  68.104  1.00  0.00    -0.009 C 
HETATM    3  C7  UNL     1      57.638  47.570  68.525  1.00  0.00     0.011 C 
HETATM    4  C8  UNL     1      56.210  46.722  66.688  1.00  0.00     0.010 C 
HETATM    5  C9  UNL     1      55.389  45.496  66.840  1.00  0.00    -0.001 C 
HETATM    6  C10 UNL     1      54.635  45.046  65.606  1.00  0.00    -0.005 C 
HETATM    7  C11 UNL     1      55.590  44.945  64.408  1.00  0.00     0.006 C 
HETATM    8  C12 UNL     1      54.844  44.363  63.205  1.00  0.00     0.006 C 
HETATM    9  C13 UNL     1      53.694  45.277  62.947  1.00  0.00    -0.004 C 
HETATM   10  C14 UNL     1      52.886  45.135  61.746  1.00  0.00     0.037 C 
HETATM   11  C15 UNL     1      51.429  45.037  62.280  1.00  0.00     0.126 C 
HETATM   12  C23 UNL     1      51.526  45.875  63.570  1.00  0.00     0.042 C 
HETATM   13  C24 UNL     1      52.754  45.190  64.129  1.00  0.00    -0.034 C 
HETATM   14  C25 UNL     1      52.313  43.797  64.483  1.00  0.00     0.016 C 
HETATM   15  C26 UNL     1      53.470  45.894  65.230  1.00  0.00    -0.001 C 
HETATM   16  C27 UNL     1      52.644  46.444  66.326  1.00  0.00     0.006 C 
HETATM   17  C28 UNL     1      53.550  46.938  67.434  1.00  0.00     0.010 C 
HETATM   18  C29 UNL     1      54.472  45.821  67.943  1.00  0.00    -0.032 C 
HETATM   19  C30 UNL     1      53.579  44.755  68.458  1.00  0.00     0.016 C 
ENDROOT
BRANCH  11  20
HETATM   20  O2  UNL     1      50.537  45.488  61.369  1.00  0.00    -0.353 OA
BRANCH  20  21
HETATM   21  C16 UNL     1      49.729  44.427  60.930  1.00  0.00     0.290 C 
HETATM   22  O3  UNL     1      48.883  43.902  61.817  1.00  0.00    -0.356 OA
HETATM   23  C17 UNL     1      47.552  44.156  61.537  1.00  0.00     0.205 C 
HETATM   24  C18 UNL     1      47.386  45.634  61.244  1.00  0.00     0.181 C 
HETATM   25  C21 UNL     1      48.030  45.897  59.874  1.00  0.00     0.247 C 
HETATM   26  C22 UNL     1      49.060  44.819  59.616  1.00  0.00     0.206 C 
BRANCH  24  27
HETATM   27  O4  UNL     1      46.174  46.177  61.386  1.00  0.00    -0.352 OA
BRANCH  27  28
HETATM   28  C19 UNL     1      44.922  46.093  61.549  1.00  0.00     0.253 C 
HETATM   29  C20 UNL     1      43.841  45.884  62.484  1.00  0.00     0.070 C 
BRANCH  28  30
HETATM   30  O5  UNL     1      44.285  46.265  60.269  1.00  0.00    -0.372 OA
ATOM     31  H5  UNL     1      43.588  45.624  60.193  1.00  0.00     0.212 HD
ENDBRANCH  28  30
ENDBRANCH  27  28
ENDBRANCH  24  27
BRANCH  25  32
HETATM   32  N1  UNL     1      47.042  45.849  58.837  1.00  0.00    -0.070 N 
ATOM     33  H13 UNL     1      46.665  44.908  58.716  1.00  0.00     0.274 HD
ATOM     34  H12 UNL     1      46.181  46.323  59.110  1.00  0.00     0.274 HD
ATOM     35  H11 UNL     1      47.419  46.221  57.966  1.00  0.00     0.274 HD
ENDBRANCH  25  32
BRANCH  26  36
HETATM   36  O6  UNL     1      48.485  43.763  58.953  1.00  0.00    -0.388 OA
ATOM     37  H6  UNL     1      47.627  43.958  58.596  1.00  0.00     0.210 HD
ENDBRANCH  26  36
ENDBRANCH  20  21
ENDBRANCH  11  20
BRANCH   1  38
HETATM   38  C2  UNL     1      56.071  45.555  69.889  1.00  0.00    -0.061 C 
HETATM   39  C1  UNL     1      56.614  44.407  69.684  1.00  0.00     0.017 C 
BRANCH  38  40
HETATM   40  C3  UNL     1      55.994  45.982  71.357  1.00  0.00     0.201 C 
BRANCH  40  41
HETATM   41  O1  UNL     1      57.047  45.477  72.118  1.00  0.00    -0.392 OA
HETATM   42  C4  UNL     1      57.177  46.207  73.285  1.00  0.00     0.201 C 
ENDBRANCH  40  41
ENDBRANCH  38  40
ENDBRANCH   1  38
TORSDOF 10
ENDMDL
MODEL 3
REMARK VINA RESULT: -8.970848561      3.726      5.869
REMARK  10 active torsions:
REMARK  status: ('A' for Active; 'I' for Inactive)
REMARK    1  A    between atoms: C2_2  and  C3_3 
REMARK    2  A    between atoms: C2_2  and  C5_6 
REMARK    3  A    between atoms: C3_3  and  O1_4 
REMARK    4  A    between atoms: C15_16  and  O2_17 
REMARK    5  A    between atoms: O2_17  and  C16_18 
REMARK    6  A    between atoms: C18_21  and  O4_22 
REMARK    7  A    between atoms: O4_22  and  C19_23 
REMARK    8  A    between atoms: C19_23  and  O5_25 
REMARK    9  A    between atoms: C21_27  and  N1_28 
REMARK   10  A    between atoms: C22_32  and  O6_33 
ROOT
HETATM    1  C5  UNL     1      53.456  45.314  69.222  1.00  0.00     0.028 C 
HETATM    2  C6  UNL     1      52.232  44.916  69.997  1.00  0.00    -0.009 C 
HETATM    3  C7  UNL     1      52.252  45.032  71.469  1.00  0.00     0.011 C 
HETATM    4  C8  UNL     1      51.040  45.699  69.415  1.00  0.00     0.010 C 
HETATM    5  C9  UNL     1      51.653  46.592  68.402  1.00  0.00    -0.001 C 
HETATM    6  C10 UNL     1      50.764  46.987  67.242  1.00  0.00    -0.005 C 
HETATM    7  C11 UNL     1      49.432  47.548  67.761  1.00  0.00     0.006 C 
HETATM    8  C12 UNL     1      48.600  48.065  66.585  1.00  0.00     0.006 C 
HETATM    9  C13 UNL     1      48.416  46.907  65.664  1.00  0.00    -0.004 C 
HETATM   10  C14 UNL     1      47.499  46.991  64.538  1.00  0.00     0.037 C 
HETATM   11  C15 UNL     1      48.365  46.573  63.316  1.00  0.00     0.126 C 
HETATM   12  C23 UNL     1      49.372  45.611  63.975  1.00  0.00     0.042 C 
HETATM   13  C24 UNL     1      49.771  46.530  65.109  1.00  0.00    -0.034 C 
HETATM   14  C25 UNL     1      50.526  47.660  64.466  1.00  0.00     0.016 C 
HETATM   15  C26 UNL     1      50.486  45.904  66.258  1.00  0.00    -0.001 C 
HETATM   16  C27 UNL     1      51.589  44.973  65.938  1.00  0.00     0.006 C 
HETATM   17  C28 UNL     1      52.314  44.601  67.213  1.00  0.00     0.010 C 
HETATM   18  C29 UNL     1      52.835  45.845  67.945  1.00  0.00    -0.032 C 
HETATM   19  C30 UNL     1      53.772  46.511  67.007  1.00  0.00     0.016 C 
ENDROOT
BRANCH  11  20
HETATM   20  O2  UNL     1      47.608  46.028  62.336  1.00  0.00    -0.353 OA
BRANCH  20  21
HETATM   21  C16 UNL     1      47.989  46.556  61.092  1.00  0.00     0.290 C 
HETATM   22  O3  UNL     1      49.271  46.893  60.943  1.00  0.00    -0.356 OA
HETATM   23  C17 UNL     1      49.962  46.080  60.062  1.00  0.00     0.205 C 
HETATM   24  C18 UNL     1      49.685  44.631  60.412  1.00  0.00     0.181 C 
HETATM   25  C21 UNL     1      48.233  44.339  60.003  1.00  0.00     0.247 C 
HETATM   26  C22 UNL     1      47.470  45.646  59.983  1.00  0.00     0.206 C 
BRANCH  24  27
HETATM   27  O4  UNL     1      50.558  43.703  60.011  1.00  0.00    -0.352 OA
BRANCH  27  28
HETATM   28  C19 UNL     1      51.712  43.184  59.998  1.00  0.00     0.253 C 
HETATM   29  C20 UNL     1      53.114  43.358  60.298  1.00  0.00     0.070 C 
BRANCH  28  30
HETATM   30  O5  UNL     1      51.608  41.861  59.439  1.00  0.00    -0.372 OA
ATOM     31  H5  UNL     1      52.328  41.734  58.833  1.00  0.00     0.212 HD
ENDBRANCH  28  30
ENDBRANCH  27  28
ENDBRANCH  24  27
BRANCH  25  32
HETATM   32  N1  UNL     1      48.188  43.758  58.694  1.00  0.00    -0.070 N 
ATOM     33  H13 UNL     1      48.579  44.382  57.988  1.00  0.00     0.274 HD
ATOM     34  H12 UNL     1      48.848  42.986  58.597  1.00  0.00     0.274 HD
ATOM     35  H11 UNL     1      47.236  43.472  58.462  1.00  0.00     0.274 HD
ENDBRANCH  25  32
BRANCH  26  36
HETATM   36  O6  UNL     1      47.530  46.210  58.733  1.00  0.00    -0.388 OA
ATOM     37  H6  UNL     1      48.179  46.899  58.655  1.00  0.00     0.210 HD
ENDBRANCH  26  36
ENDBRANCH  20  21
ENDBRANCH  11  20
BRANCH   1  38
HETATM   38  C2  UNL     1      54.364  46.262  69.921  1.00  0.00    -0.061 C 
HETATM   39  C1  UNL     1      54.264  47.522  70.163  1.00  0.00     0.017 C 
BRANCH  38  40
HETATM   40  C3  UNL     1      55.722  45.644  70.260  1.00  0.00     0.201 C 
BRANCH  40  41
HETATM   41  O1  UNL     1      55.660  44.259  70.406  1.00  0.00    -0.392 OA
HETATM   42  C4  UNL     1      56.863  43.692  70.027  1.00  0.00     0.201 C 
ENDBRANCH  40  41
ENDBRANCH  38  40
ENDBRANCH   1  38
TORSDOF 10
ENDMDL
MODEL 4
REMARK VINA RESULT: -8.951377840      4.379      7.269
REMARK  10 active torsions:
REMARK  status: ('A' for Active; 'I' for Inactive)
REMARK    1  A    between atoms: C2_2  and  C3_3 
REMARK    2  A    between atoms: C2_2  and  C5_6 
REMARK    3  A    between atoms: C3_3  and  O1_4 
REMARK    4  A    between atoms: C15_16  and  O2_17 
REMARK    5  A    between atoms: O2_17  and  C16_18 
REMARK    6  A    between atoms: C18_21  and  O4_22 
REMARK    7  A    between atoms: O4_22  and  C19_23 
REMARK    8  A    between atoms: C19_23  and  O5_25 
REMARK    9  A    between atoms: C21_27  and  N1_28 
REMARK   10  A    between atoms: C22_32  and  O6_33 
ROOT
HETATM    1  C5  UNL     1      53.866  46.187  68.478  1.00  0.00     0.028 C 
HETATM    2  C6  UNL     1      54.850  46.939  67.627  1.00  0.00    -0.009 C 
HETATM    3  C7  UNL     1      56.250  47.047  68.084  1.00  0.00     0.011 C 
HETATM    4  C8  UNL     1      54.796  46.334  66.211  1.00  0.00     0.010 C 
HETATM    5  C9  UNL     1      53.859  45.192  66.341  1.00  0.00    -0.001 C 
HETATM    6  C10 UNL     1      53.098  44.813  65.088  1.00  0.00    -0.005 C 
HETATM    7  C11 UNL     1      54.069  44.620  63.915  1.00  0.00     0.006 C 
HETATM    8  C12 UNL     1      53.302  44.109  62.693  1.00  0.00     0.006 C 
HETATM    9  C13 UNL     1      52.250  45.127  62.406  1.00  0.00    -0.004 C 
HETATM   10  C14 UNL     1      51.464  45.060  61.184  1.00  0.00     0.037 C 
HETATM   11  C15 UNL     1      49.991  45.102  61.681  1.00  0.00     0.126 C 
HETATM   12  C23 UNL     1      50.133  45.929  62.973  1.00  0.00     0.042 C 
HETATM   13  C24 UNL     1      51.276  45.132  63.563  1.00  0.00    -0.034 C 
HETATM   14  C25 UNL     1      50.697  43.787  63.905  1.00  0.00     0.016 C 
HETATM   15  C26 UNL     1      52.028  45.767  64.683  1.00  0.00    -0.001 C 
HETATM   16  C27 UNL     1      51.230  46.395  65.758  1.00  0.00     0.006 C 
HETATM   17  C28 UNL     1      52.150  46.802  66.889  1.00  0.00     0.010 C 
HETATM   18  C29 UNL     1      52.949  45.604  67.421  1.00  0.00    -0.032 C 
HETATM   19  C30 UNL     1      51.947  44.628  67.912  1.00  0.00     0.016 C 
ENDROOT
BRANCH  11  20
HETATM   20  O2  UNL     1      49.170  45.633  60.748  1.00  0.00    -0.353 OA
BRANCH  20  21
HETATM   21  C16 UNL     1      48.183  44.698  60.396  1.00  0.00     0.290 C 
HETATM   22  O3  UNL     1      47.783  43.851  61.345  1.00  0.00    -0.356 OA
HETATM   23  C17 UNL     1      46.486  44.065  61.774  1.00  0.00     0.205 C 
HETATM   24  C18 UNL     1      46.305  45.541  62.071  1.00  0.00     0.181 C 
HETATM   25  C21 UNL     1      46.293  46.274  60.721  1.00  0.00     0.247 C 
HETATM   26  C22 UNL     1      47.030  45.423  59.709  1.00  0.00     0.206 C 
BRANCH  24  27
HETATM   27  O4  UNL     1      45.318  45.905  62.895  1.00  0.00    -0.352 OA
BRANCH  27  28
HETATM   28  C19 UNL     1      44.158  45.772  63.379  1.00  0.00     0.253 C 
HETATM   29  C20 UNL     1      43.286  46.022  64.504  1.00  0.00     0.070 C 
BRANCH  28  30
HETATM   30  O5  UNL     1      43.345  45.061  62.426  1.00  0.00    -0.372 OA
ATOM     31  H5  UNL     1      42.948  44.319  62.865  1.00  0.00     0.212 HD
ENDBRANCH  28  30
ENDBRANCH  27  28
ENDBRANCH  24  27
BRANCH  25  32
HETATM   32  N1  UNL     1      44.947  46.469  60.267  1.00  0.00    -0.070 N 
ATOM     33  H13 UNL     1      44.265  46.115  60.939  1.00  0.00     0.274 HD
ATOM     34  H12 UNL     1      44.679  47.453  60.283  1.00  0.00     0.274 HD
ATOM     35  H11 UNL     1      44.817  46.056  59.343  1.00  0.00     0.274 HD
ENDBRANCH  25  32
BRANCH  26  36
HETATM   36  O6  UNL     1      46.153  44.583  59.068  1.00  0.00    -0.388 OA
ATOM     37  H6  UNL     1      46.328  43.662  59.219  1.00  0.00     0.210 HD
ENDBRANCH  26  36
ENDBRANCH  20  21
ENDBRANCH  11  20
BRANCH   1  38
HETATM   38  C2  UNL     1      54.466  45.192  69.406  1.00  0.00    -0.061 C 
HETATM   39  C1  UNL     1      55.016  44.048  69.197  1.00  0.00     0.017 C 
BRANCH  38  40
HETATM   40  C3  UNL     1      54.231  45.536  70.879  1.00  0.00     0.201 C 
BRANCH  40  41
HETATM   41  O1  UNL     1      53.066  46.275  71.078  1.00  0.00    -0.392 OA
HETATM   42  C4  UNL     1      53.013  46.726  72.384  1.00  0.00     0.201 C 
ENDBRANCH  40  41
ENDBRANCH  38  40
ENDBRANCH   1  38
TORSDOF 10
ENDMDL
MODEL 5
REMARK VINA RESULT: -8.706342347      4.198      6.677
REMARK  10 active torsions:
REMARK  status: ('A' for Active; 'I' for Inactive)
REMARK    1  A    between atoms: C2_2  and  C3_3 
REMARK    2  A    between atoms: C2_2  and  C5_6 
REMARK    3  A    between atoms: C3_3  and  O1_4 
REMARK    4  A    between atoms: C15_16  and  O2_17 
REMARK    5  A    between atoms: O2_17  and  C16_18 
REMARK    6  A    between atoms: C18_21  and  O4_22 
REMARK    7  A    between atoms: O4_22  and  C19_23 
REMARK    8  A    between atoms: C19_23  and  O5_25 
REMARK    9  A    between atoms: C21_27  and  N1_28 
REMARK   10  A    between atoms: C22_32  and  O6_33 
ROOT
HETATM    1  C5  UNL     1      52.882  46.817  69.796  1.00  0.00     0.028 C 
HETATM    2  C6  UNL     1      53.850  47.795  69.195  1.00  0.00    -0.009 C 
HETATM    3  C7  UNL     1      55.021  48.218  69.989  1.00  0.00     0.011 C 
HETATM    4  C8  UNL     1      54.304  47.224  67.837  1.00  0.00     0.010 C 
HETATM    5  C9  UNL     1      53.656  45.892  67.770  1.00  0.00    -0.001 C 
HETATM    6  C10 UNL     1      53.351  45.373  66.381  1.00  0.00    -0.005 C 
HETATM    7  C11 UNL     1      54.609  45.436  65.503  1.00  0.00     0.006 C 
HETATM    8  C12 UNL     1      54.321  44.786  64.147  1.00  0.00     0.006 C 
HETATM    9  C13 UNL     1      53.173  45.536  63.561  1.00  0.00    -0.004 C 
HETATM   10  C14 UNL     1      52.765  45.312  62.183  1.00  0.00     0.037 C 
HETATM   11  C15 UNL     1      51.246  44.998  62.286  1.00  0.00     0.126 C 
HETATM   12  C23 UNL     1      50.856  45.808  63.537  1.00  0.00     0.042 C 
HETATM   13  C24 UNL     1      51.961  45.288  64.431  1.00  0.00    -0.034 C 
HETATM   14  C25 UNL     1      51.640  43.839  64.668  1.00  0.00     0.016 C 
HETATM   15  C26 UNL     1      52.231  46.058  65.678  1.00  0.00    -0.001 C 
HETATM   16  C27 UNL     1      51.061  46.459  66.488  1.00  0.00     0.006 C 
HETATM   17  C28 UNL     1      51.539  47.047  67.799  1.00  0.00     0.010 C 
HETATM   18  C29 UNL     1      52.428  46.058  68.565  1.00  0.00    -0.032 C 
HETATM   19  C30 UNL     1      51.588  44.864  68.823  1.00  0.00     0.016 C 
ENDROOT
BRANCH  11  20
HETATM   20  O2  UNL     1      50.592  45.342  61.153  1.00  0.00    -0.353 OA
BRANCH  20  21
HETATM   21  C16 UNL     1      49.717  44.310  60.777  1.00  0.00     0.290 C 
HETATM   22  O3  UNL     1      48.904  43.832  61.719  1.00  0.00    -0.356 OA
HETATM   23  C17 UNL     1      47.570  44.137  61.513  1.00  0.00     0.205 C 
HETATM   24  C18 UNL     1      47.448  45.617  61.208  1.00  0.00     0.181 C 
HETATM   25  C21 UNL     1      48.021  45.836  59.800  1.00  0.00     0.247 C 
HETATM   26  C22 UNL     1      48.989  44.713  59.499  1.00  0.00     0.206 C 
BRANCH  24  27
HETATM   27  O4  UNL     1      46.268  46.210  61.413  1.00  0.00    -0.352 OA
BRANCH  27  28
HETATM   28  C19 UNL     1      45.010  46.267  61.301  1.00  0.00     0.253 C 
HETATM   29  C20 UNL     1      43.884  46.941  60.694  1.00  0.00     0.070 C 
BRANCH  28  30
HETATM   30  O5  UNL     1      44.432  45.242  62.130  1.00  0.00    -0.372 OA
ATOM     31  H5  UNL     1      44.718  45.383  63.024  1.00  0.00     0.212 HD
ENDBRANCH  28  30
ENDBRANCH  27  28
ENDBRANCH  24  27
BRANCH  25  32
HETATM   32  N1  UNL     1      46.972  45.816  58.822  1.00  0.00    -0.070 N 
ATOM     33  H13 UNL     1      46.505  44.909  58.786  1.00  0.00     0.274 HD
ATOM     34  H12 UNL     1      46.176  46.385  59.108  1.00  0.00     0.274 HD
ATOM     35  H11 UNL     1      47.330  46.095  57.909  1.00  0.00     0.274 HD
ENDBRANCH  25  32
BRANCH  26  36
HETATM   36  O6  UNL     1      48.335  43.674  58.886  1.00  0.00    -0.388 OA
ATOM     37  H6  UNL     1      47.450  43.888  58.613  1.00  0.00     0.210 HD
ENDBRANCH  26  36
ENDBRANCH  20  21
ENDBRANCH  11  20
BRANCH   1  38
HETATM   38  C2  UNL     1      53.436  45.970  70.886  1.00  0.00    -0.061 C 
HETATM   39  C1  UNL     1      54.283  45.001  70.872  1.00  0.00     0.017 C 
BRANCH  38  40
HETATM   40  C3  UNL     1      52.742  46.202  72.231  1.00  0.00     0.201 C 
BRANCH  40  41
HETATM   41  O1  UNL     1      53.468  47.045  73.071  1.00  0.00    -0.392 OA
HETATM   42  C4  UNL     1      52.777  48.228  73.261  1.00  0.00     0.201 C 
ENDBRANCH  40  41
ENDBRANCH  38  40
ENDBRANCH   1  38
TORSDOF 10
ENDMDL
