MODEL 1
REMARK VINA RESULT: -8.488425247      0.000      0.000
REMARK  12 active torsions:
REMARK  status: ('A' for Active; 'I' for Inactive)
REMARK    1  A    between atoms: C2_2  and  C3_3 
REMARK    2  A    between atoms: C3_3  and  O1_4 
REMARK    3  A    between atoms: C4_6  and  O2_7 
REMARK    4  A    between atoms: O2_7  and  C5_8 
REMARK    5  A    between atoms: C5_8  and  C6_10 
REMARK    6  A    between atoms: C9_13  and  C10_14 
REMARK    7  A    between atoms: C10_14  and  C11_15 
REMARK    8  A    between atoms: C11_15  and  O5_17 
REMARK    9  A    between atoms: O5_17  and  C12_18 
REMARK   10  A    between atoms: C17_24  and  O7_25 
REMARK   11  A    between atoms: C20_29  and  C21_30 
REMARK   12  A    between atoms: C22_31  and  C23_32 
ROOT
HETATM    1  C3  UNL     1      51.105  45.294  63.651  1.00  0.00     0.111 C 
HETATM    2  C4  UNL     1      49.617  45.528  63.550  1.00  0.00     0.200 C 
HETATM    3  C9  UNL     1      49.068  45.259  62.162  1.00  0.00     0.164 C 
HETATM    4  O6  UNL     1      49.608  44.029  61.782  1.00  0.00    -0.377 OA
HETATM    5  C15 UNL     1      50.873  44.370  61.295  1.00  0.00     0.132 C 
HETATM    6  C16 UNL     1      51.451  43.157  60.655  1.00  0.00     0.064 C 
HETATM    7  C17 UNL     1      52.879  43.336  60.156  1.00  0.00     0.125 C 
HETATM    8  C18 UNL     1      53.403  44.542  60.783  1.00  0.00     0.024 C 
HETATM    9  C19 UNL     1      54.800  44.795  61.150  1.00  0.00     0.017 C 
HETATM   10  C20 UNL     1      54.269  45.484  62.377  1.00  0.00     0.017 C 
HETATM   11  C28 UNL     1      53.081  44.463  62.266  1.00  0.00    -0.022 C 
HETATM   12  C29 UNL     1      53.471  43.257  62.982  1.00  0.00     0.017 C 
HETATM   13  C30 UNL     1      51.721  45.043  62.346  1.00  0.00     0.065 C 
ENDROOT
BRANCH   3  14
HETATM   14  C10 UNL     1      47.561  45.188  62.242  1.00  0.00     0.145 C 
BRANCH  14  15
HETATM   15  C11 UNL     1      47.005  45.511  60.902  1.00  0.00     0.261 C 
HETATM   16  O4  UNL     1      47.744  45.820  59.939  1.00  0.00    -0.265 OA
BRANCH  15  17
HETATM   17  O5  UNL     1      45.630  45.479  60.669  1.00  0.00    -0.317 OA
BRANCH  17  18
HETATM   18  C12 UNL     1      44.782  46.276  61.462  1.00  0.00     0.123 C 
HETATM   19  C13 UNL     1      44.092  45.405  62.464  1.00  0.00     0.040 C 
HETATM   20  C14 UNL     1      43.793  47.027  60.588  1.00  0.00     0.040 C 
ENDBRANCH  17  18
ENDBRANCH  15  17
ENDBRANCH  14  15
ENDBRANCH   3  14
BRANCH   2  21
HETATM   21  O2  UNL     1      49.221  46.806  64.019  1.00  0.00    -0.310 OA
BRANCH  21  22
HETATM   22  C5  UNL     1      48.673  47.011  65.276  1.00  0.00     0.262 C 
HETATM   23  O3  UNL     1      49.461  46.851  66.249  1.00  0.00    -0.265 OA
BRANCH  22  24
HETATM   24  C6  UNL     1      47.281  47.388  65.520  1.00  0.00     0.077 C 
HETATM   25  C7  UNL     1      47.131  47.809  66.965  1.00  0.00     0.020 C 
HETATM   26  C8  UNL     1      46.310  46.237  65.296  1.00  0.00     0.020 C 
ENDBRANCH  22  24
ENDBRANCH  21  22
ENDBRANCH   2  21
BRANCH   1  27
HETATM   27  C2  UNL     1      51.321  44.307  64.731  1.00  0.00     0.004 C 
HETATM   28  C1  UNL     1      51.928  44.522  65.882  1.00  0.00     0.010 C 
ENDBRANCH   1  27
BRANCH   1  29
HETATM   29  O1  UNL     1      51.617  46.560  64.099  1.00  0.00    -0.383 OA
ATOM     30  H1  UNL     1      51.228  47.240  63.561  1.00  0.00     0.211 HD
ENDBRANCH   1  29
BRANCH   7  31
HETATM   31  O7  UNL     1      53.629  42.171  60.317  1.00  0.00    -0.395 OA
ATOM     32  H7  UNL     1      54.548  42.364  60.458  1.00  0.00     0.210 HD
ENDBRANCH   7  31
BRANCH  10  33
HETATM   33  C21 UNL     1      54.943  45.370  63.647  1.00  0.00    -0.025 C 
HETATM   34  C22 UNL     1      55.135  46.226  64.572  1.00  0.00    -0.025 C 
BRANCH  34  35
HETATM   35  C23 UNL     1      54.745  47.647  64.717  1.00  0.00     0.016 A 
HETATM   36  C24 UNL     1      55.091  48.222  66.098  1.00  0.00     0.018 A 
HETATM   37  C25 UNL     1      55.840  48.647  64.887  1.00  0.00    -0.040 A 
HETATM   38  C26 UNL     1      55.553  50.074  64.430  1.00  0.00     0.015 C 
HETATM   39  C27 UNL     1      57.280  48.236  64.678  1.00  0.00     0.015 C 
ENDBRANCH  34  35
ENDBRANCH  10  33
TORSDOF 12
ENDMDL
MODEL 2
REMARK VINA RESULT: -8.284052456      2.604      7.578
REMARK  12 active torsions:
REMARK  status: ('A' for Active; 'I' for Inactive)
REMARK    1  A    between atoms: C2_2  and  C3_3 
REMARK    2  A    between atoms: C3_3  and  O1_4 
REMARK    3  A    between atoms: C4_6  and  O2_7 
REMARK    4  A    between atoms: O2_7  and  C5_8 
REMARK    5  A    between atoms: C5_8  and  C6_10 
REMARK    6  A    between atoms: C9_13  and  C10_14 
REMARK    7  A    between atoms: C10_14  and  C11_15 
REMARK    8  A    between atoms: C11_15  and  O5_17 
REMARK    9  A    between atoms: O5_17  and  C12_18 
REMARK   10  A    between atoms: C17_24  and  O7_25 
REMARK   11  A    between atoms: C20_29  and  C21_30 
REMARK   12  A    between atoms: C22_31  and  C23_32 
ROOT
HETATM    1  C3  UNL     1      50.584  44.231  63.106  1.00  0.00     0.111 C 
HETATM    2  C4  UNL     1      51.651  43.206  63.404  1.00  0.00     0.200 C 
HETATM    3  C9  UNL     1      52.233  42.577  62.153  1.00  0.00     0.164 C 
HETATM    4  O6  UNL     1      52.511  43.643  61.296  1.00  0.00    -0.377 OA
HETATM    5  C15 UNL     1      51.280  43.893  60.685  1.00  0.00     0.132 C 
HETATM    6  C16 UNL     1      51.513  44.869  59.585  1.00  0.00     0.064 C 
HETATM    7  C17 UNL     1      50.244  45.324  58.877  1.00  0.00     0.125 C 
HETATM    8  C18 UNL     1      49.122  44.951  59.727  1.00  0.00     0.024 C 
HETATM    9  C19 UNL     1      47.847  45.665  59.849  1.00  0.00     0.017 C 
HETATM   10  C20 UNL     1      47.891  45.330  61.315  1.00  0.00     0.017 C 
HETATM   11  C28 UNL     1      49.450  45.400  61.141  1.00  0.00    -0.022 C 
HETATM   12  C29 UNL     1      49.851  46.786  61.337  1.00  0.00     0.017 C 
HETATM   13  C30 UNL     1      50.213  44.256  61.689  1.00  0.00     0.065 C 
ENDROOT
BRANCH   3  14
HETATM   14  C10 UNL     1      53.497  41.836  62.526  1.00  0.00     0.145 C 
BRANCH  14  15
HETATM   15  C11 UNL     1      54.609  42.356  61.688  1.00  0.00     0.261 C 
HETATM   16  O4  UNL     1      54.663  42.138  60.456  1.00  0.00    -0.265 OA
BRANCH  15  17
HETATM   17  O5  UNL     1      55.639  43.110  62.250  1.00  0.00    -0.317 OA
BRANCH  17  18
HETATM   18  C12 UNL     1      55.353  44.395  62.750  1.00  0.00     0.123 C 
HETATM   19  C13 UNL     1      55.528  45.395  61.650  1.00  0.00     0.040 C 
HETATM   20  C14 UNL     1      56.238  44.708  63.944  1.00  0.00     0.040 C 
ENDBRANCH  17  18
ENDBRANCH  15  17
ENDBRANCH  14  15
ENDBRANCH   3  14
BRANCH   2  21
HETATM   21  O2  UNL     1      51.229  42.215  64.327  1.00  0.00    -0.310 OA
BRANCH  21  22
HETATM   22  C5  UNL     1      51.852  42.011  65.549  1.00  0.00     0.262 C 
HETATM   23  O3  UNL     1      52.278  40.840  65.757  1.00  0.00    -0.265 OA
BRANCH  22  24
HETATM   24  C6  UNL     1      52.034  43.045  66.569  1.00  0.00     0.077 C 
HETATM   25  C7  UNL     1      53.256  43.866  66.225  1.00  0.00     0.020 C 
HETATM   26  C8  UNL     1      52.270  42.467  67.957  1.00  0.00     0.020 C 
ENDBRANCH  22  24
ENDBRANCH  21  22
ENDBRANCH   2  21
BRANCH   1  27
HETATM   27  C2  UNL     1      51.002  45.498  63.745  1.00  0.00     0.004 C 
HETATM   28  C1  UNL     1      52.234  45.956  63.849  1.00  0.00     0.010 C 
ENDBRANCH   1  27
BRANCH   1  29
HETATM   29  O1  UNL     1      49.433  43.738  63.813  1.00  0.00    -0.383 OA
ATOM     30  H1  UNL     1      49.511  44.003  64.722  1.00  0.00     0.211 HD
ENDBRANCH   1  29
BRANCH   7  31
HETATM   31  O7  UNL     1      50.321  46.664  58.496  1.00  0.00    -0.395 OA
ATOM     32  H7  UNL     1      49.610  46.903  57.913  1.00  0.00     0.210 HD
ENDBRANCH   7  31
BRANCH  10  33
HETATM   33  C21 UNL     1      47.430  46.268  62.308  1.00  0.00    -0.025 C 
HETATM   34  C22 UNL     1      46.255  46.533  62.726  1.00  0.00    -0.025 C 
BRANCH  34  35
HETATM   35  C23 UNL     1      44.922  45.992  62.376  1.00  0.00     0.016 A 
HETATM   36  C24 UNL     1      44.710  44.557  62.877  1.00  0.00     0.018 A 
HETATM   37  C25 UNL     1      43.983  45.695  63.498  1.00  0.00    -0.040 A 
HETATM   38  C26 UNL     1      42.491  45.743  63.185  1.00  0.00     0.015 C 
HETATM   39  C27 UNL     1      44.309  46.156  64.901  1.00  0.00     0.015 C 
ENDBRANCH  34  35
ENDBRANCH  10  33
TORSDOF 12
ENDMDL
MODEL 3
REMARK VINA RESULT: -8.261596749      2.773      7.777
REMARK  12 active torsions:
REMARK  status: ('A' for Active; 'I' for Inactive)
REMARK    1  A    between atoms: C2_2  and  C3_3 
REMARK    2  A    between atoms: C3_3  and  O1_4 
REMARK    3  A    between atoms: C4_6  and  O2_7 
REMARK    4  A    between atoms: O2_7  and  C5_8 
REMARK    5  A    between atoms: C5_8  and  C6_10 
REMARK    6  A    between atoms: C9_13  and  C10_14 
REMARK    7  A    between atoms: C10_14  and  C11_15 
REMARK    8  A    between atoms: C11_15  and  O5_17 
REMARK    9  A    between atoms: O5_17  and  C12_18 
REMARK   10  A    between atoms: C17_24  and  O7_25 
REMARK   11  A    between atoms: C20_29  and  C21_30 
REMARK   12  A    between atoms: C22_31  and  C23_32 
ROOT
HETATM    1  C3  UNL     1      48.959  47.351  64.702  1.00  0.00     0.111 C 
HETATM    2  C4  UNL     1      49.952  47.700  65.784  1.00  0.00     0.200 C 
HETATM    3  C9  UNL     1      51.065  46.679  65.918  1.00  0.00     0.164 C 
HETATM    4  O6  UNL     1      51.508  46.440  64.615  1.00  0.00    -0.377 OA
HETATM    5  C15 UNL     1      50.599  45.493  64.135  1.00  0.00     0.132 C 
HETATM    6  C16 UNL     1      51.111  45.001  62.827  1.00  0.00     0.064 C 
HETATM    7  C17 UNL     1      50.177  44.027  62.120  1.00  0.00     0.125 C 
HETATM    8  C18 UNL     1      48.874  44.143  62.760  1.00  0.00     0.024 C 
HETATM    9  C19 UNL     1      47.569  43.953  62.118  1.00  0.00     0.017 C 
HETATM   10  C20 UNL     1      47.074  45.089  62.971  1.00  0.00     0.017 C 
HETATM   11  C28 UNL     1      48.547  45.622  62.870  1.00  0.00    -0.022 C 
HETATM   12  C29 UNL     1      48.639  46.429  61.662  1.00  0.00     0.017 C 
HETATM   13  C30 UNL     1      49.182  46.013  64.149  1.00  0.00     0.065 C 
ENDROOT
BRANCH   3  14
HETATM   14  C10 UNL     1      52.167  47.271  66.766  1.00  0.00     0.145 C 
BRANCH  14  15
HETATM   15  C11 UNL     1      52.924  46.157  67.394  1.00  0.00     0.261 C 
HETATM   16  O4  UNL     1      54.022  46.347  67.967  1.00  0.00    -0.265 OA
BRANCH  15  17
HETATM   17  O5  UNL     1      52.433  44.852  67.368  1.00  0.00    -0.317 OA
BRANCH  17  18
HETATM   18  C12 UNL     1      52.378  44.116  68.568  1.00  0.00     0.123 C 
HETATM   19  C13 UNL     1      52.407  42.656  68.244  1.00  0.00     0.040 C 
HETATM   20  C14 UNL     1      51.142  44.495  69.364  1.00  0.00     0.040 C 
ENDBRANCH  17  18
ENDBRANCH  15  17
ENDBRANCH  14  15
ENDBRANCH   3  14
BRANCH   2  21
HETATM   21  O2  UNL     1      49.342  47.960  67.037  1.00  0.00    -0.310 OA
BRANCH  21  22
HETATM   22  C5  UNL     1      49.109  49.242  67.510  1.00  0.00     0.262 C 
HETATM   23  O3  UNL     1      50.139  49.926  67.767  1.00  0.00    -0.265 OA
BRANCH  22  24
HETATM   24  C6  UNL     1      47.780  49.821  67.715  1.00  0.00     0.077 C 
HETATM   25  C7  UNL     1      47.899  51.007  68.645  1.00  0.00     0.020 C 
HETATM   26  C8  UNL     1      46.809  48.847  68.368  1.00  0.00     0.020 C 
ENDBRANCH  22  24
ENDBRANCH  21  22
ENDBRANCH   2  21
BRANCH   1  27
HETATM   27  C2  UNL     1      48.907  48.497  63.768  1.00  0.00     0.004 C 
HETATM   28  C1  UNL     1      49.496  49.666  63.925  1.00  0.00     0.010 C 
ENDBRANCH   1  27
BRANCH   1  29
HETATM   29  O1  UNL     1      47.704  47.292  65.400  1.00  0.00    -0.383 OA
ATOM     30  H1  UNL     1      47.684  48.006  66.027  1.00  0.00     0.211 HD
ENDBRANCH   1  29
BRANCH   7  31
HETATM   31  O7  UNL     1      50.211  44.198  60.736  1.00  0.00    -0.395 OA
ATOM     32  H7  UNL     1      49.557  44.822  60.444  1.00  0.00     0.210 HD
ENDBRANCH   7  31
BRANCH  10  33
HETATM   33  C21 UNL     1      46.130  46.050  62.458  1.00  0.00    -0.025 C 
HETATM   34  C22 UNL     1      44.873  46.166  62.636  1.00  0.00    -0.025 C 
BRANCH  34  35
HETATM   35  C23 UNL     1      43.898  45.383  63.431  1.00  0.00     0.016 A 
HETATM   36  C24 UNL     1      43.449  46.110  64.706  1.00  0.00     0.018 A 
HETATM   37  C25 UNL     1      42.518  45.934  63.562  1.00  0.00    -0.040 A 
HETATM   38  C26 UNL     1      41.392  44.933  63.806  1.00  0.00     0.015 C 
HETATM   39  C27 UNL     1      42.089  47.114  62.718  1.00  0.00     0.015 C 
ENDBRANCH  34  35
ENDBRANCH  10  33
TORSDOF 12
ENDMDL
MODEL 4
REMARK VINA RESULT: -8.158744765      2.713      7.454
REMARK  12 active torsions:
REMARK  status: ('A' for Active; 'I' for Inactive)
REMARK    1  A    between atoms: C2_2  and  C3_3 
REMARK    2  A    between atoms: C3_3  and  O1_4 
REMARK    3  A    between atoms: C4_6  and  O2_7 
REMARK    4  A    between atoms: O2_7  and  C5_8 
REMARK    5  A    between atoms: C5_8  and  C6_10 
REMARK    6  A    between atoms: C9_13  and  C10_14 
REMARK    7  A    between atoms: C10_14  and  C11_15 
REMARK    8  A    between atoms: C11_15  and  O5_17 
REMARK    9  A    between atoms: O5_17  and  C12_18 
REMARK   10  A    between atoms: C17_24  and  O7_25 
REMARK   11  A    between atoms: C20_29  and  C21_30 
REMARK   12  A    between atoms: C22_31  and  C23_32 
ROOT
HETATM    1  C3  UNL     1      48.780  46.686  63.622  1.00  0.00     0.111 C 
HETATM    2  C4  UNL     1      49.804  46.750  64.730  1.00  0.00     0.200 C 
HETATM    3  C9  UNL     1      50.984  45.826  64.499  1.00  0.00     0.164 C 
HETATM    4  O6  UNL     1      51.374  46.045  63.177  1.00  0.00    -0.377 OA
HETATM    5  C15 UNL     1      50.502  45.232  62.446  1.00  0.00     0.132 C 
HETATM    6  C16 UNL     1      50.977  45.219  61.035  1.00  0.00     0.064 C 
HETATM    7  C17 UNL     1      50.071  44.450  60.082  1.00  0.00     0.125 C 
HETATM    8  C18 UNL     1      48.798  44.258  60.762  1.00  0.00     0.024 C 
HETATM    9  C19 UNL     1      47.476  44.182  60.131  1.00  0.00     0.017 C 
HETATM   10  C20 UNL     1      46.955  44.950  61.315  1.00  0.00     0.017 C 
HETATM   11  C28 UNL     1      48.385  45.598  61.347  1.00  0.00    -0.022 C 
HETATM   12  C29 UNL     1      48.364  46.750  60.457  1.00  0.00     0.017 C 
HETATM   13  C30 UNL     1      49.058  45.611  62.665  1.00  0.00     0.065 C 
ENDROOT
BRANCH   3  14
HETATM   14  C10 UNL     1      52.089  46.202  65.460  1.00  0.00     0.145 C 
BRANCH  14  15
HETATM   15  C11 UNL     1      52.823  44.966  65.836  1.00  0.00     0.261 C 
HETATM   16  O4  UNL     1      54.037  44.814  65.570  1.00  0.00    -0.265 OA
BRANCH  15  17
HETATM   17  O5  UNL     1      52.179  43.924  66.504  1.00  0.00    -0.317 OA
BRANCH  17  18
HETATM   18  C12 UNL     1      52.438  43.725  67.874  1.00  0.00     0.123 C 
HETATM   19  C13 UNL     1      52.349  42.263  68.178  1.00  0.00     0.040 C 
HETATM   20  C14 UNL     1      51.472  44.539  68.719  1.00  0.00     0.040 C 
ENDBRANCH  17  18
ENDBRANCH  15  17
ENDBRANCH  14  15
ENDBRANCH   3  14
BRANCH   2  21
HETATM   21  O2  UNL     1      49.243  46.554  66.017  1.00  0.00    -0.310 OA
BRANCH  21  22
HETATM   22  C5  UNL     1      49.033  47.591  66.913  1.00  0.00     0.262 C 
HETATM   23  O3  UNL     1      49.932  47.751  67.786  1.00  0.00    -0.265 OA
BRANCH  22  24
HETATM   24  C6  UNL     1      47.868  48.476  66.897  1.00  0.00     0.077 C 
HETATM   25  C7  UNL     1      48.112  49.628  67.846  1.00  0.00     0.020 C 
HETATM   26  C8  UNL     1      46.596  47.784  67.365  1.00  0.00     0.020 C 
ENDBRANCH  22  24
ENDBRANCH  21  22
ENDBRANCH   2  21
BRANCH   1  27
HETATM   27  C2  UNL     1      48.609  48.061  63.103  1.00  0.00     0.004 C 
HETATM   28  C1  UNL     1      49.239  49.142  63.519  1.00  0.00     0.010 C 
ENDBRANCH   1  27
BRANCH   1  29
HETATM   29  O1  UNL     1      47.569  46.315  64.300  1.00  0.00    -0.383 OA
ATOM     30  H1  UNL     1      47.808  45.905  65.123  1.00  0.00     0.211 HD
ENDBRANCH   1  29
BRANCH   7  31
HETATM   31  O7  UNL     1      50.023  45.051  58.824  1.00  0.00    -0.395 OA
ATOM     32  H7  UNL     1      50.402  45.922  58.838  1.00  0.00     0.210 HD
ENDBRANCH   7  31
BRANCH  10  33
HETATM   33  C21 UNL     1      45.927  45.949  61.161  1.00  0.00    -0.025 C 
HETATM   34  C22 UNL     1      44.786  46.068  61.716  1.00  0.00    -0.025 C 
BRANCH  34  35
HETATM   35  C23 UNL     1      44.074  45.251  62.726  1.00  0.00     0.016 A 
HETATM   36  C24 UNL     1      44.053  45.904  64.114  1.00  0.00     0.018 A 
HETATM   37  C25 UNL     1      42.815  45.810  63.299  1.00  0.00    -0.040 A 
HETATM   38  C26 UNL     1      41.785  44.811  63.819  1.00  0.00     0.015 C 
HETATM   39  C27 UNL     1      42.187  47.044  62.690  1.00  0.00     0.015 C 
ENDBRANCH  34  35
ENDBRANCH  10  33
TORSDOF 12
ENDMDL
MODEL 5
REMARK VINA RESULT: -7.954748319      2.277      7.519
REMARK  12 active torsions:
REMARK  status: ('A' for Active; 'I' for Inactive)
REMARK    1  A    between atoms: C2_2  and  C3_3 
REMARK    2  A    between atoms: C3_3  and  O1_4 
REMARK    3  A    between atoms: C4_6  and  O2_7 
REMARK    4  A    between atoms: O2_7  and  C5_8 
REMARK    5  A    between atoms: C5_8  and  C6_10 
REMARK    6  A    between atoms: C9_13  and  C10_14 
REMARK    7  A    between atoms: C10_14  and  C11_15 
REMARK    8  A    between atoms: C11_15  and  O5_17 
REMARK    9  A    between atoms: O5_17  and  C12_18 
REMARK   10  A    between atoms: C17_24  and  O7_25 
REMARK   11  A    between atoms: C20_29  and  C21_30 
REMARK   12  A    between atoms: C22_31  and  C23_32 
ROOT
HETATM    1  C3  UNL     1      48.813  46.623  63.601  1.00  0.00     0.111 C 
HETATM    2  C4  UNL     1      49.846  46.655  64.702  1.00  0.00     0.200 C 
HETATM    3  C9  UNL     1      51.013  45.721  64.444  1.00  0.00     0.164 C 
HETATM    4  O6  UNL     1      51.395  45.959  63.123  1.00  0.00    -0.377 OA
HETATM    5  C15 UNL     1      50.507  45.170  62.385  1.00  0.00     0.132 C 
HETATM    6  C16 UNL     1      50.970  45.177  60.970  1.00  0.00     0.064 C 
HETATM    7  C17 UNL     1      50.047  44.436  60.010  1.00  0.00     0.125 C 
HETATM    8  C18 UNL     1      48.778  44.247  60.698  1.00  0.00     0.024 C 
HETATM    9  C19 UNL     1      47.449  44.199  60.077  1.00  0.00     0.017 C 
HETATM   10  C20 UNL     1      46.948  44.951  61.279  1.00  0.00     0.017 C 
HETATM   11  C28 UNL     1      48.385  45.581  61.311  1.00  0.00    -0.022 C 
HETATM   12  C29 UNL     1      48.371  46.749  60.441  1.00  0.00     0.017 C 
HETATM   13  C30 UNL     1      49.070  45.563  62.623  1.00  0.00     0.065 C 
ENDROOT
BRANCH   3  14
HETATM   14  C10 UNL     1      52.130  46.065  65.402  1.00  0.00     0.145 C 
BRANCH  14  15
HETATM   15  C11 UNL     1      52.919  44.834  65.665  1.00  0.00     0.261 C 
HETATM   16  O4  UNL     1      52.401  43.817  66.181  1.00  0.00    -0.265 OA
BRANCH  15  17
HETATM   17  O5  UNL     1      54.274  44.768  65.342  1.00  0.00    -0.317 OA
BRANCH  17  18
HETATM   18  C12 UNL     1      54.668  44.937  64.000  1.00  0.00     0.123 C 
HETATM   19  C13 UNL     1      54.194  43.763  63.203  1.00  0.00     0.040 C 
HETATM   20  C14 UNL     1      56.174  45.111  63.909  1.00  0.00     0.040 C 
ENDBRANCH  17  18
ENDBRANCH  15  17
ENDBRANCH  14  15
ENDBRANCH   3  14
BRANCH   2  21
HETATM   21  O2  UNL     1      49.294  46.441  65.990  1.00  0.00    -0.310 OA
BRANCH  21  22
HETATM   22  C5  UNL     1      49.079  47.469  66.896  1.00  0.00     0.262 C 
HETATM   23  O3  UNL     1      49.950  47.590  67.803  1.00  0.00    -0.265 OA
BRANCH  22  24
HETATM   24  C6  UNL     1      47.939  48.384  66.855  1.00  0.00     0.077 C 
HETATM   25  C7  UNL     1      48.205  49.545  67.787  1.00  0.00     0.020 C 
HETATM   26  C8  UNL     1      46.644  47.734  67.323  1.00  0.00     0.020 C 
ENDBRANCH  22  24
ENDBRANCH  21  22
ENDBRANCH   2  21
BRANCH   1  27
HETATM   27  C2  UNL     1      48.654  48.009  63.109  1.00  0.00     0.004 C 
HETATM   28  C1  UNL     1      49.297  49.075  63.543  1.00  0.00     0.010 C 
ENDBRANCH   1  27
BRANCH   1  29
HETATM   29  O1  UNL     1      47.603  46.254  64.283  1.00  0.00    -0.383 OA
ATOM     30  H1  UNL     1      47.054  47.027  64.347  1.00  0.00     0.211 HD
ENDBRANCH   1  29
BRANCH   7  31
HETATM   31  O7  UNL     1      49.996  45.060  58.764  1.00  0.00    -0.395 OA
ATOM     32  H7  UNL     1      49.145  44.956  58.355  1.00  0.00     0.210 HD
ENDBRANCH   7  31
BRANCH  10  33
HETATM   33  C21 UNL     1      45.931  45.965  61.152  1.00  0.00    -0.025 C 
HETATM   34  C22 UNL     1      44.795  46.087  61.718  1.00  0.00    -0.025 C 
BRANCH  34  35
HETATM   35  C23 UNL     1      44.080  45.258  62.716  1.00  0.00     0.016 A 
HETATM   36  C24 UNL     1      44.055  45.896  64.112  1.00  0.00     0.018 A 
HETATM   37  C25 UNL     1      42.819  45.810  63.292  1.00  0.00    -0.040 A 
HETATM   38  C26 UNL     1      41.789  44.805  63.797  1.00  0.00     0.015 C 
HETATM   39  C27 UNL     1      42.192  47.051  62.694  1.00  0.00     0.015 C 
ENDBRANCH  34  35
ENDBRANCH  10  33
TORSDOF 12
ENDMDL
