MODEL 1
REMARK VINA RESULT: -6.987619307      0.000      0.000
REMARK  10 active torsions:
REMARK  status: ('A' for Active; 'I' for Inactive)
REMARK    1  A    between atoms: C2_2  and  O2_4 
REMARK    2  A    between atoms: O2_4  and  C3_5 
REMARK    3  A    between atoms: C14_17  and  O4_18 
REMARK    4  A    between atoms: C21_26  and  C22_27 
REMARK    5  A    between atoms: C21_26  and  C23_29 
REMARK    6  A    between atoms: C23_29  and  O6_30 
REMARK    7  A    between atoms: C23_29  and  C24_32 
REMARK    8  A    between atoms: C24_32  and  C25_33 
REMARK    9  A    between atoms: C25_33  and  C26_34 
REMARK   10  A    between atoms: C26_34  and  C29_37 
ROOT
HETATM    1  C3  UNL     1      49.057  45.305  61.706  1.00  0.00     0.165 C 
HETATM    2  C4  UNL     1      50.435  45.831  61.297  1.00  0.00     0.038 C 
HETATM    3  C5  UNL     1      51.309  44.593  61.474  1.00  0.00     0.041 C 
HETATM    4  C6  UNL     1      51.527  44.298  62.988  1.00  0.00     0.071 C 
HETATM    5  O3  UNL     1      50.414  44.748  63.650  1.00  0.00    -0.366 OA
HETATM    6  C7  UNL     1      49.219  44.897  63.151  1.00  0.00     0.081 C 
HETATM    7  C8  UNL     1      48.223  43.742  63.345  1.00  0.00     0.048 C 
HETATM    8  C9  UNL     1      48.554  46.058  63.930  1.00  0.00     0.048 C 
HETATM    9  C10 UNL     1      51.507  42.829  63.020  1.00  0.00     0.017 C 
HETATM   10  C11 UNL     1      51.402  42.060  64.267  1.00  0.00     0.013 C 
HETATM   11  C12 UNL     1      52.465  42.136  62.075  1.00  0.00     0.010 C 
HETATM   12  C13 UNL     1      53.841  42.262  62.661  1.00  0.00     0.033 C 
HETATM   13  C14 UNL     1      54.402  43.556  62.265  1.00  0.00     0.127 C 
HETATM   14  C15 UNL     1      54.048  44.811  62.935  1.00  0.00    -0.002 C 
HETATM   15  C16 UNL     1      54.750  45.926  62.173  1.00  0.00     0.013 C 
HETATM   16  C17 UNL     1      56.096  46.296  62.596  1.00  0.00     0.001 C 
HETATM   17  C18 UNL     1      56.394  46.288  64.062  1.00  0.00     0.000 C 
HETATM   18  C19 UNL     1      55.655  45.247  64.852  1.00  0.00     0.007 C 
HETATM   19  C20 UNL     1      54.368  44.790  64.406  1.00  0.00     0.015 C 
HETATM   20  C21 UNL     1      53.060  45.463  64.773  1.00  0.00     0.050 C 
HETATM   21  C30 UNL     1      52.664  45.127  63.354  1.00  0.00     0.050 C 
ENDROOT
BRANCH  20  22
HETATM   22  C22 UNL     1      52.402  44.796  65.891  1.00  0.00     0.244 C 
HETATM   23  O5  UNL     1      51.571  45.192  66.669  1.00  0.00    -0.306 OA
ENDBRANCH  20  22
BRANCH  20  24
HETATM   24  C23 UNL     1      53.137  46.920  65.133  1.00  0.00     0.134 C 
BRANCH  24  25
HETATM   25  O6  UNL     1      53.380  47.212  66.434  1.00  0.00    -0.394 OA
ATOM     26  H6  UNL     1      53.645  48.104  66.629  1.00  0.00     0.210 HD
ENDBRANCH  24  25
BRANCH  24  27
HETATM   27  C24 UNL     1      51.996  47.788  64.697  1.00  0.00     0.034 C 
BRANCH  27  28
HETATM   28  C25 UNL     1      52.370  49.210  65.180  1.00  0.00     0.018 C 
BRANCH  28  29
HETATM   29  C26 UNL     1      51.119  49.994  65.497  1.00  0.00     0.006 C 
HETATM   30  C27 UNL     1      51.350  51.477  65.460  1.00  0.00     0.022 C 
HETATM   31  C28 UNL     1      49.989  49.653  64.541  1.00  0.00     0.022 C 
BRANCH  29  32
HETATM   32  C29 UNL     1      50.663  49.612  66.857  1.00  0.00     0.239 C 
HETATM   33  O7  UNL     1      51.429  49.230  67.699  1.00  0.00    -0.306 OA
ENDBRANCH  29  32
ENDBRANCH  28  29
ENDBRANCH  27  28
ENDBRANCH  24  27
ENDBRANCH  20  24
BRANCH  13  34
HETATM   34  O4  UNL     1      55.805  43.383  62.450  1.00  0.00    -0.395 OA
ATOM     35  H4  UNL     1      56.188  44.051  61.894  1.00  0.00     0.210 HD
ENDBRANCH  13  34
BRANCH   1  36
HETATM   36  O2  UNL     1      48.041  46.225  61.487  1.00  0.00    -0.313 OA
BRANCH  36  37
HETATM   37  C2  UNL     1      46.910  45.858  60.745  1.00  0.00     0.255 C 
HETATM   38  C1  UNL     1      45.546  45.856  61.313  1.00  0.00     0.126 C 
HETATM   39  O1  UNL     1      47.096  45.523  59.551  1.00  0.00    -0.266 OA
ENDBRANCH  36  37
ENDBRANCH   1  36
TORSDOF 10
ENDMDL
MODEL 2
REMARK VINA RESULT: -6.501810348      3.167      7.378
REMARK  10 active torsions:
REMARK  status: ('A' for Active; 'I' for Inactive)
REMARK    1  A    between atoms: C2_2  and  O2_4 
REMARK    2  A    between atoms: O2_4  and  C3_5 
REMARK    3  A    between atoms: C14_17  and  O4_18 
REMARK    4  A    between atoms: C21_26  and  C22_27 
REMARK    5  A    between atoms: C21_26  and  C23_29 
REMARK    6  A    between atoms: C23_29  and  O6_30 
REMARK    7  A    between atoms: C23_29  and  C24_32 
REMARK    8  A    between atoms: C24_32  and  C25_33 
REMARK    9  A    between atoms: C25_33  and  C26_34 
REMARK   10  A    between atoms: C26_34  and  C29_37 
ROOT
HETATM    1  C3  UNL     1      56.499  46.304  68.349  1.00  0.00     0.165 C 
HETATM    2  C4  UNL     1      56.497  45.145  67.348  1.00  0.00     0.038 C 
HETATM    3  C5  UNL     1      56.831  45.857  66.042  1.00  0.00     0.041 C 
HETATM    4  C6  UNL     1      55.610  46.692  65.553  1.00  0.00     0.071 C 
HETATM    5  O3  UNL     1      54.917  47.082  66.669  1.00  0.00    -0.366 OA
HETATM    6  C7  UNL     1      55.396  47.219  67.874  1.00  0.00     0.081 C 
HETATM    7  C8  UNL     1      55.843  48.626  68.301  1.00  0.00     0.048 C 
HETATM    8  C9  UNL     1      54.233  46.918  68.851  1.00  0.00     0.048 C 
HETATM    9  C10 UNL     1      56.259  47.882  64.986  1.00  0.00     0.017 C 
HETATM   10  C11 UNL     1      55.520  49.101  64.634  1.00  0.00     0.013 C 
HETATM   11  C12 UNL     1      57.327  47.618  63.947  1.00  0.00     0.010 C 
HETATM   12  C13 UNL     1      56.629  47.230  62.676  1.00  0.00     0.033 C 
HETATM   13  C14 UNL     1      56.334  45.795  62.722  1.00  0.00     0.127 C 
HETATM   14  C15 UNL     1      55.198  45.244  63.466  1.00  0.00    -0.002 C 
HETATM   15  C16 UNL     1      55.295  43.729  63.355  1.00  0.00     0.013 C 
HETATM   16  C17 UNL     1      54.632  43.086  62.227  1.00  0.00     0.001 C 
HETATM   17  C18 UNL     1      53.314  43.637  61.784  1.00  0.00     0.000 C 
HETATM   18  C19 UNL     1      53.160  45.121  61.954  1.00  0.00     0.007 C 
HETATM   19  C20 UNL     1      53.879  45.800  62.997  1.00  0.00     0.015 C 
HETATM   20  C21 UNL     1      53.361  45.958  64.413  1.00  0.00     0.050 C 
HETATM   21  C30 UNL     1      54.805  45.741  64.804  1.00  0.00     0.050 C 
ENDROOT
BRANCH  20  22
HETATM   22  C22 UNL     1      52.738  47.261  64.620  1.00  0.00     0.244 C 
HETATM   23  O5  UNL     1      52.273  47.765  65.611  1.00  0.00    -0.306 OA
ENDBRANCH  20  22
BRANCH  20  24
HETATM   24  C23 UNL     1      52.366  44.933  64.878  1.00  0.00     0.134 C 
BRANCH  24  25
HETATM   25  O6  UNL     1      51.123  45.384  65.176  1.00  0.00    -0.394 OA
ATOM     26  H6  UNL     1      50.527  44.759  65.573  1.00  0.00     0.210 HD
ENDBRANCH  24  25
BRANCH  24  27
HETATM   27  C24 UNL     1      52.788  44.042  66.008  1.00  0.00     0.034 C 
BRANCH  27  28
HETATM   28  C25 UNL     1      52.017  44.571  67.241  1.00  0.00     0.018 C 
BRANCH  28  29
HETATM   29  C26 UNL     1      52.211  43.637  68.412  1.00  0.00     0.006 C 
HETATM   30  C27 UNL     1      51.237  43.903  69.523  1.00  0.00     0.022 C 
HETATM   31  C28 UNL     1      52.087  42.182  67.993  1.00  0.00     0.022 C 
BRANCH  29  32
HETATM   32  C29 UNL     1      53.590  43.820  68.928  1.00  0.00     0.239 C 
HETATM   33  O7  UNL     1      54.236  42.902  69.352  1.00  0.00    -0.306 OA
ENDBRANCH  29  32
ENDBRANCH  28  29
ENDBRANCH  27  28
ENDBRANCH  24  27
ENDBRANCH  20  24
BRANCH  13  34
HETATM   34  O4  UNL     1      56.126  45.452  61.354  1.00  0.00    -0.395 OA
ATOM     35  H4  UNL     1      56.658  44.674  61.236  1.00  0.00     0.210 HD
ENDBRANCH  13  34
BRANCH   1  36
HETATM   36  O2  UNL     1      56.360  45.882  69.664  1.00  0.00    -0.313 OA
BRANCH  36  37
HETATM   37  C2  UNL     1      57.374  46.143  70.595  1.00  0.00     0.255 C 
HETATM   38  C1  UNL     1      57.227  45.864  72.039  1.00  0.00     0.126 C 
HETATM   39  O1  UNL     1      58.441  46.633  70.155  1.00  0.00    -0.266 OA
ENDBRANCH  36  37
ENDBRANCH   1  36
TORSDOF 10
ENDMDL
MODEL 3
REMARK VINA RESULT: -6.495000469      1.929      5.283
REMARK  10 active torsions:
REMARK  status: ('A' for Active; 'I' for Inactive)
REMARK    1  A    between atoms: C2_2  and  O2_4 
REMARK    2  A    between atoms: O2_4  and  C3_5 
REMARK    3  A    between atoms: C14_17  and  O4_18 
REMARK    4  A    between atoms: C21_26  and  C22_27 
REMARK    5  A    between atoms: C21_26  and  C23_29 
REMARK    6  A    between atoms: C23_29  and  O6_30 
REMARK    7  A    between atoms: C23_29  and  C24_32 
REMARK    8  A    between atoms: C24_32  and  C25_33 
REMARK    9  A    between atoms: C25_33  and  C26_34 
REMARK   10  A    between atoms: C26_34  and  C29_37 
ROOT
HETATM    1  C3  UNL     1      52.343  43.961  62.785  1.00  0.00     0.165 C 
HETATM    2  C4  UNL     1      52.390  45.486  62.656  1.00  0.00     0.038 C 
HETATM    3  C5  UNL     1      53.345  45.868  63.782  1.00  0.00     0.041 C 
HETATM    4  C6  UNL     1      52.648  45.693  65.165  1.00  0.00     0.071 C 
HETATM    5  O3  UNL     1      51.734  44.681  65.029  1.00  0.00    -0.366 OA
HETATM    6  C7  UNL     1      51.769  43.712  64.158  1.00  0.00     0.081 C 
HETATM    7  C8  UNL     1      52.392  42.380  64.608  1.00  0.00     0.048 C 
HETATM    8  C9  UNL     1      50.299  43.322  63.869  1.00  0.00     0.048 C 
HETATM    9  C10 UNL     1      53.749  45.197  66.002  1.00  0.00     0.017 C 
HETATM   10  C11 UNL     1      53.538  44.621  67.337  1.00  0.00     0.013 C 
HETATM   11  C12 UNL     1      55.006  46.040  66.006  1.00  0.00     0.010 C 
HETATM   12  C13 UNL     1      54.731  47.249  66.852  1.00  0.00     0.033 C 
HETATM   13  C14 UNL     1      54.068  48.260  66.024  1.00  0.00     0.127 C 
HETATM   14  C15 UNL     1      52.638  48.209  65.706  1.00  0.00    -0.002 C 
HETATM   15  C16 UNL     1      52.361  49.361  64.750  1.00  0.00     0.013 C 
HETATM   16  C17 UNL     1      51.998  50.650  65.326  1.00  0.00     0.001 C 
HETATM   17  C18 UNL     1      51.123  50.652  66.539  1.00  0.00     0.000 C 
HETATM   18  C19 UNL     1      51.320  49.485  67.463  1.00  0.00     0.007 C 
HETATM   19  C20 UNL     1      51.773  48.226  66.938  1.00  0.00     0.015 C 
HETATM   20  C21 UNL     1      50.846  47.159  66.389  1.00  0.00     0.050 C 
HETATM   21  C30 UNL     1      51.942  46.947  65.369  1.00  0.00     0.050 C 
ENDROOT
BRANCH  20  22
HETATM   22  C22 UNL     1      50.562  46.126  67.378  1.00  0.00     0.244 C 
HETATM   23  O5  UNL     1      50.408  46.196  68.571  1.00  0.00    -0.306 OA
ENDBRANCH  20  22
BRANCH  20  24
HETATM   24  C23 UNL     1      49.516  47.631  65.873  1.00  0.00     0.134 C 
BRANCH  24  25
HETATM   25  O6  UNL     1      48.459  47.504  66.712  1.00  0.00    -0.394 OA
ATOM     26  H6  UNL     1      47.719  47.000  66.393  1.00  0.00     0.210 HD
ENDBRANCH  24  25
BRANCH  24  27
HETATM   27  C24 UNL     1      49.079  47.104  64.539  1.00  0.00     0.034 C 
BRANCH  27  28
HETATM   28  C25 UNL     1      47.741  46.378  64.818  1.00  0.00     0.018 C 
BRANCH  28  29
HETATM   29  C26 UNL     1      47.046  46.058  63.516  1.00  0.00     0.006 C 
HETATM   30  C27 UNL     1      45.550  46.122  63.636  1.00  0.00     0.022 C 
HETATM   31  C28 UNL     1      47.486  46.994  62.403  1.00  0.00     0.022 C 
BRANCH  29  32
HETATM   32  C29 UNL     1      47.437  44.686  63.105  1.00  0.00     0.239 C 
HETATM   33  O7  UNL     1      47.183  44.254  62.015  1.00  0.00    -0.306 OA
ENDBRANCH  29  32
ENDBRANCH  28  29
ENDBRANCH  27  28
ENDBRANCH  24  27
ENDBRANCH  20  24
BRANCH  13  34
HETATM   34  O4  UNL     1      54.278  49.473  66.743  1.00  0.00    -0.395 OA
ATOM     35  H4  UNL     1      54.741  50.023  66.122  1.00  0.00     0.210 HD
ENDBRANCH  13  34
BRANCH   1  36
HETATM   36  O2  UNL     1      51.637  43.355  61.755  1.00  0.00    -0.313 OA
BRANCH  36  37
HETATM   37  C2  UNL     1      52.319  42.622  60.773  1.00  0.00     0.255 C 
HETATM   38  C1  UNL     1      53.787  42.449  60.778  1.00  0.00     0.126 C 
HETATM   39  O1  UNL     1      51.627  42.103  59.866  1.00  0.00    -0.266 OA
ENDBRANCH  36  37
ENDBRANCH   1  36
TORSDOF 10
ENDMDL
MODEL 4
REMARK VINA RESULT: -6.485187294      2.247      7.480
REMARK  10 active torsions:
REMARK  status: ('A' for Active; 'I' for Inactive)
REMARK    1  A    between atoms: C2_2  and  O2_4 
REMARK    2  A    between atoms: O2_4  and  C3_5 
REMARK    3  A    between atoms: C14_17  and  O4_18 
REMARK    4  A    between atoms: C21_26  and  C22_27 
REMARK    5  A    between atoms: C21_26  and  C23_29 
REMARK    6  A    between atoms: C23_29  and  O6_30 
REMARK    7  A    between atoms: C23_29  and  C24_32 
REMARK    8  A    between atoms: C24_32  and  C25_33 
REMARK    9  A    between atoms: C25_33  and  C26_34 
REMARK   10  A    between atoms: C26_34  and  C29_37 
ROOT
HETATM    1  C3  UNL     1      55.286  47.313  65.574  1.00  0.00     0.165 C 
HETATM    2  C4  UNL     1      54.167  48.084  64.867  1.00  0.00     0.038 C 
HETATM    3  C5  UNL     1      53.007  47.919  65.843  1.00  0.00     0.041 C 
HETATM    4  C6  UNL     1      52.460  46.461  65.791  1.00  0.00     0.071 C 
HETATM    5  O3  UNL     1      53.512  45.649  65.458  1.00  0.00    -0.366 OA
HETATM    6  C7  UNL     1      54.777  45.894  65.654  1.00  0.00     0.081 C 
HETATM    7  C8  UNL     1      55.418  45.320  66.928  1.00  0.00     0.048 C 
HETATM    8  C9  UNL     1      55.550  45.169  64.525  1.00  0.00     0.048 C 
HETATM    9  C10 UNL     1      52.123  46.209  67.199  1.00  0.00     0.017 C 
HETATM   10  C11 UNL     1      51.819  44.869  67.718  1.00  0.00     0.013 C 
HETATM   11  C12 UNL     1      51.212  47.226  67.852  1.00  0.00     0.010 C 
HETATM   12  C13 UNL     1      49.824  46.977  67.338  1.00  0.00     0.033 C 
HETATM   13  C14 UNL     1      49.665  47.671  66.058  1.00  0.00     0.127 C 
HETATM   14  C15 UNL     1      50.184  47.134  64.796  1.00  0.00    -0.002 C 
HETATM   15  C16 UNL     1      49.914  48.186  63.729  1.00  0.00     0.013 C 
HETATM   16  C17 UNL     1      48.641  48.123  63.020  1.00  0.00     0.001 C 
HETATM   17  C18 UNL     1      48.095  46.772  62.684  1.00  0.00     0.000 C 
HETATM   18  C19 UNL     1      48.412  45.696  63.682  1.00  0.00     0.007 C 
HETATM   19  C20 UNL     1      49.612  45.781  64.469  1.00  0.00     0.015 C 
HETATM   20  C21 UNL     1      50.955  45.243  64.017  1.00  0.00     0.050 C 
HETATM   21  C30 UNL     1      51.506  46.477  64.694  1.00  0.00     0.050 C 
ENDROOT
BRANCH  20  22
HETATM   22  C22 UNL     1      51.226  43.923  64.576  1.00  0.00     0.244 C 
HETATM   23  O5  UNL     1      50.887  42.826  64.211  1.00  0.00    -0.306 OA
ENDBRANCH  20  22
BRANCH  20  24
HETATM   24  C23 UNL     1      51.164  45.127  62.534  1.00  0.00     0.134 C 
BRANCH  24  25
HETATM   25  O6  UNL     1      50.444  44.175  61.891  1.00  0.00    -0.394 OA
ATOM     26  H6  UNL     1      49.644  43.887  62.314  1.00  0.00     0.210 HD
ENDBRANCH  24  25
BRANCH  24  27
HETATM   27  C24 UNL     1      52.580  45.000  62.055  1.00  0.00     0.034 C 
BRANCH  27  28
HETATM   28  C25 UNL     1      52.553  43.832  61.041  1.00  0.00     0.018 C 
BRANCH  28  29
HETATM   29  C26 UNL     1      53.794  42.985  61.195  1.00  0.00     0.006 C 
HETATM   30  C27 UNL     1      55.028  43.814  61.406  1.00  0.00     0.022 C 
HETATM   31  C28 UNL     1      53.662  42.006  62.348  1.00  0.00     0.022 C 
BRANCH  29  32
HETATM   32  C29 UNL     1      53.961  42.178  59.961  1.00  0.00     0.239 C 
HETATM   33  O7  UNL     1      53.021  41.796  59.320  1.00  0.00    -0.306 OA
ENDBRANCH  29  32
ENDBRANCH  28  29
ENDBRANCH  27  28
ENDBRANCH  24  27
ENDBRANCH  20  24
BRANCH  13  34
HETATM   34  O4  UNL     1      48.252  47.771  65.903  1.00  0.00    -0.395 OA
ATOM     35  H4  UNL     1      48.115  48.686  65.690  1.00  0.00     0.210 HD
ENDBRANCH  13  34
BRANCH   1  36
HETATM   36  O2  UNL     1      56.513  47.441  64.939  1.00  0.00    -0.313 OA
BRANCH  36  37
HETATM   37  C2  UNL     1      57.435  48.399  65.382  1.00  0.00     0.255 C 
HETATM   38  C1  UNL     1      57.381  49.816  64.967  1.00  0.00     0.126 C 
HETATM   39  O1  UNL     1      58.333  48.006  66.164  1.00  0.00    -0.266 OA
ENDBRANCH  36  37
ENDBRANCH   1  36
TORSDOF 10
ENDMDL
MODEL 5
REMARK VINA RESULT: -6.457948492      2.428      7.389
REMARK  10 active torsions:
REMARK  status: ('A' for Active; 'I' for Inactive)
REMARK    1  A    between atoms: C2_2  and  O2_4 
REMARK    2  A    between atoms: O2_4  and  C3_5 
REMARK    3  A    between atoms: C14_17  and  O4_18 
REMARK    4  A    between atoms: C21_26  and  C22_27 
REMARK    5  A    between atoms: C21_26  and  C23_29 
REMARK    6  A    between atoms: C23_29  and  O6_30 
REMARK    7  A    between atoms: C23_29  and  C24_32 
REMARK    8  A    between atoms: C24_32  and  C25_33 
REMARK    9  A    between atoms: C25_33  and  C26_34 
REMARK   10  A    between atoms: C26_34  and  C29_37 
ROOT
HETATM    1  C3  UNL     1      56.573  46.739  64.352  1.00  0.00     0.165 C 
HETATM    2  C4  UNL     1      55.454  47.730  64.017  1.00  0.00     0.038 C 
HETATM    3  C5  UNL     1      54.932  48.095  65.403  1.00  0.00     0.041 C 
HETATM    4  C6  UNL     1      54.125  46.907  66.007  1.00  0.00     0.071 C 
HETATM    5  O3  UNL     1      54.660  45.755  65.493  1.00  0.00    -0.366 OA
HETATM    6  C7  UNL     1      55.873  45.594  65.041  1.00  0.00     0.081 C 
HETATM    7  C8  UNL     1      56.918  45.023  66.013  1.00  0.00     0.048 C 
HETATM    8  C9  UNL     1      55.796  44.505  63.943  1.00  0.00     0.048 C 
HETATM    9  C10 UNL     1      54.491  46.979  67.428  1.00  0.00     0.017 C 
HETATM   10  C11 UNL     1      54.198  45.900  68.382  1.00  0.00     0.013 C 
HETATM   11  C12 UNL     1      54.278  48.320  68.097  1.00  0.00     0.010 C 
HETATM   12  C13 UNL     1      52.803  48.473  68.332  1.00  0.00     0.033 C 
HETATM   13  C14 UNL     1      52.185  48.996  67.110  1.00  0.00     0.127 C 
HETATM   14  C15 UNL     1      51.871  48.147  65.957  1.00  0.00    -0.002 C 
HETATM   15  C16 UNL     1      51.345  49.070  64.866  1.00  0.00     0.013 C 
HETATM   16  C17 UNL     1      49.911  49.332  64.830  1.00  0.00     0.001 C 
HETATM   17  C18 UNL     1      48.986  48.204  65.161  1.00  0.00     0.000 C 
HETATM   18  C19 UNL     1      49.512  47.233  66.179  1.00  0.00     0.007 C 
HETATM   19  C20 UNL     1      50.928  47.027  66.306  1.00  0.00     0.015 C 
HETATM   20  C21 UNL     1      51.710  46.018  65.487  1.00  0.00     0.050 C 
HETATM   21  C30 UNL     1      52.782  47.083  65.479  1.00  0.00     0.050 C 
ENDROOT
BRANCH  20  22
HETATM   22  C22 UNL     1      51.924  44.774  66.219  1.00  0.00     0.244 C 
HETATM   23  O5  UNL     1      52.287  43.689  65.842  1.00  0.00    -0.306 OA
ENDBRANCH  20  22
BRANCH  20  24
HETATM   24  C23 UNL     1      51.119  45.635  64.160  1.00  0.00     0.134 C 
BRANCH  24  25
HETATM   25  O6  UNL     1      50.357  44.514  64.135  1.00  0.00    -0.394 OA
ATOM     26  H6  UNL     1      49.991  44.265  63.294  1.00  0.00     0.210 HD
ENDBRANCH  24  25
BRANCH  24  27
HETATM   27  C24 UNL     1      52.061  45.546  62.997  1.00  0.00     0.034 C 
BRANCH  27  28
HETATM   28  C25 UNL     1      51.878  44.112  62.445  1.00  0.00     0.018 C 
BRANCH  28  29
HETATM   29  C26 UNL     1      52.510  44.000  61.078  1.00  0.00     0.006 C 
HETATM   30  C27 UNL     1      53.158  42.664  60.856  1.00  0.00     0.022 C 
HETATM   31  C28 UNL     1      51.496  44.240  59.972  1.00  0.00     0.022 C 
BRANCH  29  32
HETATM   32  C29 UNL     1      53.541  45.061  60.955  1.00  0.00     0.239 C 
HETATM   33  O7  UNL     1      53.763  45.611  59.912  1.00  0.00    -0.306 OA
ENDBRANCH  29  32
ENDBRANCH  28  29
ENDBRANCH  27  28
ENDBRANCH  24  27
ENDBRANCH  20  24
BRANCH  13  34
HETATM   34  O4  UNL     1      50.946  49.533  67.565  1.00  0.00    -0.395 OA
ATOM     35  H4  UNL     1      50.647  50.057  66.831  1.00  0.00     0.210 HD
ENDBRANCH  13  34
BRANCH   1  36
HETATM   36  O2  UNL     1      57.313  46.366  63.238  1.00  0.00    -0.313 OA
BRANCH  36  37
HETATM   37  C2  UNL     1      58.698  46.575  63.215  1.00  0.00     0.255 C 
HETATM   38  C1  UNL     1      59.434  47.198  64.336  1.00  0.00     0.126 C 
HETATM   39  O1  UNL     1      59.313  46.207  62.186  1.00  0.00    -0.266 OA
ENDBRANCH  36  37
ENDBRANCH   1  36
TORSDOF 10
ENDMDL
