MODEL 1
REMARK VINA RESULT: -8.884891467      0.000      0.000
REMARK  8 active torsions:
REMARK  status: ('A' for Active; 'I' for Inactive)
REMARK    1  A    between atoms: C2_2  and  O2_4 
REMARK    2  A    between atoms: O2_4  and  C3_5 
REMARK    3  A    between atoms: C3_5  and  C4_6 
REMARK    4  A    between atoms: C4_6  and  C5_7 
REMARK    5  A    between atoms: C5_7  and  C6_8 
REMARK    6  A    between atoms: C6_8  and  C8_10 
REMARK    7  A    between atoms: C17_21  and  C18_22 
REMARK    8  A    between atoms: C22_28  and  O7_29 
ROOT
HETATM    1  C8  UNL     1      48.114  46.058  64.436  1.00  0.00     0.137 C 
HETATM    2  O3  UNL     1      48.021  44.847  63.747  1.00  0.00    -0.373 OA
HETATM    3  C9  UNL     1      49.327  45.074  63.247  1.00  0.00     0.072 C 
HETATM    4  C10 UNL     1      49.346  44.531  61.849  1.00  0.00     0.047 C 
HETATM    5  C11 UNL     1      50.400  44.605  64.182  1.00  0.00     0.032 C 
HETATM    6  C12 UNL     1      50.615  43.159  63.886  1.00  0.00     0.086 C 
HETATM    7  C13 UNL     1      51.769  42.988  63.006  1.00  0.00     0.132 C 
HETATM    8  O4  UNL     1      51.728  42.400  61.958  1.00  0.00    -0.298 OA
HETATM    9  C14 UNL     1      52.999  43.586  63.491  1.00  0.00     0.064 C 
HETATM   10  C15 UNL     1      54.172  43.241  62.628  1.00  0.00     0.014 C 
HETATM   11  C16 UNL     1      55.383  44.064  62.852  1.00  0.00     0.026 C 
HETATM   12  C17 UNL     1      55.387  44.958  64.011  1.00  0.00     0.081 C 
HETATM   13  C19 UNL     1      55.979  46.311  63.684  1.00  0.00     0.149 C 
HETATM   14  O6  UNL     1      56.901  46.447  62.903  1.00  0.00    -0.296 OA
HETATM   15  C20 UNL     1      55.295  47.375  64.426  1.00  0.00     0.082 C 
HETATM   16  C21 UNL     1      56.312  48.141  65.283  1.00  0.00     0.020 C 
HETATM   17  C22 UNL     1      54.359  46.551  65.323  1.00  0.00     0.135 C 
HETATM   18  C23 UNL     1      54.100  45.288  64.657  1.00  0.00     0.047 C 
HETATM   19  C24 UNL     1      52.899  45.096  63.758  1.00  0.00    -0.022 C 
HETATM   20  C25 UNL     1      52.997  45.769  62.440  1.00  0.00     0.017 C 
HETATM   21  C26 UNL     1      51.583  45.450  64.401  1.00  0.00     0.002 C 
HETATM   22  C27 UNL     1      51.289  46.914  64.328  1.00  0.00     0.007 C 
HETATM   23  C28 UNL     1      50.126  47.421  63.603  1.00  0.00     0.015 C 
HETATM   24  C29 UNL     1      48.984  46.518  63.325  1.00  0.00     0.014 C 
HETATM   25  C30 UNL     1      48.154  47.023  62.175  1.00  0.00     0.021 C 
ENDROOT
BRANCH   1  26
HETATM   26  C6  UNL     1      46.732  46.645  64.562  1.00  0.00     0.011 C 
HETATM   27  C7  UNL     1      46.433  47.096  65.975  1.00  0.00     0.012 C 
BRANCH  26  28
HETATM   28  C5  UNL     1      45.733  45.499  64.301  1.00  0.00     0.009 C 
BRANCH  28  29
HETATM   29  C4  UNL     1      44.324  45.993  64.548  1.00  0.00     0.027 C 
BRANCH  29  30
HETATM   30  C3  UNL     1      43.446  45.831  63.350  1.00  0.00     0.178 C 
BRANCH  30  31
HETATM   31  O2  UNL     1      44.082  45.383  62.196  1.00  0.00    -0.322 OA
BRANCH  31  32
HETATM   32  C2  UNL     1      44.357  46.119  61.073  1.00  0.00     0.254 C 
HETATM   33  C1  UNL     1      43.486  47.239  60.671  1.00  0.00     0.126 C 
HETATM   34  O1  UNL     1      45.358  45.841  60.380  1.00  0.00    -0.266 OA
ENDBRANCH  31  32
ENDBRANCH  30  31
ENDBRANCH  29  30
ENDBRANCH  28  29
ENDBRANCH  26  28
ENDBRANCH   1  26
BRANCH  12  35
HETATM   35  C18 UNL     1      56.303  44.403  65.080  1.00  0.00     0.249 C 
HETATM   36  O5  UNL     1      57.484  44.622  65.093  1.00  0.00    -0.306 OA
ENDBRANCH  12  35
BRANCH  17  37
HETATM   37  O7  UNL     1      55.199  46.252  66.443  1.00  0.00    -0.394 OA
ATOM     38  H7  UNL     1      54.683  45.609  66.916  1.00  0.00     0.210 HD
ENDBRANCH  17  37
TORSDOF 8
ENDMDL
MODEL 2
REMARK VINA RESULT: -8.627359620      3.122      4.068
REMARK  8 active torsions:
REMARK  status: ('A' for Active; 'I' for Inactive)
REMARK    1  A    between atoms: C2_2  and  O2_4 
REMARK    2  A    between atoms: O2_4  and  C3_5 
REMARK    3  A    between atoms: C3_5  and  C4_6 
REMARK    4  A    between atoms: C4_6  and  C5_7 
REMARK    5  A    between atoms: C5_7  and  C6_8 
REMARK    6  A    between atoms: C6_8  and  C8_10 
REMARK    7  A    between atoms: C17_21  and  C18_22 
REMARK    8  A    between atoms: C22_28  and  O7_29 
ROOT
HETATM    1  C8  UNL     1      48.410  46.609  65.436  1.00  0.00     0.137 C 
HETATM    2  O3  UNL     1      49.188  46.288  64.321  1.00  0.00    -0.373 OA
HETATM    3  C9  UNL     1      50.335  46.672  65.059  1.00  0.00     0.072 C 
HETATM    4  C10 UNL     1      51.275  47.311  64.079  1.00  0.00     0.047 C 
HETATM    5  C11 UNL     1      50.878  45.567  65.913  1.00  0.00     0.032 C 
HETATM    6  C12 UNL     1      51.791  44.771  65.042  1.00  0.00     0.086 C 
HETATM    7  C13 UNL     1      53.178  45.173  65.261  1.00  0.00     0.132 C 
HETATM    8  O4  UNL     1      53.916  45.533  64.384  1.00  0.00    -0.298 OA
HETATM    9  C14 UNL     1      53.621  45.105  66.643  1.00  0.00     0.064 C 
HETATM   10  C15 UNL     1      55.087  45.374  66.778  1.00  0.00     0.014 C 
HETATM   11  C16 UNL     1      55.551  45.652  68.157  1.00  0.00     0.026 C 
HETATM   12  C17 UNL     1      54.603  45.424  69.248  1.00  0.00     0.081 C 
HETATM   13  C19 UNL     1      54.653  46.524  70.285  1.00  0.00     0.149 C 
HETATM   14  O6  UNL     1      55.688  47.088  70.587  1.00  0.00    -0.296 OA
HETATM   15  C20 UNL     1      53.319  46.785  70.836  1.00  0.00     0.082 C 
HETATM   16  C21 UNL     1      53.345  46.585  72.358  1.00  0.00     0.020 C 
HETATM   17  C22 UNL     1      52.503  45.669  70.168  1.00  0.00     0.135 C 
HETATM   18  C23 UNL     1      53.165  45.313  68.926  1.00  0.00     0.047 C 
HETATM   19  C24 UNL     1      52.783  45.955  67.612  1.00  0.00    -0.022 C 
HETATM   20  C25 UNL     1      53.236  47.357  67.451  1.00  0.00     0.017 C 
HETATM   21  C26 UNL     1      51.315  45.865  67.284  1.00  0.00     0.002 C 
HETATM   22  C27 UNL     1      50.519  46.949  67.939  1.00  0.00     0.007 C 
HETATM   23  C28 UNL     1      49.787  47.937  67.150  1.00  0.00     0.015 C 
HETATM   24  C29 UNL     1      49.434  47.638  65.742  1.00  0.00     0.014 C 
HETATM   25  C30 UNL     1      49.170  48.899  64.963  1.00  0.00     0.021 C 
ENDROOT
BRANCH   1  26
HETATM   26  C6  UNL     1      47.053  47.060  64.960  1.00  0.00     0.011 C 
HETATM   27  C7  UNL     1      46.046  47.119  66.088  1.00  0.00     0.012 C 
BRANCH  26  28
HETATM   28  C5  UNL     1      46.519  45.959  64.022  1.00  0.00     0.009 C 
BRANCH  28  29
HETATM   29  C4  UNL     1      45.008  45.923  64.095  1.00  0.00     0.027 C 
BRANCH  29  30
HETATM   30  C3  UNL     1      44.411  45.002  63.082  1.00  0.00     0.178 C 
BRANCH  30  31
HETATM   31  O2  UNL     1      43.653  45.614  62.088  1.00  0.00    -0.322 OA
BRANCH  31  32
HETATM   32  C2  UNL     1      44.127  46.325  61.016  1.00  0.00     0.254 C 
HETATM   33  C1  UNL     1      43.380  47.482  60.486  1.00  0.00     0.126 C 
HETATM   34  O1  UNL     1      45.204  45.993  60.480  1.00  0.00    -0.266 OA
ENDBRANCH  31  32
ENDBRANCH  30  31
ENDBRANCH  29  30
ENDBRANCH  28  29
ENDBRANCH  26  28
ENDBRANCH   1  26
BRANCH  12  35
HETATM   35  C18 UNL     1      54.995  44.178  70.013  1.00  0.00     0.249 C 
HETATM   36  O5  UNL     1      54.851  43.074  69.562  1.00  0.00    -0.306 OA
ENDBRANCH  12  35
BRANCH  17  37
HETATM   37  O7  UNL     1      52.705  44.568  71.062  1.00  0.00    -0.394 OA
ATOM     38  H7  UNL     1      51.900  44.075  70.960  1.00  0.00     0.210 HD
ENDBRANCH  17  37
TORSDOF 8
ENDMDL
MODEL 3
REMARK VINA RESULT: -8.536690032      2.043      2.727
REMARK  8 active torsions:
REMARK  status: ('A' for Active; 'I' for Inactive)
REMARK    1  A    between atoms: C2_2  and  O2_4 
REMARK    2  A    between atoms: O2_4  and  C3_5 
REMARK    3  A    between atoms: C3_5  and  C4_6 
REMARK    4  A    between atoms: C4_6  and  C5_7 
REMARK    5  A    between atoms: C5_7  and  C6_8 
REMARK    6  A    between atoms: C6_8  and  C8_10 
REMARK    7  A    between atoms: C17_21  and  C18_22 
REMARK    8  A    between atoms: C22_28  and  O7_29 
ROOT
HETATM    1  C8  UNL     1      47.950  46.043  64.280  1.00  0.00     0.137 C 
HETATM    2  O3  UNL     1      48.469  45.177  63.314  1.00  0.00    -0.373 OA
HETATM    3  C9  UNL     1      49.750  45.729  63.562  1.00  0.00     0.072 C 
HETATM    4  C10 UNL     1      50.462  45.758  62.241  1.00  0.00     0.047 C 
HETATM    5  C11 UNL     1      50.456  45.075  64.710  1.00  0.00     0.032 C 
HETATM    6  C12 UNL     1      51.156  43.882  64.150  1.00  0.00     0.086 C 
HETATM    7  C13 UNL     1      52.561  44.192  63.895  1.00  0.00     0.132 C 
HETATM    8  O4  UNL     1      53.095  44.041  62.829  1.00  0.00    -0.298 OA
HETATM    9  C14 UNL     1      53.290  44.706  65.040  1.00  0.00     0.064 C 
HETATM   10  C15 UNL     1      54.752  44.853  64.759  1.00  0.00     0.014 C 
HETATM   11  C16 UNL     1      55.503  45.669  65.740  1.00  0.00     0.026 C 
HETATM   12  C17 UNL     1      54.810  46.056  66.970  1.00  0.00     0.081 C 
HETATM   13  C19 UNL     1      55.089  47.492  67.352  1.00  0.00     0.149 C 
HETATM   14  O6  UNL     1      56.167  48.021  67.160  1.00  0.00    -0.296 OA
HETATM   15  C20 UNL     1      53.906  48.110  67.961  1.00  0.00     0.082 C 
HETATM   16  C21 UNL     1      54.257  48.614  69.368  1.00  0.00     0.020 C 
HETATM   17  C22 UNL     1      52.959  46.905  68.049  1.00  0.00     0.135 C 
HETATM   18  C23 UNL     1      53.336  45.963  67.011  1.00  0.00     0.047 C 
HETATM   19  C24 UNL     1      52.685  45.982  65.647  1.00  0.00    -0.022 C 
HETATM   20  C25 UNL     1      53.102  47.107  64.776  1.00  0.00     0.017 C 
HETATM   21  C26 UNL     1      51.180  45.909  65.680  1.00  0.00     0.002 C 
HETATM   22  C27 UNL     1      50.550  47.248  65.898  1.00  0.00     0.007 C 
HETATM   23  C28 UNL     1      49.672  47.847  64.896  1.00  0.00     0.015 C 
HETATM   24  C29 UNL     1      49.023  46.987  63.879  1.00  0.00     0.014 C 
HETATM   25  C30 UNL     1      48.605  47.784  62.672  1.00  0.00     0.021 C 
ENDROOT
BRANCH   1  26
HETATM   26  C6  UNL     1      46.526  46.371  63.914  1.00  0.00     0.011 C 
HETATM   27  C7  UNL     1      45.621  46.402  65.127  1.00  0.00     0.012 C 
BRANCH  26  28
HETATM   28  C5  UNL     1      45.999  45.194  63.068  1.00  0.00     0.009 C 
BRANCH  28  29
HETATM   29  C4  UNL     1      44.944  45.698  62.106  1.00  0.00     0.027 C 
BRANCH  29  30
HETATM   30  C3  UNL     1      45.504  46.005  60.756  1.00  0.00     0.178 C 
BRANCH  30  31
HETATM   31  O2  UNL     1      46.029  44.918  60.063  1.00  0.00    -0.322 OA
BRANCH  31  32
HETATM   32  C2  UNL     1      47.313  44.782  59.602  1.00  0.00     0.254 C 
HETATM   33  C1  UNL     1      48.207  45.950  59.498  1.00  0.00     0.126 C 
HETATM   34  O1  UNL     1      47.734  43.655  59.268  1.00  0.00    -0.266 OA
ENDBRANCH  31  32
ENDBRANCH  30  31
ENDBRANCH  29  30
ENDBRANCH  28  29
ENDBRANCH  26  28
ENDBRANCH   1  26
BRANCH  12  35
HETATM   35  C18 UNL     1      55.350  45.253  68.133  1.00  0.00     0.249 C 
HETATM   36  O5  UNL     1      54.962  44.144  68.385  1.00  0.00    -0.306 OA
ENDBRANCH  12  35
BRANCH  17  37
HETATM   37  O7  UNL     1      53.341  46.309  69.293  1.00  0.00    -0.394 OA
ATOM     38  H7  UNL     1      52.530  46.334  69.787  1.00  0.00     0.210 HD
ENDBRANCH  17  37
TORSDOF 8
ENDMDL
MODEL 4
REMARK VINA RESULT: -8.259467668      1.829      2.465
REMARK  8 active torsions:
REMARK  status: ('A' for Active; 'I' for Inactive)
REMARK    1  A    between atoms: C2_2  and  O2_4 
REMARK    2  A    between atoms: O2_4  and  C3_5 
REMARK    3  A    between atoms: C3_5  and  C4_6 
REMARK    4  A    between atoms: C4_6  and  C5_7 
REMARK    5  A    between atoms: C5_7  and  C6_8 
REMARK    6  A    between atoms: C6_8  and  C8_10 
REMARK    7  A    between atoms: C17_21  and  C18_22 
REMARK    8  A    between atoms: C22_28  and  O7_29 
ROOT
HETATM    1  C8  UNL     1      48.362  46.497  64.872  1.00  0.00     0.137 C 
HETATM    2  O3  UNL     1      48.663  45.489  63.953  1.00  0.00    -0.373 OA
HETATM    3  C9  UNL     1      50.003  45.951  63.943  1.00  0.00     0.072 C 
HETATM    4  C10 UNL     1      50.502  45.774  62.539  1.00  0.00     0.047 C 
HETATM    5  C11 UNL     1      50.831  45.367  65.047  1.00  0.00     0.032 C 
HETATM    6  C12 UNL     1      51.351  44.063  64.540  1.00  0.00     0.086 C 
HETATM    7  C13 UNL     1      52.717  44.220  64.046  1.00  0.00     0.132 C 
HETATM    8  O4  UNL     1      53.068  43.908  62.940  1.00  0.00    -0.298 OA
HETATM    9  C14 UNL     1      53.648  44.791  65.003  1.00  0.00     0.064 C 
HETATM   10  C15 UNL     1      55.056  44.777  64.496  1.00  0.00     0.014 C 
HETATM   11  C16 UNL     1      56.005  45.627  65.251  1.00  0.00     0.026 C 
HETATM   12  C17 UNL     1      55.540  46.205  66.513  1.00  0.00     0.081 C 
HETATM   13  C19 UNL     1      55.973  47.645  66.674  1.00  0.00     0.149 C 
HETATM   14  O6  UNL     1      57.043  48.053  66.264  1.00  0.00    -0.296 OA
HETATM   15  C20 UNL     1      54.946  48.426  67.369  1.00  0.00     0.082 C 
HETATM   16  C21 UNL     1      55.544  49.047  68.640  1.00  0.00     0.020 C 
HETATM   17  C22 UNL     1      53.941  47.325  67.740  1.00  0.00     0.135 C 
HETATM   18  C23 UNL     1      54.087  46.246  66.779  1.00  0.00     0.047 C 
HETATM   19  C24 UNL     1      53.235  46.173  65.533  1.00  0.00    -0.022 C 
HETATM   20  C25 UNL     1      53.590  47.156  64.480  1.00  0.00     0.017 C 
HETATM   21  C26 UNL     1      51.752  46.235  65.793  1.00  0.00     0.002 C 
HETATM   22  C27 UNL     1      51.258  47.640  65.937  1.00  0.00     0.007 C 
HETATM   23  C28 UNL     1      50.280  48.200  65.008  1.00  0.00     0.015 C 
HETATM   24  C29 UNL     1      49.423  47.294  64.208  1.00  0.00     0.014 C 
HETATM   25  C30 UNL     1      48.880  47.989  62.987  1.00  0.00     0.021 C 
ENDROOT
BRANCH   1  26
HETATM   26  C6  UNL     1      46.924  46.906  64.681  1.00  0.00     0.011 C 
HETATM   27  C7  UNL     1      46.185  47.012  65.997  1.00  0.00     0.012 C 
BRANCH  26  28
HETATM   28  C5  UNL     1      46.226  45.751  63.935  1.00  0.00     0.009 C 
BRANCH  28  29
HETATM   29  C4  UNL     1      44.739  45.798  64.215  1.00  0.00     0.027 C 
BRANCH  29  30
HETATM   30  C3  UNL     1      43.930  45.256  63.081  1.00  0.00     0.178 C 
BRANCH  30  31
HETATM   31  O2  UNL     1      42.643  44.840  63.408  1.00  0.00    -0.322 OA
BRANCH  31  32
HETATM   32  C2  UNL     1      41.579  45.641  63.734  1.00  0.00     0.254 C 
HETATM   33  C1  UNL     1      41.519  47.041  63.274  1.00  0.00     0.126 C 
HETATM   34  O1  UNL     1      40.648  45.182  64.426  1.00  0.00    -0.266 OA
ENDBRANCH  31  32
ENDBRANCH  30  31
ENDBRANCH  29  30
ENDBRANCH  28  29
ENDBRANCH  26  28
ENDBRANCH   1  26
BRANCH  12  35
HETATM   35  C18 UNL     1      56.195  45.489  67.674  1.00  0.00     0.249 C 
HETATM   36  O5  UNL     1      55.785  44.444  68.100  1.00  0.00    -0.306 OA
ENDBRANCH  12  35
BRANCH  17  37
HETATM   37  O7  UNL     1      54.469  46.837  68.978  1.00  0.00    -0.394 OA
ATOM     38  H7  UNL     1      54.453  45.896  68.847  1.00  0.00     0.210 HD
ENDBRANCH  17  37
TORSDOF 8
ENDMDL
MODEL 5
REMARK VINA RESULT: -8.215437804      3.198      4.256
REMARK  8 active torsions:
REMARK  status: ('A' for Active; 'I' for Inactive)
REMARK    1  A    between atoms: C2_2  and  O2_4 
REMARK    2  A    between atoms: O2_4  and  C3_5 
REMARK    3  A    between atoms: C3_5  and  C4_6 
REMARK    4  A    between atoms: C4_6  and  C5_7 
REMARK    5  A    between atoms: C5_7  and  C6_8 
REMARK    6  A    between atoms: C6_8  and  C8_10 
REMARK    7  A    between atoms: C17_21  and  C18_22 
REMARK    8  A    between atoms: C22_28  and  O7_29 
ROOT
HETATM    1  C8  UNL     1      48.645  46.279  65.030  1.00  0.00     0.137 C 
HETATM    2  O3  UNL     1      49.515  45.983  63.978  1.00  0.00    -0.373 OA
HETATM    3  C9  UNL     1      50.587  46.433  64.788  1.00  0.00     0.072 C 
HETATM    4  C10 UNL     1      51.561  47.105  63.866  1.00  0.00     0.047 C 
HETATM    5  C11 UNL     1      51.121  45.368  65.696  1.00  0.00     0.032 C 
HETATM    6  C12 UNL     1      52.131  44.606  64.904  1.00  0.00     0.086 C 
HETATM    7  C13 UNL     1      53.479  45.080  65.213  1.00  0.00     0.132 C 
HETATM    8  O4  UNL     1      54.258  45.465  64.383  1.00  0.00    -0.298 OA
HETATM    9  C14 UNL     1      53.825  45.053  66.623  1.00  0.00     0.064 C 
HETATM   10  C15 UNL     1      55.263  45.396  66.856  1.00  0.00     0.014 C 
HETATM   11  C16 UNL     1      55.615  45.714  68.259  1.00  0.00     0.026 C 
HETATM   12  C17 UNL     1      54.604  45.453  69.285  1.00  0.00     0.081 C 
HETATM   13  C19 UNL     1      54.527  46.568  70.305  1.00  0.00     0.149 C 
HETATM   14  O6  UNL     1      55.509  47.187  70.669  1.00  0.00    -0.296 OA
HETATM   15  C20 UNL     1      53.147  46.769  70.757  1.00  0.00     0.082 C 
HETATM   16  C21 UNL     1      53.074  46.590  72.280  1.00  0.00     0.020 C 
HETATM   17  C22 UNL     1      52.435  45.605  70.052  1.00  0.00     0.135 C 
HETATM   18  C23 UNL     1      53.200  45.267  68.865  1.00  0.00     0.047 C 
HETATM   19  C24 UNL     1      52.881  45.871  67.517  1.00  0.00    -0.022 C 
HETATM   20  C25 UNL     1      53.275  47.293  67.365  1.00  0.00     0.017 C 
HETATM   21  C26 UNL     1      51.445  45.704  67.089  1.00  0.00     0.002 C 
HETATM   22  C27 UNL     1      50.553  46.756  67.669  1.00  0.00     0.007 C 
HETATM   23  C28 UNL     1      49.832  47.696  66.815  1.00  0.00     0.015 C 
HETATM   24  C29 UNL     1      49.594  47.362  65.391  1.00  0.00     0.014 C 
HETATM   25  C30 UNL     1      49.324  48.598  64.575  1.00  0.00     0.021 C 
ENDROOT
BRANCH   1  26
HETATM   26  C6  UNL     1      47.305  46.655  64.453  1.00  0.00     0.011 C 
HETATM   27  C7  UNL     1      46.222  46.692  65.510  1.00  0.00     0.012 C 
BRANCH  26  28
HETATM   28  C5  UNL     1      46.887  45.510  63.509  1.00  0.00     0.009 C 
BRANCH  28  29
HETATM   29  C4  UNL     1      45.579  45.866  62.835  1.00  0.00     0.027 C 
BRANCH  29  30
HETATM   30  C3  UNL     1      45.711  45.953  61.349  1.00  0.00     0.178 C 
BRANCH  30  31
HETATM   31  O2  UNL     1      46.233  44.825  60.725  1.00  0.00    -0.322 OA
BRANCH  31  32
HETATM   32  C2  UNL     1      47.331  44.775  59.906  1.00  0.00     0.254 C 
HETATM   33  C1  UNL     1      48.202  45.954  59.735  1.00  0.00     0.126 C 
HETATM   34  O1  UNL     1      47.601  43.720  59.296  1.00  0.00    -0.266 OA
ENDBRANCH  31  32
ENDBRANCH  30  31
ENDBRANCH  29  30
ENDBRANCH  28  29
ENDBRANCH  26  28
ENDBRANCH   1  26
BRANCH  12  35
HETATM   35  C18 UNL     1      55.001  44.239  70.096  1.00  0.00     0.249 C 
HETATM   36  O5  UNL     1      54.929  43.122  69.660  1.00  0.00    -0.306 OA
ENDBRANCH  12  35
BRANCH  17  37
HETATM   37  O7  UNL     1      52.627  44.527  70.976  1.00  0.00    -0.394 OA
ATOM     38  H7  UNL     1      52.374  43.771  70.459  1.00  0.00     0.210 HD
ENDBRANCH  17  37
TORSDOF 8
ENDMDL
