MODEL 1
REMARK VINA RESULT: -5.762106549      0.000      0.000
REMARK  7 active torsions:
REMARK  status: ('A' for Active; 'I' for Inactive)
REMARK    1  A    between atoms: N1_2  and  C3_4 
REMARK    2  A    between atoms: C3_4  and  C4_5 
REMARK    3  A    between atoms: C4_5  and  C5_6 
REMARK    4  A    between atoms: C5_6  and  C6_7 
REMARK    5  A    between atoms: C6_7  and  N2_8 
REMARK       I    between atoms: N2_8  and  C7_10 
REMARK       I    between atoms: C7_10  and  N3_12 
REMARK    6  A    between atoms: N3_12  and  C8_14 
REMARK    7  A    between atoms: N4_16  and  N5_18 
ROOT
HETATM    1  C8  UNL     1      -3.865  17.528  24.032  1.00  0.00     0.161 C 
HETATM    2  C9  UNL     1      -5.186  18.183  24.207  1.00  0.00     0.115 C 
HETATM    3  N4  UNL     1      -5.687  19.197  23.609  1.00  0.00    -0.294 N 
ATOM      4  H4  UNL     1      -5.153  19.683  22.889  1.00  0.00     0.187 HD
HETATM    5  N6  UNL     1      -5.823  17.412  25.235  1.00  0.00    -0.372 N 
ATOM      6  H6  UNL     1      -6.819  17.211  25.320  1.00  0.00     0.161 HD
HETATM    7  C10 UNL     1      -4.787  16.982  26.116  1.00  0.00     0.089 C 
HETATM    8  C11 UNL     1      -4.492  17.990  27.204  1.00  0.00     0.026 C 
HETATM    9  C12 UNL     1      -3.372  18.516  26.327  1.00  0.00     0.011 C 
HETATM   10  C13 UNL     1      -3.462  17.294  25.469  1.00  0.00     0.039 C 
ENDROOT
BRANCH   1  11
HETATM   11  N3  UNL     1      -2.932  18.326  23.309  1.00  0.00    -0.331 N 
HETATM   12  C7  UNL     1      -1.931  17.725  22.526  1.00  0.00     0.316 C 
HETATM   13  N2  UNL     1      -1.009  18.519  21.813  1.00  0.00    -0.343 N 
HETATM   14  O1  UNL     1      -1.862  16.479  22.466  1.00  0.00    -0.247 OA
ATOM     15  H2  UNL     1      -1.119  19.530  21.892  1.00  0.00     0.164 HD
ATOM     16  H3  UNL     1      -2.990  19.343  23.359  1.00  0.00     0.165 HD
BRANCH  13  17
HETATM   17  C6  UNL     1       0.065  18.052  20.989  1.00  0.00     0.124 C 
BRANCH  17  18
HETATM   18  C5  UNL     1      -0.362  18.224  19.518  1.00  0.00     0.021 C 
BRANCH  18  19
HETATM   19  C4  UNL     1       0.031  16.988  18.773  1.00  0.00     0.032 C 
BRANCH  19  20
HETATM   20  C3  UNL     1      -1.080  16.038  18.568  1.00  0.00     0.271 C 
BRANCH  20  21
HETATM   21  N1  UNL     1      -1.079  15.231  17.414  1.00  0.00     0.080 N 
HETATM   22  C1  UNL     1      -0.841  13.852  17.569  1.00  0.00     0.309 C 
HETATM   23  C2  UNL     1      -2.230  15.494  16.576  1.00  0.00     0.309 C 
ENDBRANCH  20  21
ENDBRANCH  19  20
ENDBRANCH  18  19
ENDBRANCH  17  18
ENDBRANCH  13  17
ENDBRANCH   1  11
BRANCH   3  24
HETATM   24  N5  UNL     1      -6.978  19.639  23.952  1.00  0.00    -0.344 N 
ATOM     25  H52 UNL     1      -7.777  19.033  23.765  1.00  0.00     0.176 HD
ATOM     26  H51 UNL     1      -7.099  20.555  24.383  1.00  0.00     0.176 HD
ENDBRANCH   3  24
TORSDOF 7
ENDMDL
MODEL 2
REMARK VINA RESULT: -5.650472686      1.366      1.946
REMARK  7 active torsions:
REMARK  status: ('A' for Active; 'I' for Inactive)
REMARK    1  A    between atoms: N1_2  and  C3_4 
REMARK    2  A    between atoms: C3_4  and  C4_5 
REMARK    3  A    between atoms: C4_5  and  C5_6 
REMARK    4  A    between atoms: C5_6  and  C6_7 
REMARK    5  A    between atoms: C6_7  and  N2_8 
REMARK       I    between atoms: N2_8  and  C7_10 
REMARK       I    between atoms: C7_10  and  N3_12 
REMARK    6  A    between atoms: N3_12  and  C8_14 
REMARK    7  A    between atoms: N4_16  and  N5_18 
ROOT
HETATM    1  C8  UNL     1      -2.265  17.564  24.450  1.00  0.00     0.161 C 
HETATM    2  C9  UNL     1      -3.654  17.557  24.975  1.00  0.00     0.115 C 
HETATM    3  N4  UNL     1      -4.768  17.494  24.351  1.00  0.00    -0.294 N 
ATOM      4  H4  UNL     1      -4.783  17.438  23.332  1.00  0.00     0.187 HD
HETATM    5  N6  UNL     1      -3.488  17.641  26.398  1.00  0.00    -0.372 N 
ATOM      6  H6  UNL     1      -4.081  17.212  27.108  1.00  0.00     0.161 HD
HETATM    7  C10 UNL     1      -2.330  18.443  26.622  1.00  0.00     0.089 C 
HETATM    8  C11 UNL     1      -2.647  19.920  26.680  1.00  0.00     0.026 C 
HETATM    9  C12 UNL     1      -2.275  19.994  25.212  1.00  0.00     0.011 C 
HETATM   10  C13 UNL     1      -1.637  18.645  25.299  1.00  0.00     0.039 C 
ENDROOT
BRANCH   1  11
HETATM   11  N3  UNL     1      -2.191  17.832  23.054  1.00  0.00    -0.331 N 
HETATM   12  C7  UNL     1      -0.986  17.655  22.352  1.00  0.00     0.316 C 
HETATM   13  N2  UNL     1      -0.918  17.923  20.969  1.00  0.00    -0.343 N 
HETATM   14  O1  UNL     1       0.029  17.256  22.963  1.00  0.00    -0.247 OA
ATOM     15  H2  UNL     1      -1.779  18.236  20.521  1.00  0.00     0.164 HD
ATOM     16  H3  UNL     1      -3.020  18.157  22.557  1.00  0.00     0.165 HD
BRANCH  13  17
HETATM   17  C6  UNL     1       0.235  17.800  20.129  1.00  0.00     0.124 C 
BRANCH  17  18
HETATM   18  C5  UNL     1      -0.242  17.328  18.742  1.00  0.00     0.021 C 
BRANCH  18  19
HETATM   19  C4  UNL     1      -1.157  16.160  18.938  1.00  0.00     0.032 C 
BRANCH  19  20
HETATM   20  C3  UNL     1      -0.844  15.006  18.073  1.00  0.00     0.271 C 
BRANCH  20  21
HETATM   21  N1  UNL     1      -1.800  14.586  17.129  1.00  0.00     0.080 N 
HETATM   22  C1  UNL     1      -2.152  15.479  16.099  1.00  0.00     0.309 C 
HETATM   23  C2  UNL     1      -1.508  13.261  16.624  1.00  0.00     0.309 C 
ENDBRANCH  20  21
ENDBRANCH  19  20
ENDBRANCH  18  19
ENDBRANCH  17  18
ENDBRANCH  13  17
ENDBRANCH   1  11
BRANCH   3  24
HETATM   24  N5  UNL     1      -5.973  17.503  25.076  1.00  0.00    -0.344 N 
ATOM     25  H52 UNL     1      -6.859  17.540  24.571  1.00  0.00     0.176 HD
ATOM     26  H51 UNL     1      -5.948  17.472  26.095  1.00  0.00     0.176 HD
ENDBRANCH   3  24
TORSDOF 7
ENDMDL
MODEL 3
REMARK VINA RESULT: -5.598297098      6.027      9.815
REMARK  7 active torsions:
REMARK  status: ('A' for Active; 'I' for Inactive)
REMARK    1  A    between atoms: N1_2  and  C3_4 
REMARK    2  A    between atoms: C3_4  and  C4_5 
REMARK    3  A    between atoms: C4_5  and  C5_6 
REMARK    4  A    between atoms: C5_6  and  C6_7 
REMARK    5  A    between atoms: C6_7  and  N2_8 
REMARK       I    between atoms: N2_8  and  C7_10 
REMARK       I    between atoms: C7_10  and  N3_12 
REMARK    6  A    between atoms: N3_12  and  C8_14 
REMARK    7  A    between atoms: N4_16  and  N5_18 
ROOT
HETATM    1  C8  UNL     1       2.726  20.773  15.843  1.00  0.00     0.161 C 
HETATM    2  C9  UNL     1       2.157  20.793  14.472  1.00  0.00     0.115 C 
HETATM    3  N4  UNL     1       1.295  20.021  13.927  1.00  0.00    -0.294 N 
ATOM      4  H4  UNL     1       0.891  19.249  14.457  1.00  0.00     0.187 HD
HETATM    5  N6  UNL     1       2.803  21.910  13.844  1.00  0.00    -0.372 N 
ATOM      6  H6  UNL     1       2.401  22.535  13.146  1.00  0.00     0.161 HD
HETATM    7  C10 UNL     1       4.119  21.974  14.390  1.00  0.00     0.089 C 
HETATM    8  C11 UNL     1       5.106  21.115  13.632  1.00  0.00     0.026 C 
HETATM    9  C12 UNL     1       4.854  20.028  14.660  1.00  0.00     0.011 C 
HETATM   10  C13 UNL     1       4.189  21.022  15.557  1.00  0.00     0.039 C 
ENDROOT
BRANCH   1  11
HETATM   11  N3  UNL     1       2.489  19.550  16.534  1.00  0.00    -0.331 N 
HETATM   12  C7  UNL     1       1.847  19.546  17.784  1.00  0.00     0.316 C 
HETATM   13  N2  UNL     1       1.615  18.331  18.464  1.00  0.00    -0.343 N 
HETATM   14  O1  UNL     1       1.482  20.627  18.292  1.00  0.00    -0.247 OA
ATOM     15  H2  UNL     1       1.926  17.479  17.998  1.00  0.00     0.164 HD
ATOM     16  H3  UNL     1       2.787  18.668  16.117  1.00  0.00     0.165 HD
BRANCH  13  17
HETATM   17  C6  UNL     1       0.988  18.172  19.741  1.00  0.00     0.124 C 
BRANCH  17  18
HETATM   18  C5  UNL     1      -0.331  17.405  19.524  1.00  0.00     0.021 C 
BRANCH  18  19
HETATM   19  C4  UNL     1      -0.232  16.669  18.226  1.00  0.00     0.032 C 
BRANCH  19  20
HETATM   20  C3  UNL     1      -0.883  15.344  18.241  1.00  0.00     0.271 C 
BRANCH  20  21
HETATM   21  N1  UNL     1      -1.273  14.765  17.019  1.00  0.00     0.080 N 
HETATM   22  C1  UNL     1      -1.352  13.361  16.944  1.00  0.00     0.309 C 
HETATM   23  C2  UNL     1      -2.452  15.406  16.474  1.00  0.00     0.309 C 
ENDBRANCH  20  21
ENDBRANCH  19  20
ENDBRANCH  18  19
ENDBRANCH  17  18
ENDBRANCH  13  17
ENDBRANCH   1  11
BRANCH   3  24
HETATM   24  N5  UNL     1       0.907  20.243  12.594  1.00  0.00    -0.344 N 
ATOM     25  H52 UNL     1       1.482  20.841  12.000  1.00  0.00     0.176 HD
ATOM     26  H51 UNL     1       0.058  19.805  12.236  1.00  0.00     0.176 HD
ENDBRANCH   3  24
TORSDOF 7
ENDMDL
MODEL 4
REMARK VINA RESULT: -5.578686223      2.350      3.174
REMARK  7 active torsions:
REMARK  status: ('A' for Active; 'I' for Inactive)
REMARK    1  A    between atoms: N1_2  and  C3_4 
REMARK    2  A    between atoms: C3_4  and  C4_5 
REMARK    3  A    between atoms: C4_5  and  C5_6 
REMARK    4  A    between atoms: C5_6  and  C6_7 
REMARK    5  A    between atoms: C6_7  and  N2_8 
REMARK       I    between atoms: N2_8  and  C7_10 
REMARK       I    between atoms: C7_10  and  N3_12 
REMARK    6  A    between atoms: N3_12  and  C8_14 
REMARK    7  A    between atoms: N4_16  and  N5_18 
ROOT
HETATM    1  C8  UNL     1      -1.440  18.574  23.424  1.00  0.00     0.161 C 
HETATM    2  C9  UNL     1      -2.268  18.089  24.557  1.00  0.00     0.115 C 
HETATM    3  N4  UNL     1      -2.885  16.980  24.709  1.00  0.00    -0.294 N 
ATOM      4  H4  UNL     1      -2.848  16.268  23.980  1.00  0.00     0.187 HD
HETATM    5  N6  UNL     1      -2.238  19.172  25.498  1.00  0.00    -0.372 N 
ATOM      6  H6  UNL     1      -2.251  19.099  26.515  1.00  0.00     0.161 HD
HETATM    7  C10 UNL     1      -2.186  20.373  24.729  1.00  0.00     0.089 C 
HETATM    8  C11 UNL     1      -3.558  20.882  24.351  1.00  0.00     0.026 C 
HETATM    9  C12 UNL     1      -3.392  20.161  23.027  1.00  0.00     0.011 C 
HETATM   10  C13 UNL     1      -1.930  19.998  23.292  1.00  0.00     0.039 C 
ENDROOT
BRANCH   1  11
HETATM   11  N3  UNL     1      -1.609  17.809  22.235  1.00  0.00    -0.331 N 
HETATM   12  C7  UNL     1      -0.606  17.783  21.251  1.00  0.00     0.316 C 
HETATM   13  N2  UNL     1      -0.779  17.024  20.074  1.00  0.00    -0.343 N 
HETATM   14  O1  UNL     1       0.444  18.438  21.424  1.00  0.00    -0.247 OA
ATOM     15  H2  UNL     1      -1.651  16.502  19.990  1.00  0.00     0.164 HD
ATOM     16  H3  UNL     1      -2.467  17.275  22.095  1.00  0.00     0.165 HD
BRANCH  13  17
HETATM   17  C6  UNL     1       0.144  16.911  18.986  1.00  0.00     0.124 C 
BRANCH  17  18
HETATM   18  C5  UNL     1      -0.675  16.739  17.691  1.00  0.00     0.021 C 
BRANCH  18  19
HETATM   19  C4  UNL     1      -1.487  15.490  17.818  1.00  0.00     0.032 C 
BRANCH  19  20
HETATM   20  C3  UNL     1      -2.177  15.098  16.574  1.00  0.00     0.271 C 
BRANCH  20  21
HETATM   21  N1  UNL     1      -2.035  13.779  16.105  1.00  0.00     0.080 N 
HETATM   22  C1  UNL     1      -2.054  13.563  14.713  1.00  0.00     0.309 C 
HETATM   23  C2  UNL     1      -0.929  13.099  16.746  1.00  0.00     0.309 C 
ENDBRANCH  20  21
ENDBRANCH  19  20
ENDBRANCH  18  19
ENDBRANCH  17  18
ENDBRANCH  13  17
ENDBRANCH   1  11
BRANCH   3  24
HETATM   24  N5  UNL     1      -3.616  16.746  25.888  1.00  0.00    -0.344 N 
ATOM     25  H52 UNL     1      -3.151  16.851  26.791  1.00  0.00     0.176 HD
ATOM     26  H51 UNL     1      -4.597  16.476  25.828  1.00  0.00     0.176 HD
ENDBRANCH   3  24
TORSDOF 7
ENDMDL
MODEL 5
REMARK VINA RESULT: -5.569192232      2.476      3.502
REMARK  7 active torsions:
REMARK  status: ('A' for Active; 'I' for Inactive)
REMARK    1  A    between atoms: N1_2  and  C3_4 
REMARK    2  A    between atoms: C3_4  and  C4_5 
REMARK    3  A    between atoms: C4_5  and  C5_6 
REMARK    4  A    between atoms: C5_6  and  C6_7 
REMARK    5  A    between atoms: C6_7  and  N2_8 
REMARK       I    between atoms: N2_8  and  C7_10 
REMARK       I    between atoms: C7_10  and  N3_12 
REMARK    6  A    between atoms: N3_12  and  C8_14 
REMARK    7  A    between atoms: N4_16  and  N5_18 
ROOT
HETATM    1  C8  UNL     1      -1.575  18.809  23.313  1.00  0.00     0.161 C 
HETATM    2  C9  UNL     1      -0.665  18.739  24.484  1.00  0.00     0.115 C 
HETATM    3  N4  UNL     1       0.455  18.138  24.619  1.00  0.00    -0.294 N 
ATOM      4  H4  UNL     1       0.848  17.604  23.844  1.00  0.00     0.187 HD
HETATM    5  N6  UNL     1      -1.330  19.519  25.487  1.00  0.00    -0.372 N 
ATOM      6  H6  UNL     1      -0.889  20.096  26.203  1.00  0.00     0.161 HD
HETATM    7  C10 UNL     1      -2.729  19.329  25.286  1.00  0.00     0.089 C 
HETATM    8  C11 UNL     1      -3.264  18.122  26.023  1.00  0.00     0.026 C 
HETATM    9  C12 UNL     1      -3.087  17.337  24.738  1.00  0.00     0.011 C 
HETATM   10  C13 UNL     1      -2.920  18.611  23.974  1.00  0.00     0.039 C 
ENDROOT
BRANCH   1  11
HETATM   11  N3  UNL     1      -1.290  17.832  22.317  1.00  0.00    -0.331 N 
HETATM   12  C7  UNL     1      -0.499  18.155  21.201  1.00  0.00     0.316 C 
HETATM   13  N2  UNL     1      -0.220  17.183  20.217  1.00  0.00    -0.343 N 
HETATM   14  O1  UNL     1      -0.043  19.313  21.084  1.00  0.00    -0.247 OA
ATOM     15  H2  UNL     1      -0.610  16.253  20.369  1.00  0.00     0.164 HD
ATOM     16  H3  UNL     1      -1.663  16.887  22.414  1.00  0.00     0.165 HD
BRANCH  13  17
HETATM   17  C6  UNL     1       0.555  17.368  19.028  1.00  0.00     0.124 C 
BRANCH  17  18
HETATM   18  C5  UNL     1      -0.330  16.983  17.826  1.00  0.00     0.021 C 
BRANCH  18  19
HETATM   19  C4  UNL     1      -0.964  15.661  18.121  1.00  0.00     0.032 C 
BRANCH  19  20
HETATM   20  C3  UNL     1      -2.033  15.288  17.174  1.00  0.00     0.271 C 
BRANCH  20  21
HETATM   21  N1  UNL     1      -1.982  14.024  16.556  1.00  0.00     0.080 N 
HETATM   22  C1  UNL     1      -2.127  13.963  15.157  1.00  0.00     0.309 C 
HETATM   23  C2  UNL     1      -0.853  13.246  17.021  1.00  0.00     0.309 C 
ENDBRANCH  20  21
ENDBRANCH  19  20
ENDBRANCH  18  19
ENDBRANCH  17  18
ENDBRANCH  13  17
ENDBRANCH   1  11
BRANCH   3  24
HETATM   24  N5  UNL     1       1.144  18.218  25.843  1.00  0.00    -0.344 N 
ATOM     25  H52 UNL     1       2.116  17.911  25.889  1.00  0.00     0.176 HD
ATOM     26  H51 UNL     1       0.666  18.582  26.667  1.00  0.00     0.176 HD
ENDBRANCH   3  24
TORSDOF 7
ENDMDL
