MODEL 1
REMARK VINA RESULT: -6.605831560      0.000      0.000
REMARK  6 active torsions:
REMARK  status: ('A' for Active; 'I' for Inactive)
REMARK    1  A    between atoms: C3_3  and  C4_4 
REMARK    2  A    between atoms: C4_4  and  N1_5 
REMARK       I    between atoms: N1_5  and  C5_7 
REMARK       I    between atoms: C5_7  and  N3_11 
REMARK    3  A    between atoms: N3_11  and  C6_13 
REMARK    4  A    between atoms: C6_13  and  C7_14 
REMARK    5  A    between atoms: C10_17  and  C11_18 
REMARK    6  A    between atoms: C11_18  and  O1_19 
ROOT
HETATM    1  C1  UNL     1      -1.787  13.225  15.016  1.00  0.00     0.012 C 
HETATM    2  C2  UNL     1      -1.593  13.565  16.160  1.00  0.00    -0.116 C 
HETATM    3  C3  UNL     1      -1.349  13.951  17.549  1.00  0.00     0.113 C 
ENDROOT
BRANCH   3   4
HETATM    4  C4  UNL     1      -1.038  15.422  17.626  1.00  0.00     0.150 C 
BRANCH   4   5
HETATM    5  N1  UNL     1      -0.163  15.729  18.748  1.00  0.00    -0.226 N 
HETATM    6  C5  UNL     1      -0.154  17.088  19.193  1.00  0.00     0.667 C 
HETATM    7  N2  UNL     1      -0.516  17.351  20.397  1.00  0.00    -0.235 N 
HETATM    8  N3  UNL     1       0.243  18.146  18.334  1.00  0.00    -0.226 N 
ATOM      9  H22 UNL     1      -0.802  16.591  21.014  1.00  0.00     0.174 HD
ATOM     10  H21 UNL     1      -0.510  18.320  20.714  1.00  0.00     0.174 HD
ATOM     11  H3  UNL     1      -0.486  18.705  17.893  1.00  0.00     0.177 HD
ATOM     12  H1  UNL     1       0.412  15.014  19.193  1.00  0.00     0.177 HD
BRANCH   8  13
HETATM   13  C6  UNL     1       1.624  18.476  18.048  1.00  0.00     0.155 C 
BRANCH  13  14
HETATM   14  C7  UNL     1       1.681  19.769  17.364  1.00  0.00     0.086 C 
HETATM   15  C8  UNL     1       2.825  20.071  16.555  1.00  0.00    -0.097 C 
HETATM   16  C9  UNL     1       3.510  20.320  15.789  1.00  0.00    -0.062 C 
HETATM   17  C10 UNL     1       4.160  20.681  14.576  1.00  0.00     0.241 A 
HETATM   18  N4  UNL     1       3.642  21.856  13.943  1.00  0.00    -0.040 N 
HETATM   19  C12 UNL     1       3.091  20.632  13.527  1.00  0.00     0.261 A 
ATOM     20  H42 UNL     1       3.229  22.715  14.307  1.00  0.00     0.280 HD
ATOM     21  H41 UNL     1       4.084  22.625  13.440  1.00  0.00     0.280 HD
HETATM   22  C13 UNL     1       1.835  19.976  14.061  1.00  0.00     0.005 C 
HETATM   23  C14 UNL     1       0.974  20.589  15.043  1.00  0.00    -0.027 C 
HETATM   24  C15 UNL     1       0.518  19.897  16.293  1.00  0.00     0.045 C 
BRANCH  17  25
HETATM   25  C11 UNL     1       5.468  20.072  14.251  1.00  0.00     0.219 C 
BRANCH  25  26
HETATM   26  O1  UNL     1       6.463  20.726  15.002  1.00  0.00    -0.397 OA
ATOM     27  H1  UNL     1       6.567  20.266  15.826  1.00  0.00     0.209 HD
ENDBRANCH  25  26
ENDBRANCH  17  25
ENDBRANCH  13  14
ENDBRANCH   8  13
ENDBRANCH   4   5
ENDBRANCH   3   4
TORSDOF 6
ENDMDL
MODEL 2
REMARK VINA RESULT: -6.517469152      1.335      1.565
REMARK  6 active torsions:
REMARK  status: ('A' for Active; 'I' for Inactive)
REMARK    1  A    between atoms: C3_3  and  C4_4 
REMARK    2  A    between atoms: C4_4  and  N1_5 
REMARK       I    between atoms: N1_5  and  C5_7 
REMARK       I    between atoms: C5_7  and  N3_11 
REMARK    3  A    between atoms: N3_11  and  C6_13 
REMARK    4  A    between atoms: C6_13  and  C7_14 
REMARK    5  A    between atoms: C10_17  and  C11_18 
REMARK    6  A    between atoms: C11_18  and  O1_19 
ROOT
HETATM    1  C1  UNL     1      -1.801  13.175  14.905  1.00  0.00     0.012 C 
HETATM    2  C2  UNL     1      -1.572  13.497  16.048  1.00  0.00    -0.116 C 
HETATM    3  C3  UNL     1      -1.286  13.861  17.435  1.00  0.00     0.113 C 
ENDROOT
BRANCH   3   4
HETATM    4  C4  UNL     1      -0.997  15.335  17.530  1.00  0.00     0.150 C 
BRANCH   4   5
HETATM    5  N1  UNL     1      -0.202  15.654  18.707  1.00  0.00    -0.226 N 
HETATM    6  C5  UNL     1      -0.306  16.992  19.201  1.00  0.00     0.667 C 
HETATM    7  N2  UNL     1      -0.745  17.182  20.392  1.00  0.00    -0.235 N 
HETATM    8  N3  UNL     1       0.061  18.106  18.403  1.00  0.00    -0.226 N 
ATOM      9  H22 UNL     1      -1.009  16.381  20.966  1.00  0.00     0.174 HD
ATOM     10  H21 UNL     1      -0.819  18.136  20.745  1.00  0.00     0.174 HD
ATOM     11  H3  UNL     1      -0.681  18.634  17.945  1.00  0.00     0.177 HD
ATOM     12  H1  UNL     1       0.397  14.960  19.154  1.00  0.00     0.177 HD
BRANCH   8  13
HETATM   13  C6  UNL     1       1.429  18.536  18.201  1.00  0.00     0.155 C 
BRANCH  13  14
HETATM   14  C7  UNL     1       1.444  19.703  17.316  1.00  0.00     0.086 C 
HETATM   15  C8  UNL     1       2.596  20.557  17.320  1.00  0.00    -0.097 C 
HETATM   16  C9  UNL     1       3.453  21.134  17.096  1.00  0.00    -0.062 C 
HETATM   17  C10 UNL     1       4.553  21.802  16.490  1.00  0.00     0.241 A 
HETATM   18  N4  UNL     1       4.220  22.577  15.333  1.00  0.00    -0.040 N 
HETATM   19  C12 UNL     1       4.627  21.253  15.097  1.00  0.00     0.261 A 
ATOM     20  H42 UNL     1       3.389  23.106  15.067  1.00  0.00     0.280 HD
ATOM     21  H41 UNL     1       4.549  23.477  14.983  1.00  0.00     0.280 HD
HETATM   22  C13 UNL     1       3.729  20.044  14.941  1.00  0.00     0.005 C 
HETATM   23  C14 UNL     1       2.289  20.120  14.934  1.00  0.00    -0.027 C 
HETATM   24  C15 UNL     1       1.409  19.260  15.793  1.00  0.00     0.045 C 
BRANCH  17  25
HETATM   25  C11 UNL     1       5.818  21.937  17.243  1.00  0.00     0.219 C 
BRANCH  25  26
HETATM   26  O1  UNL     1       6.165  23.300  17.292  1.00  0.00    -0.397 OA
ATOM     27  H1  UNL     1       5.715  23.698  18.028  1.00  0.00     0.209 HD
ENDBRANCH  25  26
ENDBRANCH  17  25
ENDBRANCH  13  14
ENDBRANCH   8  13
ENDBRANCH   4   5
ENDBRANCH   3   4
TORSDOF 6
ENDMDL
MODEL 3
REMARK VINA RESULT: -6.352231440      5.076      7.295
REMARK  6 active torsions:
REMARK  status: ('A' for Active; 'I' for Inactive)
REMARK    1  A    between atoms: C3_3  and  C4_4 
REMARK    2  A    between atoms: C4_4  and  N1_5 
REMARK       I    between atoms: N1_5  and  C5_7 
REMARK       I    between atoms: C5_7  and  N3_11 
REMARK    3  A    between atoms: N3_11  and  C6_13 
REMARK    4  A    between atoms: C6_13  and  C7_14 
REMARK    5  A    between atoms: C10_17  and  C11_18 
REMARK    6  A    between atoms: C11_18  and  O1_19 
ROOT
HETATM    1  C1  UNL     1      -2.145  13.976  15.010  1.00  0.00     0.012 C 
HETATM    2  C2  UNL     1      -1.857  13.680  16.147  1.00  0.00    -0.116 C 
HETATM    3  C3  UNL     1      -1.513  13.296  17.515  1.00  0.00     0.113 C 
ENDROOT
BRANCH   3   4
HETATM    4  C4  UNL     1      -0.595  14.324  18.121  1.00  0.00     0.150 C 
BRANCH   4   5
HETATM    5  N1  UNL     1      -1.188  15.652  18.104  1.00  0.00    -0.226 N 
HETATM    6  C5  UNL     1      -0.318  16.732  17.754  1.00  0.00     0.667 C 
HETATM    7  N2  UNL     1      -0.588  17.436  16.715  1.00  0.00    -0.235 N 
HETATM    8  N3  UNL     1       0.833  17.036  18.527  1.00  0.00    -0.226 N 
ATOM      9  H22 UNL     1      -1.415  17.218  16.160  1.00  0.00     0.174 HD
ATOM     10  H21 UNL     1       0.032  18.207  16.466  1.00  0.00     0.174 HD
ATOM     11  H3  UNL     1       1.738  16.713  18.188  1.00  0.00     0.177 HD
ATOM     12  H1  UNL     1      -2.171  15.805  18.329  1.00  0.00     0.177 HD
BRANCH   8  13
HETATM   13  C6  UNL     1       0.795  17.778  19.770  1.00  0.00     0.155 C 
BRANCH  13  14
HETATM   14  C7  UNL     1      -0.589  18.155  20.067  1.00  0.00     0.086 C 
HETATM   15  C8  UNL     1      -1.143  17.796  21.339  1.00  0.00    -0.097 C 
HETATM   16  C9  UNL     1      -1.586  17.761  22.298  1.00  0.00    -0.062 C 
HETATM   17  C10 UNL     1      -2.206  18.039  23.549  1.00  0.00     0.241 A 
HETATM   18  N4  UNL     1      -3.400  18.825  23.465  1.00  0.00    -0.040 N 
HETATM   19  C12 UNL     1      -2.203  19.534  23.665  1.00  0.00     0.261 A 
ATOM     20  H42 UNL     1      -4.138  18.893  22.764  1.00  0.00     0.280 HD
ATOM     21  H41 UNL     1      -4.285  18.799  23.973  1.00  0.00     0.280 HD
HETATM   22  C13 UNL     1      -1.332  20.161  22.597  1.00  0.00     0.005 C 
HETATM   23  C14 UNL     1      -1.680  20.178  21.197  1.00  0.00    -0.027 C 
HETATM   24  C15 UNL     1      -0.752  19.732  20.107  1.00  0.00     0.045 C 
BRANCH  17  25
HETATM   25  C11 UNL     1      -1.810  17.257  24.739  1.00  0.00     0.219 C 
BRANCH  25  26
HETATM   26  O1  UNL     1      -1.811  15.893  24.397  1.00  0.00    -0.397 OA
ATOM     27  H1  UNL     1      -1.091  15.732  23.799  1.00  0.00     0.209 HD
ENDBRANCH  25  26
ENDBRANCH  17  25
ENDBRANCH  13  14
ENDBRANCH   8  13
ENDBRANCH   4   5
ENDBRANCH   3   4
TORSDOF 6
ENDMDL
MODEL 4
REMARK VINA RESULT: -6.315456891      2.016      3.034
REMARK  6 active torsions:
REMARK  status: ('A' for Active; 'I' for Inactive)
REMARK    1  A    between atoms: C3_3  and  C4_4 
REMARK    2  A    between atoms: C4_4  and  N1_5 
REMARK       I    between atoms: N1_5  and  C5_7 
REMARK       I    between atoms: C5_7  and  N3_11 
REMARK    3  A    between atoms: N3_11  and  C6_13 
REMARK    4  A    between atoms: C6_13  and  C7_14 
REMARK    5  A    between atoms: C10_17  and  C11_18 
REMARK    6  A    between atoms: C11_18  and  O1_19 
ROOT
HETATM    1  C1  UNL     1      -2.240  13.578  15.025  1.00  0.00     0.012 C 
HETATM    2  C2  UNL     1      -1.555  13.530  16.020  1.00  0.00    -0.116 C 
HETATM    3  C3  UNL     1      -0.705  13.473  17.208  1.00  0.00     0.113 C 
ENDROOT
BRANCH   3   4
HETATM    4  C4  UNL     1      -1.419  14.090  18.381  1.00  0.00     0.150 C 
BRANCH   4   5
HETATM    5  N1  UNL     1      -1.768  15.480  18.129  1.00  0.00    -0.226 N 
HETATM    6  C5  UNL     1      -0.686  16.361  17.816  1.00  0.00     0.667 C 
HETATM    7  N2  UNL     1      -0.678  16.957  16.680  1.00  0.00    -0.235 N 
HETATM    8  N3  UNL     1       0.375  16.583  18.732  1.00  0.00    -0.226 N 
ATOM      9  H22 UNL     1      -1.441  16.797  16.022  1.00  0.00     0.174 HD
ATOM     10  H21 UNL     1       0.094  17.586  16.457  1.00  0.00     0.174 HD
ATOM     11  H3  UNL     1       1.252  16.085  18.582  1.00  0.00     0.177 HD
ATOM     12  H1  UNL     1      -2.733  15.808  18.172  1.00  0.00     0.177 HD
BRANCH   8  13
HETATM   13  C6  UNL     1       0.284  17.477  19.868  1.00  0.00     0.155 C 
BRANCH  13  14
HETATM   14  C7  UNL     1       1.354  18.474  19.787  1.00  0.00     0.086 C 
HETATM   15  C8  UNL     1       1.831  18.869  18.494  1.00  0.00    -0.097 C 
HETATM   16  C9  UNL     1       2.121  19.374  17.611  1.00  0.00    -0.062 C 
HETATM   17  C10 UNL     1       2.409  20.319  16.587  1.00  0.00     0.241 A 
HETATM   18  N4  UNL     1       3.196  21.438  17.008  1.00  0.00    -0.040 N 
HETATM   19  C12 UNL     1       1.802  21.606  17.058  1.00  0.00     0.261 A 
ATOM     20  H42 UNL     1       3.933  21.545  17.705  1.00  0.00     0.280 HD
ATOM     21  H41 UNL     1       3.943  21.969  16.560  1.00  0.00     0.280 HD
HETATM   22  C13 UNL     1       0.904  21.377  18.256  1.00  0.00     0.005 C 
HETATM   23  C14 UNL     1       1.400  21.025  19.564  1.00  0.00    -0.027 C 
HETATM   24  C15 UNL     1       0.876  19.870  20.366  1.00  0.00     0.045 C 
BRANCH  17  25
HETATM   25  C11 UNL     1       2.198  19.937  15.175  1.00  0.00     0.219 C 
BRANCH  25  26
HETATM   26  O1  UNL     1       1.259  18.891  15.130  1.00  0.00    -0.397 OA
ATOM     27  H1  UNL     1       0.392  19.261  15.248  1.00  0.00     0.209 HD
ENDBRANCH  25  26
ENDBRANCH  17  25
ENDBRANCH  13  14
ENDBRANCH   8  13
ENDBRANCH   4   5
ENDBRANCH   3   4
TORSDOF 6
ENDMDL
MODEL 5
REMARK VINA RESULT: -6.266800390      3.009      7.244
REMARK  6 active torsions:
REMARK  status: ('A' for Active; 'I' for Inactive)
REMARK    1  A    between atoms: C3_3  and  C4_4 
REMARK    2  A    between atoms: C4_4  and  N1_5 
REMARK       I    between atoms: N1_5  and  C5_7 
REMARK       I    between atoms: C5_7  and  N3_11 
REMARK    3  A    between atoms: N3_11  and  C6_13 
REMARK    4  A    between atoms: C6_13  and  C7_14 
REMARK    5  A    between atoms: C10_17  and  C11_18 
REMARK    6  A    between atoms: C11_18  and  O1_19 
ROOT
HETATM    1  C1  UNL     1       7.482  20.300  12.100  1.00  0.00     0.012 C 
HETATM    2  C2  UNL     1       6.861  19.986  13.089  1.00  0.00    -0.116 C 
HETATM    3  C3  UNL     1       6.134  19.600  14.298  1.00  0.00     0.113 C 
ENDROOT
BRANCH   3   4
HETATM    4  C4  UNL     1       4.875  20.415  14.421  1.00  0.00     0.150 C 
BRANCH   4   5
HETATM    5  N1  UNL     1       5.125  21.699  15.059  1.00  0.00    -0.226 N 
HETATM    6  C5  UNL     1       5.148  21.705  16.489  1.00  0.00     0.667 C 
HETATM    7  N2  UNL     1       6.223  22.064  17.091  1.00  0.00    -0.235 N 
HETATM    8  N3  UNL     1       4.013  21.321  17.249  1.00  0.00    -0.226 N 
ATOM      9  H22 UNL     1       7.039  22.340  16.545  1.00  0.00     0.174 HD
ATOM     10  H21 UNL     1       6.240  22.068  18.112  1.00  0.00     0.174 HD
ATOM     11  H3  UNL     1       3.995  20.380  17.643  1.00  0.00     0.177 HD
ATOM     12  H1  UNL     1       5.275  22.549  14.516  1.00  0.00     0.177 HD
BRANCH   8  13
HETATM   13  C6  UNL     1       2.879  22.187  17.498  1.00  0.00     0.155 C 
BRANCH  13  14
HETATM   14  C7  UNL     1       2.056  21.612  18.564  1.00  0.00     0.086 C 
HETATM   15  C8  UNL     1       1.196  20.509  18.252  1.00  0.00    -0.097 C 
HETATM   16  C9  UNL     1       0.683  19.587  18.189  1.00  0.00    -0.062 C 
HETATM   17  C10 UNL     1       0.195  18.259  18.348  1.00  0.00     0.241 A 
HETATM   18  N4  UNL     1      -0.157  17.906  19.690  1.00  0.00    -0.040 N 
HETATM   19  C12 UNL     1       1.155  17.598  19.290  1.00  0.00     0.261 A 
ATOM     20  H42 UNL     1      -0.536  18.441  20.472  1.00  0.00     0.280 HD
ATOM     21  H41 UNL     1      -0.911  17.345  20.085  1.00  0.00     0.280 HD
HETATM   22  C13 UNL     1       2.389  18.451  19.496  1.00  0.00     0.005 C 
HETATM   23  C14 UNL     1       2.382  19.693  20.229  1.00  0.00    -0.027 C 
HETATM   24  C15 UNL     1       2.961  20.971  19.698  1.00  0.00     0.045 C 
BRANCH  17  25
HETATM   25  C11 UNL     1      -0.228  17.500  17.153  1.00  0.00     0.219 C 
BRANCH  25  26
HETATM   26  O1  UNL     1      -0.969  18.356  16.318  1.00  0.00    -0.397 OA
ATOM     27  H1  UNL     1      -0.366  18.803  15.735  1.00  0.00     0.209 HD
ENDBRANCH  25  26
ENDBRANCH  17  25
ENDBRANCH  13  14
ENDBRANCH   8  13
ENDBRANCH   4   5
ENDBRANCH   3   4
TORSDOF 6
ENDMDL
