MODEL 1
REMARK VINA RESULT: -7.289395945      0.000      0.000
REMARK  10 active torsions:
REMARK  status: ('A' for Active; 'I' for Inactive)
REMARK    1  A    between atoms: N1_2  and  O1_3 
REMARK    2  A    between atoms: C2_5  and  C3_6 
REMARK    3  A    between atoms: C3_6  and  C4_7 
REMARK    4  A    between atoms: C5_8  and  C6_9 
REMARK    5  A    between atoms: C7_10  and  C8_11 
REMARK    6  A    between atoms: C8_11  and  N2_12 
REMARK    7  A    between atoms: N2_12  and  O2_13 
REMARK    8  A    between atoms: N2_12  and  C9_15 
REMARK    9  A    between atoms: C10_16  and  C11_17 
REMARK   10  A    between atoms: C11_17  and  C12_18 
ROOT
HETATM    1  N2  UNL     1       1.041  18.463  18.754  1.00  0.00    -0.165 NA
ENDROOT
BRANCH   1   2
HETATM    2  C8  UNL     1       0.520  19.060  17.536  1.00  0.00     0.220 C 
BRANCH   2   3
HETATM    3  C7  UNL     1       1.647  19.447  16.655  1.00  0.00    -0.075 C 
HETATM    4  C6  UNL     1       2.552  19.771  15.925  1.00  0.00    -0.014 C 
BRANCH   4   5
HETATM    5  C5  UNL     1       3.600  20.158  15.047  1.00  0.00    -0.015 C 
HETATM    6  C4  UNL     1       4.482  20.501  14.289  1.00  0.00    -0.087 C 
BRANCH   6   7
HETATM    7  C3  UNL     1       5.540  20.942  13.371  1.00  0.00     0.141 C 
BRANCH   7   8
HETATM    8  C2  UNL     1       6.443  19.794  13.101  1.00  0.00     0.101 C 
HETATM    9  N1  UNL     1       7.538  19.923  12.449  1.00  0.00    -0.279 N 
HETATM   10  C1  UNL     1       7.885  21.255  11.969  1.00  0.00     0.184 C 
BRANCH   9  11
HETATM   11  O1  UNL     1       8.320  18.833  12.236  1.00  0.00    -0.289 OA
ATOM     12  H1  UNL     1       7.967  17.976  12.028  1.00  0.00     0.244 HD
ENDBRANCH   9  11
ENDBRANCH   7   8
ENDBRANCH   6   7
ENDBRANCH   4   5
ENDBRANCH   2   3
ENDBRANCH   1   2
BRANCH   1  13
HETATM   13  O2  UNL     1       2.334  18.108  18.598  1.00  0.00    -0.308 OA
ATOM     14  H2  UNL     1       2.432  17.164  18.632  1.00  0.00     0.237 HD
ENDBRANCH   1  13
BRANCH   1  15
HETATM   15  C9  UNL     1       0.213  17.360  19.093  1.00  0.00     0.087 C 
HETATM   16  C10 UNL     1      -0.305  16.620  18.127  1.00  0.00    -0.007 C 
BRANCH  16  17
HETATM   17  C11 UNL     1      -1.163  15.473  18.433  1.00  0.00     0.086 C 
BRANCH  17  18
HETATM   18  C12 UNL     1      -1.606  14.723  17.227  1.00  0.00     0.032 A 
HETATM   19  C13 UNL     1      -2.568  15.042  16.312  1.00  0.00     0.118 A 
HETATM   20  N3  UNL     1      -2.614  14.068  15.397  1.00  0.00    -0.317 N 
HETATM   21  C14 UNL     1      -1.688  13.162  15.749  1.00  0.00     0.324 A 
ATOM     22  H3  UNL     1      -3.233  14.022  14.587  1.00  0.00     0.170 HD
HETATM   23  O3  UNL     1      -1.458  12.100  15.097  1.00  0.00    -0.247 OA
HETATM   24  N4  UNL     1      -1.063  13.554  16.869  1.00  0.00    -0.311 N 
ATOM     25  H4  UNL     1      -0.317  13.057  17.354  1.00  0.00     0.170 HD
ENDBRANCH  17  18
ENDBRANCH  16  17
ENDBRANCH   1  15
TORSDOF 10
ENDMDL
MODEL 2
REMARK VINA RESULT: -7.189428215      1.369      1.550
REMARK  10 active torsions:
REMARK  status: ('A' for Active; 'I' for Inactive)
REMARK    1  A    between atoms: N1_2  and  O1_3 
REMARK    2  A    between atoms: C2_5  and  C3_6 
REMARK    3  A    between atoms: C3_6  and  C4_7 
REMARK    4  A    between atoms: C5_8  and  C6_9 
REMARK    5  A    between atoms: C7_10  and  C8_11 
REMARK    6  A    between atoms: C8_11  and  N2_12 
REMARK    7  A    between atoms: N2_12  and  O2_13 
REMARK    8  A    between atoms: N2_12  and  C9_15 
REMARK    9  A    between atoms: C10_16  and  C11_17 
REMARK   10  A    between atoms: C11_17  and  C12_18 
ROOT
HETATM    1  N2  UNL     1       0.467  19.055  16.937  1.00  0.00    -0.165 NA
ENDROOT
BRANCH   1   2
HETATM    2  C8  UNL     1       1.710  19.619  17.437  1.00  0.00     0.220 C 
BRANCH   2   3
HETATM    3  C7  UNL     1       2.627  19.877  16.303  1.00  0.00    -0.075 C 
HETATM    4  C6  UNL     1       3.390  20.089  15.392  1.00  0.00    -0.014 C 
BRANCH   4   5
HETATM    5  C5  UNL     1       4.304  20.350  14.336  1.00  0.00    -0.015 C 
HETATM    6  C4  UNL     1       5.084  20.591  13.439  1.00  0.00    -0.087 C 
BRANCH   6   7
HETATM    7  C3  UNL     1       6.039  20.904  12.368  1.00  0.00     0.141 C 
BRANCH   7   8
HETATM    8  C2  UNL     1       7.100  19.865  12.359  1.00  0.00     0.101 C 
HETATM    9  N1  UNL     1       8.313  20.128  12.043  1.00  0.00    -0.279 N 
HETATM   10  C1  UNL     1       8.634  21.505  11.688  1.00  0.00     0.184 C 
BRANCH   9  11
HETATM   11  O1  UNL     1       9.236  19.132  12.054  1.00  0.00    -0.289 OA
ATOM     12  H1  UNL     1       9.615  18.786  12.854  1.00  0.00     0.244 HD
ENDBRANCH   9  11
ENDBRANCH   7   8
ENDBRANCH   6   7
ENDBRANCH   4   5
ENDBRANCH   2   3
ENDBRANCH   1   2
BRANCH   1  13
HETATM   13  O2  UNL     1      -0.556  19.918  17.113  1.00  0.00    -0.308 OA
ATOM     14  H2  UNL     1      -0.741  20.391  16.310  1.00  0.00     0.237 HD
ENDBRANCH   1  13
BRANCH   1  15
HETATM   15  C9  UNL     1       0.250  17.814  17.593  1.00  0.00     0.087 C 
HETATM   16  C10 UNL     1      -0.737  17.034  17.189  1.00  0.00    -0.007 C 
BRANCH  16  17
HETATM   17  C11 UNL     1      -0.995  15.747  17.838  1.00  0.00     0.086 C 
BRANCH  17  18
HETATM   18  C12 UNL     1      -1.350  14.661  16.885  1.00  0.00     0.032 A 
HETATM   19  C13 UNL     1      -1.284  13.306  17.049  1.00  0.00     0.118 A 
HETATM   20  N3  UNL     1      -1.708  12.727  15.920  1.00  0.00    -0.317 N 
HETATM   21  C14 UNL     1      -2.030  13.719  15.074  1.00  0.00     0.324 A 
ATOM     22  H3  UNL     1      -1.774  11.726  15.738  1.00  0.00     0.170 HD
HETATM   23  O3  UNL     1      -2.473  13.528  13.902  1.00  0.00    -0.247 OA
HETATM   24  N4  UNL     1      -1.815  14.908  15.655  1.00  0.00    -0.311 N 
ATOM     25  H4  UNL     1      -1.977  15.825  15.240  1.00  0.00     0.170 HD
ENDBRANCH  17  18
ENDBRANCH  16  17
ENDBRANCH   1  15
TORSDOF 10
ENDMDL
MODEL 3
REMARK VINA RESULT: -6.999963909      5.873      9.089
REMARK  10 active torsions:
REMARK  status: ('A' for Active; 'I' for Inactive)
REMARK    1  A    between atoms: N1_2  and  O1_3 
REMARK    2  A    between atoms: C2_5  and  C3_6 
REMARK    3  A    between atoms: C3_6  and  C4_7 
REMARK    4  A    between atoms: C5_8  and  C6_9 
REMARK    5  A    between atoms: C7_10  and  C8_11 
REMARK    6  A    between atoms: C8_11  and  N2_12 
REMARK    7  A    between atoms: N2_12  and  O2_13 
REMARK    8  A    between atoms: N2_12  and  C9_15 
REMARK    9  A    between atoms: C10_16  and  C11_17 
REMARK   10  A    between atoms: C11_17  and  C12_18 
ROOT
HETATM    1  N2  UNL     1      -0.132  16.851  19.719  1.00  0.00    -0.165 NA
ENDROOT
BRANCH   1   2
HETATM    2  C8  UNL     1      -0.598  18.124  20.242  1.00  0.00     0.220 C 
BRANCH   2   3
HETATM    3  C7  UNL     1      -0.526  18.106  21.722  1.00  0.00    -0.075 C 
HETATM    4  C6  UNL     1      -0.455  18.108  22.926  1.00  0.00    -0.014 C 
BRANCH   4   5
HETATM    5  C5  UNL     1      -0.352  18.126  24.343  1.00  0.00    -0.015 C 
HETATM    6  C4  UNL     1      -0.254  18.160  25.552  1.00  0.00    -0.087 C 
BRANCH   6   7
HETATM    7  C3  UNL     1      -0.138  18.226  27.014  1.00  0.00     0.141 C 
BRANCH   7   8
HETATM    8  C2  UNL     1       1.302  18.209  27.377  1.00  0.00     0.101 C 
HETATM    9  N1  UNL     1       1.855  19.162  28.030  1.00  0.00    -0.279 N 
HETATM   10  C1  UNL     1       1.017  20.289  28.418  1.00  0.00     0.184 C 
BRANCH   9  11
HETATM   11  O1  UNL     1       3.178  19.085  28.331  1.00  0.00    -0.289 OA
ATOM     12  H1  UNL     1       3.847  18.902  27.681  1.00  0.00     0.244 HD
ENDBRANCH   9  11
ENDBRANCH   7   8
ENDBRANCH   6   7
ENDBRANCH   4   5
ENDBRANCH   2   3
ENDBRANCH   1   2
BRANCH   1  13
HETATM   13  O2  UNL     1       1.214  16.842  19.608  1.00  0.00    -0.308 OA
ATOM     14  H2  UNL     1       1.578  16.049  19.984  1.00  0.00     0.237 HD
ENDBRANCH   1  13
BRANCH   1  15
HETATM   15  C9  UNL     1      -0.781  16.620  18.477  1.00  0.00     0.087 C 
HETATM   16  C10 UNL     1      -1.541  15.548  18.335  1.00  0.00    -0.007 C 
BRANCH  16  17
HETATM   17  C11 UNL     1      -2.228  15.273  17.070  1.00  0.00     0.086 C 
BRANCH  17  18
HETATM   18  C12 UNL     1      -1.698  14.082  16.353  1.00  0.00     0.032 A 
HETATM   19  C13 UNL     1      -2.053  13.573  15.136  1.00  0.00     0.118 A 
HETATM   20  N3  UNL     1      -1.304  12.491  14.900  1.00  0.00    -0.317 N 
HETATM   21  C14 UNL     1      -0.497  12.340  15.963  1.00  0.00     0.324 A 
ATOM     22  H3  UNL     1      -1.338  11.896  14.073  1.00  0.00     0.170 HD
HETATM   23  O3  UNL     1       0.353  11.407  16.075  1.00  0.00    -0.247 OA
HETATM   24  N4  UNL     1      -0.730  13.310  16.859  1.00  0.00    -0.311 N 
ATOM     25  H4  UNL     1      -0.259  13.436  17.755  1.00  0.00     0.170 HD
ENDBRANCH  17  18
ENDBRANCH  16  17
ENDBRANCH   1  15
TORSDOF 10
ENDMDL
MODEL 4
REMARK VINA RESULT: -6.942554443      1.452      2.019
REMARK  10 active torsions:
REMARK  status: ('A' for Active; 'I' for Inactive)
REMARK    1  A    between atoms: N1_2  and  O1_3 
REMARK    2  A    between atoms: C2_5  and  C3_6 
REMARK    3  A    between atoms: C3_6  and  C4_7 
REMARK    4  A    between atoms: C5_8  and  C6_9 
REMARK    5  A    between atoms: C7_10  and  C8_11 
REMARK    6  A    between atoms: C8_11  and  N2_12 
REMARK    7  A    between atoms: N2_12  and  O2_13 
REMARK    8  A    between atoms: N2_12  and  C9_15 
REMARK    9  A    between atoms: C10_16  and  C11_17 
REMARK   10  A    between atoms: C11_17  and  C12_18 
ROOT
HETATM    1  N2  UNL     1       0.136  17.145  20.106  1.00  0.00    -0.165 NA
ENDROOT
BRANCH   1   2
HETATM    2  C8  UNL     1       0.139  18.598  20.068  1.00  0.00     0.220 C 
BRANCH   2   3
HETATM    3  C7  UNL     1       0.955  19.060  18.921  1.00  0.00    -0.075 C 
HETATM    4  C6  UNL     1       1.604  19.449  17.980  1.00  0.00    -0.014 C 
BRANCH   4   5
HETATM    5  C5  UNL     1       2.347  19.916  16.863  1.00  0.00    -0.015 C 
HETATM    6  C4  UNL     1       2.995  20.300  15.912  1.00  0.00    -0.087 C 
BRANCH   6   7
HETATM    7  C3  UNL     1       3.787  20.740  14.757  1.00  0.00     0.141 C 
BRANCH   7   8
HETATM    8  C2  UNL     1       5.028  19.927  14.695  1.00  0.00     0.101 C 
HETATM    9  N1  UNL     1       5.810  19.948  13.681  1.00  0.00    -0.279 N 
HETATM   10  C1  UNL     1       5.445  20.811  12.565  1.00  0.00     0.184 C 
BRANCH   9  11
HETATM   11  O1  UNL     1       6.932  19.180  13.686  1.00  0.00    -0.289 OA
ATOM     12  H1  UNL     1       7.501  19.091  12.931  1.00  0.00     0.244 HD
ENDBRANCH   9  11
ENDBRANCH   7   8
ENDBRANCH   6   7
ENDBRANCH   4   5
ENDBRANCH   2   3
ENDBRANCH   1   2
BRANCH   1  13
HETATM   13  O2  UNL     1       1.247  16.649  19.520  1.00  0.00    -0.308 OA
ATOM     14  H2  UNL     1       1.210  15.701  19.475  1.00  0.00     0.237 HD
ENDBRANCH   1  13
BRANCH   1  15
HETATM   15  C9  UNL     1      -1.056  16.690  19.482  1.00  0.00     0.087 C 
HETATM   16  C10 UNL     1      -0.971  15.951  18.389  1.00  0.00    -0.007 C 
BRANCH  16  17
HETATM   17  C11 UNL     1      -2.177  15.461  17.715  1.00  0.00     0.086 C 
BRANCH  17  18
HETATM   18  C12 UNL     1      -1.896  14.457  16.653  1.00  0.00     0.032 A 
HETATM   19  C13 UNL     1      -1.279  13.243  16.749  1.00  0.00     0.118 A 
HETATM   20  N3  UNL     1      -1.254  12.689  15.532  1.00  0.00    -0.317 N 
HETATM   21  C14 UNL     1      -1.852  13.557  14.699  1.00  0.00     0.324 A 
ATOM     22  H3  UNL     1      -0.859  11.782  15.283  1.00  0.00     0.170 HD
HETATM   23  O3  UNL     1      -2.004  13.351  13.458  1.00  0.00    -0.247 OA
HETATM   24  N4  UNL     1      -2.250  14.644  15.377  1.00  0.00    -0.311 N 
ATOM     25  H4  UNL     1      -2.730  15.458  14.992  1.00  0.00     0.170 HD
ENDBRANCH  17  18
ENDBRANCH  16  17
ENDBRANCH   1  15
TORSDOF 10
ENDMDL
MODEL 5
REMARK VINA RESULT: -6.927477786      5.784     10.265
REMARK  10 active torsions:
REMARK  status: ('A' for Active; 'I' for Inactive)
REMARK    1  A    between atoms: N1_2  and  O1_3 
REMARK    2  A    between atoms: C2_5  and  C3_6 
REMARK    3  A    between atoms: C3_6  and  C4_7 
REMARK    4  A    between atoms: C5_8  and  C6_9 
REMARK    5  A    between atoms: C7_10  and  C8_11 
REMARK    6  A    between atoms: C8_11  and  N2_12 
REMARK    7  A    between atoms: N2_12  and  O2_13 
REMARK    8  A    between atoms: N2_12  and  C9_15 
REMARK    9  A    between atoms: C10_16  and  C11_17 
REMARK   10  A    between atoms: C11_17  and  C12_18 
ROOT
HETATM    1  N2  UNL     1       0.577  17.263  19.941  1.00  0.00    -0.165 NA
ENDROOT
BRANCH   1   2
HETATM    2  C8  UNL     1       0.400  18.518  20.653  1.00  0.00     0.220 C 
BRANCH   2   3
HETATM    3  C7  UNL     1      -0.765  18.410  21.562  1.00  0.00    -0.075 C 
HETATM    4  C6  UNL     1      -1.705  18.335  22.315  1.00  0.00    -0.014 C 
BRANCH   4   5
HETATM    5  C5  UNL     1      -2.799  18.259  23.219  1.00  0.00    -0.015 C 
HETATM    6  C4  UNL     1      -3.733  18.214  23.991  1.00  0.00    -0.087 C 
BRANCH   6   7
HETATM    7  C3  UNL     1      -4.872  18.183  24.916  1.00  0.00     0.141 C 
BRANCH   7   8
HETATM    8  C2  UNL     1      -4.806  16.930  25.710  1.00  0.00     0.101 C 
HETATM    9  N1  UNL     1      -5.741  16.576  26.510  1.00  0.00    -0.279 N 
HETATM   10  C1  UNL     1      -6.900  17.453  26.623  1.00  0.00     0.184 C 
BRANCH   9  11
HETATM   11  O1  UNL     1      -5.620  15.415  27.207  1.00  0.00    -0.289 OA
ATOM     12  H1  UNL     1      -4.788  15.094  27.535  1.00  0.00     0.244 HD
ENDBRANCH   9  11
ENDBRANCH   7   8
ENDBRANCH   6   7
ENDBRANCH   4   5
ENDBRANCH   2   3
ENDBRANCH   1   2
BRANCH   1  13
HETATM   13  O2  UNL     1       1.618  17.340  19.086  1.00  0.00    -0.308 OA
ATOM     14  H2  UNL     1       1.347  17.118  18.203  1.00  0.00     0.237 HD
ENDBRANCH   1  13
BRANCH   1  15
HETATM   15  C9  UNL     1      -0.644  16.953  19.285  1.00  0.00     0.087 C 
HETATM   16  C10 UNL     1      -0.705  15.885  18.508  1.00  0.00    -0.007 C 
BRANCH  16  17
HETATM   17  C11 UNL     1      -1.945  15.529  17.813  1.00  0.00     0.086 C 
BRANCH  17  18
HETATM   18  C12 UNL     1      -1.758  14.501  16.754  1.00  0.00     0.032 A 
HETATM   19  C13 UNL     1      -1.172  13.270  16.834  1.00  0.00     0.118 A 
HETATM   20  N3  UNL     1      -1.236  12.697  15.627  1.00  0.00    -0.317 N 
HETATM   21  C14 UNL     1      -1.856  13.570  14.817  1.00  0.00     0.324 A 
ATOM     22  H3  UNL     1      -0.882  11.775  15.372  1.00  0.00     0.170 HD
HETATM   23  O3  UNL     1      -2.088  13.349  13.591  1.00  0.00    -0.247 OA
HETATM   24  N4  UNL     1      -2.181  14.679  15.498  1.00  0.00    -0.311 N 
ATOM     25  H4  UNL     1      -2.660  15.500  15.128  1.00  0.00     0.170 HD
ENDBRANCH  17  18
ENDBRANCH  16  17
ENDBRANCH   1  15
TORSDOF 10
ENDMDL
