MODEL 1
REMARK VINA RESULT: -6.360048991      0.000      0.000
REMARK  10 active torsions:
REMARK  status: ('A' for Active; 'I' for Inactive)
REMARK    1  A    between atoms: N1_2  and  C3_5 
REMARK    2  A    between atoms: C4_6  and  C5_7 
REMARK       I    between atoms: C5_7  and  N2_9 
REMARK    3  A    between atoms: N2_9  and  C6_11 
REMARK    4  A    between atoms: C6_11  and  C7_12 
REMARK    5  A    between atoms: C7_12  and  C8_13 
REMARK    6  A    between atoms: C7_12  and  N5_23 
REMARK    7  A    between atoms: C8_13  and  C9_14 
REMARK    8  A    between atoms: C9_14  and  O3_15 
REMARK    9  A    between atoms: C9_14  and  C10_17 
REMARK   10  A    between atoms: C10_17  and  N3_18 
ROOT
HETATM    1  C7  UNL     1     -10.710  22.385  49.507  1.00  0.00     0.210 C 
ENDROOT
BRANCH   1   2
HETATM    2  C6  UNL     1     -10.908  23.135  48.232  1.00  0.00     0.156 C 
BRANCH   2   3
HETATM    3  N2  UNL     1      -9.842  23.001  47.249  1.00  0.00    -0.356 N 
HETATM    4  C5  UNL     1      -9.617  24.022  46.287  1.00  0.00     0.243 C 
HETATM    5  O2  UNL     1     -10.362  25.067  46.291  1.00  0.00    -0.269 OA
ATOM      6  H2  UNL     1      -9.253  22.168  47.251  1.00  0.00     0.162 HD
BRANCH   4   7
HETATM    7  C4  UNL     1      -8.587  23.956  45.291  1.00  0.00     0.108 C 
HETATM    8  C3  UNL     1      -7.886  24.987  44.904  1.00  0.00     0.278 C 
BRANCH   8   9
HETATM    9  N1  UNL     1      -6.858  24.848  43.891  1.00  0.00     0.028 N 
HETATM   10  C1  UNL     1      -5.547  25.025  44.488  1.00  0.00     0.362 C 
HETATM   11  C2  UNL     1      -7.101  25.857  42.879  1.00  0.00     0.362 C 
HETATM   12  O1  UNL     1      -6.988  23.634  43.312  1.00  0.00    -0.061 OA
ENDBRANCH   8   9
ENDBRANCH   4   7
ENDBRANCH   2   3
ENDBRANCH   1   2
BRANCH   1  13
HETATM   13  C8  UNL     1      -9.526  21.507  49.303  1.00  0.00     0.072 C 
BRANCH  13  14
HETATM   14  C9  UNL     1      -9.801  20.057  49.030  1.00  0.00     0.160 C 
BRANCH  14  15
HETATM   15  O3  UNL     1      -9.214  19.780  47.723  1.00  0.00    -0.390 OA
ATOM     16  H3  UNL     1      -9.247  18.836  47.619  1.00  0.00     0.210 HD
ENDBRANCH  14  15
BRANCH  14  17
HETATM   17  C10 UNL     1      -9.045  19.074  49.894  1.00  0.00     0.111 C 
BRANCH  17  18
HETATM   18  N3  UNL     1      -9.657  17.865  50.219  1.00  0.00    -0.320 N 
HETATM   19  N4  UNL     1      -9.311  17.138  51.178  1.00  0.00    -0.346 N 
ATOM     20  H42 UNL     1      -8.530  17.465  51.747  1.00  0.00     0.176 HD
ATOM     21  H41 UNL     1      -9.759  16.252  51.415  1.00  0.00     0.176 HD
ATOM     22  H3  UNL     1     -10.436  17.554  49.639  1.00  0.00     0.185 HD
ENDBRANCH  17  18
ENDBRANCH  14  17
ENDBRANCH  13  14
ENDBRANCH   1  13
BRANCH   1  23
HETATM   23  N5  UNL     1     -10.599  23.218  50.693  1.00  0.00    -0.065 N 
HETATM   24  C11 UNL     1      -9.675  22.528  51.581  1.00  0.00     0.273 C 
HETATM   25  C12 UNL     1     -10.020  24.499  50.310  1.00  0.00     0.237 C 
HETATM   26  C13 UNL     1      -9.784  25.437  51.446  1.00  0.00     0.028 C 
HETATM   27  C14 UNL     1     -11.065  25.745  52.134  1.00  0.00     0.003 C 
HETATM   28  C15 UNL     1     -12.168  24.947  51.540  1.00  0.00     0.028 C 
HETATM   29  C16 UNL     1     -11.792  23.459  51.412  1.00  0.00     0.237 C 
ENDBRANCH   1  23
TORSDOF 10
ENDMDL
MODEL 2
REMARK VINA RESULT: -6.216674729      1.322      1.878
REMARK  10 active torsions:
REMARK  status: ('A' for Active; 'I' for Inactive)
REMARK    1  A    between atoms: N1_2  and  C3_5 
REMARK    2  A    between atoms: C4_6  and  C5_7 
REMARK       I    between atoms: C5_7  and  N2_9 
REMARK    3  A    between atoms: N2_9  and  C6_11 
REMARK    4  A    between atoms: C6_11  and  C7_12 
REMARK    5  A    between atoms: C7_12  and  C8_13 
REMARK    6  A    between atoms: C7_12  and  N5_23 
REMARK    7  A    between atoms: C8_13  and  C9_14 
REMARK    8  A    between atoms: C9_14  and  O3_15 
REMARK    9  A    between atoms: C9_14  and  C10_17 
REMARK   10  A    between atoms: C10_17  and  N3_18 
ROOT
HETATM    1  C7  UNL     1     -10.633  23.121  48.254  1.00  0.00     0.210 C 
ENDROOT
BRANCH   1   2
HETATM    2  C6  UNL     1     -10.406  23.930  47.021  1.00  0.00     0.156 C 
BRANCH   2   3
HETATM    3  N2  UNL     1      -9.212  23.595  46.258  1.00  0.00    -0.356 N 
HETATM    4  C5  UNL     1      -8.783  24.427  45.191  1.00  0.00     0.243 C 
HETATM    5  O2  UNL     1      -9.455  25.481  44.902  1.00  0.00    -0.269 OA
ATOM      6  H2  UNL     1      -8.681  22.756  46.492  1.00  0.00     0.162 HD
BRANCH   4   7
HETATM    7  C4  UNL     1      -7.618  24.158  44.398  1.00  0.00     0.108 C 
HETATM    8  C3  UNL     1      -6.618  24.988  44.272  1.00  0.00     0.278 C 
BRANCH   8   9
HETATM    9  N1  UNL     1      -5.471  24.650  43.453  1.00  0.00     0.028 N 
HETATM   10  C1  UNL     1      -4.704  25.847  43.156  1.00  0.00     0.362 C 
HETATM   11  C2  UNL     1      -5.967  24.044  42.233  1.00  0.00     0.362 C 
HETATM   12  O1  UNL     1      -4.732  23.729  44.109  1.00  0.00    -0.061 OA
ENDBRANCH   8   9
ENDBRANCH   4   7
ENDBRANCH   2   3
ENDBRANCH   1   2
BRANCH   1  13
HETATM   13  C8  UNL     1      -9.437  22.252  48.418  1.00  0.00     0.072 C 
BRANCH  13  14
HETATM   14  C9  UNL     1      -9.690  20.812  48.758  1.00  0.00     0.160 C 
BRANCH  14  15
HETATM   15  O3  UNL     1      -9.134  20.039  47.652  1.00  0.00    -0.390 OA
ATOM     16  H3  UNL     1      -8.787  20.677  47.040  1.00  0.00     0.210 HD
ENDBRANCH  14  15
BRANCH  14  17
HETATM   17  C10 UNL     1      -8.891  20.264  49.918  1.00  0.00     0.111 C 
BRANCH  17  18
HETATM   18  N3  UNL     1      -9.211  18.999  50.408  1.00  0.00    -0.320 N 
HETATM   19  N4  UNL     1      -8.836  17.926  49.882  1.00  0.00    -0.346 N 
ATOM     20  H42 UNL     1      -8.261  18.000  49.043  1.00  0.00     0.176 HD
ATOM     21  H41 UNL     1      -9.071  17.000  50.241  1.00  0.00     0.176 HD
ATOM     22  H3  UNL     1      -9.787  18.944  51.247  1.00  0.00     0.185 HD
ENDBRANCH  17  18
ENDBRANCH  14  17
ENDBRANCH  13  14
ENDBRANCH   1  13
BRANCH   1  23
HETATM   23  N5  UNL     1     -10.937  23.896  49.445  1.00  0.00    -0.065 N 
HETATM   24  C11 UNL     1     -10.844  25.293  49.048  1.00  0.00     0.273 C 
HETATM   25  C12 UNL     1     -12.308  23.609  49.850  1.00  0.00     0.237 C 
HETATM   26  C13 UNL     1     -12.782  24.392  51.028  1.00  0.00     0.028 C 
HETATM   27  C14 UNL     1     -11.928  24.110  52.212  1.00  0.00     0.003 C 
HETATM   28  C15 UNL     1     -10.807  23.213  51.830  1.00  0.00     0.028 C 
HETATM   29  C16 UNL     1     -10.089  23.706  50.560  1.00  0.00     0.237 C 
ENDBRANCH   1  23
TORSDOF 10
ENDMDL
MODEL 3
REMARK VINA RESULT: -6.162110044      1.026      1.374
REMARK  10 active torsions:
REMARK  status: ('A' for Active; 'I' for Inactive)
REMARK    1  A    between atoms: N1_2  and  C3_5 
REMARK    2  A    between atoms: C4_6  and  C5_7 
REMARK       I    between atoms: C5_7  and  N2_9 
REMARK    3  A    between atoms: N2_9  and  C6_11 
REMARK    4  A    between atoms: C6_11  and  C7_12 
REMARK    5  A    between atoms: C7_12  and  C8_13 
REMARK    6  A    between atoms: C7_12  and  N5_23 
REMARK    7  A    between atoms: C8_13  and  C9_14 
REMARK    8  A    between atoms: C9_14  and  O3_15 
REMARK    9  A    between atoms: C9_14  and  C10_17 
REMARK   10  A    between atoms: C10_17  and  N3_18 
ROOT
HETATM    1  C7  UNL     1     -11.065  22.791  49.666  1.00  0.00     0.210 C 
ENDROOT
BRANCH   1   2
HETATM    2  C6  UNL     1     -11.351  23.154  48.247  1.00  0.00     0.156 C 
BRANCH   2   3
HETATM    3  N2  UNL     1     -10.202  23.159  47.353  1.00  0.00    -0.356 N 
HETATM    4  C5  UNL     1      -9.920  24.295  46.548  1.00  0.00     0.243 C 
HETATM    5  O2  UNL     1     -10.688  25.320  46.614  1.00  0.00    -0.269 OA
ATOM      6  H2  UNL     1      -9.595  22.340  47.305  1.00  0.00     0.162 HD
BRANCH   4   7
HETATM    7  C4  UNL     1      -8.807  24.368  45.647  1.00  0.00     0.108 C 
HETATM    8  C3  UNL     1      -8.897  24.793  44.415  1.00  0.00     0.278 C 
BRANCH   8   9
HETATM    9  N1  UNL     1      -7.728  24.840  43.559  1.00  0.00     0.028 N 
HETATM   10  C1  UNL     1      -6.670  25.596  44.206  1.00  0.00     0.362 C 
HETATM   11  C2  UNL     1      -8.122  25.473  42.315  1.00  0.00     0.362 C 
HETATM   12  O1  UNL     1      -7.347  23.574  43.283  1.00  0.00    -0.061 OA
ENDBRANCH   8   9
ENDBRANCH   4   7
ENDBRANCH   2   3
ENDBRANCH   1   2
BRANCH   1  13
HETATM   13  C8  UNL     1      -9.693  22.217  49.688  1.00  0.00     0.072 C 
BRANCH  13  14
HETATM   14  C9  UNL     1      -9.586  20.721  49.625  1.00  0.00     0.160 C 
BRANCH  14  15
HETATM   15  O3  UNL     1      -9.179  20.409  48.259  1.00  0.00    -0.390 OA
ATOM     16  H3  UNL     1      -9.914  19.952  47.868  1.00  0.00     0.210 HD
ENDBRANCH  14  15
BRANCH  14  17
HETATM   17  C10 UNL     1      -8.445  20.113  50.407  1.00  0.00     0.111 C 
BRANCH  17  18
HETATM   18  N3  UNL     1      -8.515  18.764  50.748  1.00  0.00    -0.320 N 
HETATM   19  N4  UNL     1      -8.899  17.861  49.969  1.00  0.00    -0.346 N 
ATOM     20  H42 UNL     1      -9.174  18.149  49.030  1.00  0.00     0.176 HD
ATOM     21  H41 UNL     1      -8.951  16.874  50.219  1.00  0.00     0.176 HD
ATOM     22  H3  UNL     1      -8.236  18.495  51.691  1.00  0.00     0.185 HD
ENDBRANCH  17  18
ENDBRANCH  14  17
ENDBRANCH  13  14
ENDBRANCH   1  13
BRANCH   1  23
HETATM   23  N5  UNL     1     -11.243  23.872  50.620  1.00  0.00    -0.065 N 
HETATM   24  C11 UNL     1     -10.140  24.794  50.390  1.00  0.00     0.273 C 
HETATM   25  C12 UNL     1     -12.498  24.552  50.326  1.00  0.00     0.237 C 
HETATM   26  C13 UNL     1     -12.779  25.735  51.189  1.00  0.00     0.028 C 
HETATM   27  C14 UNL     1     -12.851  25.325  52.617  1.00  0.00     0.003 C 
HETATM   28  C15 UNL     1     -12.521  23.882  52.750  1.00  0.00     0.028 C 
HETATM   29  C16 UNL     1     -11.233  23.518  51.989  1.00  0.00     0.237 C 
ENDBRANCH   1  23
TORSDOF 10
ENDMDL
MODEL 4
REMARK VINA RESULT: -6.126008021      2.004      2.671
REMARK  10 active torsions:
REMARK  status: ('A' for Active; 'I' for Inactive)
REMARK    1  A    between atoms: N1_2  and  C3_5 
REMARK    2  A    between atoms: C4_6  and  C5_7 
REMARK       I    between atoms: C5_7  and  N2_9 
REMARK    3  A    between atoms: N2_9  and  C6_11 
REMARK    4  A    between atoms: C6_11  and  C7_12 
REMARK    5  A    between atoms: C7_12  and  C8_13 
REMARK    6  A    between atoms: C7_12  and  N5_23 
REMARK    7  A    between atoms: C8_13  and  C9_14 
REMARK    8  A    between atoms: C9_14  and  O3_15 
REMARK    9  A    between atoms: C9_14  and  C10_17 
REMARK   10  A    between atoms: C10_17  and  N3_18 
ROOT
HETATM    1  C7  UNL     1     -10.282  22.517  48.643  1.00  0.00     0.210 C 
ENDROOT
BRANCH   1   2
HETATM    2  C6  UNL     1      -9.393  23.191  47.651  1.00  0.00     0.156 C 
BRANCH   2   3
HETATM    3  N2  UNL     1     -10.068  23.847  46.542  1.00  0.00    -0.356 N 
HETATM    4  C5  UNL     1      -9.501  23.827  45.240  1.00  0.00     0.243 C 
HETATM    5  O2  UNL     1      -8.385  23.223  45.047  1.00  0.00    -0.269 OA
ATOM      6  H2  UNL     1     -10.956  24.325  46.700  1.00  0.00     0.162 HD
BRANCH   4   7
HETATM    7  C4  UNL     1     -10.111  24.452  44.102  1.00  0.00     0.108 C 
HETATM    8  C3  UNL     1     -10.338  25.735  44.014  1.00  0.00     0.278 C 
BRANCH   8   9
HETATM    9  N1  UNL     1     -10.959  26.299  42.832  1.00  0.00     0.028 N 
HETATM   10  C1  UNL     1     -11.322  25.239  41.909  1.00  0.00     0.362 C 
HETATM   11  C2  UNL     1     -10.002  27.203  42.224  1.00  0.00     0.362 C 
HETATM   12  O1  UNL     1     -12.034  27.022  43.216  1.00  0.00    -0.061 OA
ENDBRANCH   8   9
ENDBRANCH   4   7
ENDBRANCH   2   3
ENDBRANCH   1   2
BRANCH   1  13
HETATM   13  C8  UNL     1      -9.462  21.468  49.305  1.00  0.00     0.072 C 
BRANCH  13  14
HETATM   14  C9  UNL     1      -9.814  20.042  48.996  1.00  0.00     0.160 C 
BRANCH  14  15
HETATM   15  O3  UNL     1      -9.262  19.774  47.671  1.00  0.00    -0.390 OA
ATOM     16  H3  UNL     1      -9.209  18.829  47.599  1.00  0.00     0.210 HD
ENDBRANCH  14  15
BRANCH  14  17
HETATM   17  C10 UNL     1      -9.094  18.998  49.818  1.00  0.00     0.111 C 
BRANCH  17  18
HETATM   18  N3  UNL     1      -9.782  17.840  50.174  1.00  0.00    -0.320 N 
HETATM   19  N4  UNL     1      -9.441  17.078  51.108  1.00  0.00    -0.346 N 
ATOM     20  H42 UNL     1      -8.604  17.336  51.630  1.00  0.00     0.176 HD
ATOM     21  H41 UNL     1      -9.945  16.230  51.368  1.00  0.00     0.176 HD
ATOM     22  H3  UNL     1     -10.617  17.598  49.641  1.00  0.00     0.185 HD
ENDBRANCH  17  18
ENDBRANCH  14  17
ENDBRANCH  13  14
ENDBRANCH   1  13
BRANCH   1  23
HETATM   23  N5  UNL     1     -10.928  23.411  49.589  1.00  0.00    -0.065 N 
HETATM   24  C11 UNL     1     -12.341  23.410  49.241  1.00  0.00     0.273 C 
HETATM   25  C12 UNL     1     -10.770  22.863  50.930  1.00  0.00     0.237 C 
HETATM   26  C13 UNL     1     -11.446  23.647  52.004  1.00  0.00     0.028 C 
HETATM   27  C14 UNL     1     -10.904  25.031  52.051  1.00  0.00     0.003 C 
HETATM   28  C15 UNL     1      -9.928  25.233  50.949  1.00  0.00     0.028 C 
HETATM   29  C16 UNL     1     -10.486  24.754  49.597  1.00  0.00     0.237 C 
ENDBRANCH   1  23
TORSDOF 10
ENDMDL
MODEL 5
REMARK VINA RESULT: -6.117681555      4.222      7.082
REMARK  10 active torsions:
REMARK  status: ('A' for Active; 'I' for Inactive)
REMARK    1  A    between atoms: N1_2  and  C3_5 
REMARK    2  A    between atoms: C4_6  and  C5_7 
REMARK       I    between atoms: C5_7  and  N2_9 
REMARK    3  A    between atoms: N2_9  and  C6_11 
REMARK    4  A    between atoms: C6_11  and  C7_12 
REMARK    5  A    between atoms: C7_12  and  C8_13 
REMARK    6  A    between atoms: C7_12  and  N5_23 
REMARK    7  A    between atoms: C8_13  and  C9_14 
REMARK    8  A    between atoms: C9_14  and  O3_15 
REMARK    9  A    between atoms: C9_14  and  C10_17 
REMARK   10  A    between atoms: C10_17  and  N3_18 
ROOT
HETATM    1  C7  UNL     1     -13.457  25.021  52.280  1.00  0.00     0.210 C 
ENDROOT
BRANCH   1   2
HETATM    2  C6  UNL     1     -12.108  24.702  52.833  1.00  0.00     0.156 C 
BRANCH   2   3
HETATM    3  N2  UNL     1     -11.540  23.428  52.415  1.00  0.00    -0.356 N 
HETATM    4  C5  UNL     1     -10.336  23.389  51.664  1.00  0.00     0.243 C 
HETATM    5  O2  UNL     1      -9.749  24.487  51.354  1.00  0.00    -0.269 OA
ATOM      6  H2  UNL     1     -12.010  22.558  52.665  1.00  0.00     0.162 HD
BRANCH   4   7
HETATM    7  C4  UNL     1      -9.721  22.171  51.219  1.00  0.00     0.108 C 
HETATM    8  C3  UNL     1     -10.021  21.575  50.097  1.00  0.00     0.278 C 
BRANCH   8   9
HETATM    9  N1  UNL     1      -9.358  20.345  49.709  1.00  0.00     0.028 N 
HETATM   10  C1  UNL     1      -8.143  20.171  50.486  1.00  0.00     0.362 C 
HETATM   11  C2  UNL     1      -9.053  20.438  48.295  1.00  0.00     0.362 C 
HETATM   12  O1  UNL     1     -10.219  19.320  49.887  1.00  0.00    -0.061 OA
ENDBRANCH   8   9
ENDBRANCH   4   7
ENDBRANCH   2   3
ENDBRANCH   1   2
BRANCH   1  13
HETATM   13  C8  UNL     1     -14.321  25.363  53.441  1.00  0.00     0.072 C 
BRANCH  13  14
HETATM   14  C9  UNL     1     -15.144  24.249  54.020  1.00  0.00     0.160 C 
BRANCH  14  15
HETATM   15  O3  UNL     1     -15.026  24.381  55.469  1.00  0.00    -0.390 OA
ATOM     16  H3  UNL     1     -15.339  23.559  55.829  1.00  0.00     0.210 HD
ENDBRANCH  14  15
BRANCH  14  17
HETATM   17  C10 UNL     1     -16.639  24.381  53.844  1.00  0.00     0.111 C 
BRANCH  17  18
HETATM   18  N3  UNL     1     -17.459  24.189  54.954  1.00  0.00    -0.320 N 
HETATM   19  N4  UNL     1     -17.787  23.065  55.400  1.00  0.00    -0.346 N 
ATOM     20  H42 UNL     1     -17.422  22.250  54.908  1.00  0.00     0.176 HD
ATOM     21  H41 UNL     1     -18.388  22.925  56.213  1.00  0.00     0.176 HD
ATOM     22  H3  UNL     1     -17.815  25.016  55.433  1.00  0.00     0.185 HD
ENDBRANCH  17  18
ENDBRANCH  14  17
ENDBRANCH  13  14
ENDBRANCH   1  13
BRANCH   1  23
HETATM   23  N5  UNL     1     -13.465  26.044  51.247  1.00  0.00    -0.065 N 
HETATM   24  C11 UNL     1     -12.284  26.860  51.482  1.00  0.00     0.273 C 
HETATM   25  C12 UNL     1     -13.342  25.394  49.948  1.00  0.00     0.237 C 
HETATM   26  C13 UNL     1     -13.268  26.333  48.791  1.00  0.00     0.028 C 
HETATM   27  C14 UNL     1     -14.497  27.168  48.726  1.00  0.00     0.003 C 
HETATM   28  C15 UNL     1     -15.372  26.878  49.891  1.00  0.00     0.028 C 
HETATM   29  C16 UNL     1     -14.587  26.904  51.215  1.00  0.00     0.237 C 
ENDBRANCH   1  23
TORSDOF 10
ENDMDL
