MODEL 1
REMARK VINA RESULT: -5.854105178      0.000      0.000
REMARK  9 active torsions:
REMARK  status: ('A' for Active; 'I' for Inactive)
REMARK    1  A    between atoms: C2_2  and  C3_3 
REMARK    2  A    between atoms: C3_3  and  N1_4 
REMARK    3  A    between atoms: C5_6  and  C6_7 
REMARK    4  A    between atoms: C7_8  and  C8_9 
REMARK    5  A    between atoms: C8_9  and  N2_10 
REMARK    6  A    between atoms: N2_10  and  C9_11 
REMARK    7  A    between atoms: C9_11  and  C10_12 
REMARK    8  A    between atoms: C10_12  and  N3_13 
REMARK    9  A    between atoms: N3_13  and  C11_15 
ROOT
HETATM    1  N2  UNL     1     -10.667  23.269  49.813  1.00  0.00     0.020 N 
HETATM    2  C12 UNL     1     -12.029  23.162  49.394  1.00  0.00     0.269 C 
HETATM    3  C13 UNL     1     -12.342  24.369  48.546  1.00  0.00     0.153 C 
HETATM    4  N4  UNL     1     -11.349  25.334  48.988  1.00  0.00    -0.335 N 
ATOM      5  H4  UNL     1     -11.436  26.351  48.992  1.00  0.00     0.164 HD
HETATM    6  C14 UNL     1     -10.233  24.564  49.414  1.00  0.00     0.415 C 
HETATM    7  O2  UNL     1      -9.038  24.980  49.431  1.00  0.00    -0.239 OA
ENDROOT
BRANCH   1   8
HETATM    8  C8  UNL     1     -10.575  23.204  51.264  1.00  0.00     0.277 C 
BRANCH   8   9
HETATM    9  C7  UNL     1     -11.813  23.738  51.908  1.00  0.00    -0.001 C 
HETATM   10  C6  UNL     1     -11.792  24.674  52.825  1.00  0.00    -0.003 C 
BRANCH  10  11
HETATM   11  C5  UNL     1     -13.036  25.190  53.452  1.00  0.00     0.124 C 
HETATM   12  C4  UNL     1     -14.199  24.239  53.303  1.00  0.00     0.154 C 
HETATM   13  N1  UNL     1     -15.353  25.142  53.325  1.00  0.00    -0.353 N 
HETATM   14  C15 UNL     1     -14.913  26.314  52.650  1.00  0.00     0.170 C 
HETATM   15  N5  UNL     1     -13.495  26.421  52.820  1.00  0.00    -0.358 N 
HETATM   16  S1  UNL     1     -15.902  27.347  51.823  1.00  0.00    -0.041 SA
ATOM     17  H5  UNL     1     -12.913  27.213  52.549  1.00  0.00     0.162 HD
BRANCH  13  18
HETATM   18  C3  UNL     1     -16.655  24.894  53.908  1.00  0.00     0.151 C 
BRANCH  18  19
HETATM   19  C2  UNL     1     -16.756  23.519  54.404  1.00  0.00    -0.017 C 
HETATM   20  C1  UNL     1     -17.694  23.189  55.284  1.00  0.00     0.008 C 
ENDBRANCH  18  19
ENDBRANCH  13  18
ENDBRANCH  10  11
ENDBRANCH   8   9
ENDBRANCH   1   8
BRANCH   1  21
HETATM   21  C9  UNL     1      -9.827  22.252  49.240  1.00  0.00     0.269 C 
BRANCH  21  22
HETATM   22  C10 UNL     1      -9.451  21.271  50.330  1.00  0.00     0.150 C 
BRANCH  22  23
HETATM   23  N3  UNL     1      -8.711  20.176  49.728  1.00  0.00    -0.367 N 
ATOM     24  H3  UNL     1      -7.763  20.317  49.377  1.00  0.00     0.161 HD
BRANCH  23  25
HETATM   25  C11 UNL     1      -9.334  18.912  49.642  1.00  0.00     0.348 C 
HETATM   26  O1  UNL     1      -8.667  17.860  49.632  1.00  0.00    -0.284 OA
ENDBRANCH  23  25
ENDBRANCH  22  23
ENDBRANCH  21  22
ENDBRANCH   1  21
TORSDOF 9
ENDMDL
MODEL 2
REMARK VINA RESULT: -5.512110385      1.742      1.893
REMARK  9 active torsions:
REMARK  status: ('A' for Active; 'I' for Inactive)
REMARK    1  A    between atoms: C2_2  and  C3_3 
REMARK    2  A    between atoms: C3_3  and  N1_4 
REMARK    3  A    between atoms: C5_6  and  C6_7 
REMARK    4  A    between atoms: C7_8  and  C8_9 
REMARK    5  A    between atoms: C8_9  and  N2_10 
REMARK    6  A    between atoms: N2_10  and  C9_11 
REMARK    7  A    between atoms: C9_11  and  C10_12 
REMARK    8  A    between atoms: C10_12  and  N3_13 
REMARK    9  A    between atoms: N3_13  and  C11_15 
ROOT
HETATM    1  N2  UNL     1     -10.722  23.707  49.050  1.00  0.00     0.020 N 
HETATM    2  C12 UNL     1     -12.134  23.542  48.910  1.00  0.00     0.269 C 
HETATM    3  C13 UNL     1     -12.677  24.787  48.254  1.00  0.00     0.153 C 
HETATM    4  N4  UNL     1     -11.662  25.779  48.569  1.00  0.00    -0.335 N 
ATOM      5  H4  UNL     1     -11.796  26.785  48.682  1.00  0.00     0.164 HD
HETATM    6  C14 UNL     1     -10.445  25.055  48.688  1.00  0.00     0.415 C 
HETATM    7  O2  UNL     1      -9.294  25.547  48.499  1.00  0.00    -0.239 OA
ENDROOT
BRANCH   1   8
HETATM    8  C8  UNL     1     -10.326  23.536  50.440  1.00  0.00     0.277 C 
BRANCH   8   9
HETATM    9  C7  UNL     1     -11.519  23.469  51.337  1.00  0.00    -0.001 C 
HETATM   10  C6  UNL     1     -11.634  24.190  52.426  1.00  0.00    -0.003 C 
BRANCH  10  11
HETATM   11  C5  UNL     1     -12.831  24.105  53.302  1.00  0.00     0.124 C 
HETATM   12  C4  UNL     1     -13.761  25.282  53.130  1.00  0.00     0.154 C 
HETATM   13  N1  UNL     1     -14.407  25.370  54.442  1.00  0.00    -0.353 N 
HETATM   14  C15 UNL     1     -13.393  25.011  55.374  1.00  0.00     0.170 C 
HETATM   15  N5  UNL     1     -12.475  24.132  54.715  1.00  0.00    -0.358 N 
HETATM   16  S1  UNL     1     -13.327  25.540  56.937  1.00  0.00    -0.041 SA
ATOM     17  H5  UNL     1     -11.711  23.618  55.155  1.00  0.00     0.162 HD
BRANCH  13  18
HETATM   18  C3  UNL     1     -15.777  25.743  54.727  1.00  0.00     0.151 C 
BRANCH  18  19
HETATM   19  C2  UNL     1     -16.716  24.813  54.095  1.00  0.00    -0.017 C 
HETATM   20  C1  UNL     1     -16.819  23.562  54.528  1.00  0.00     0.008 C 
ENDBRANCH  18  19
ENDBRANCH  13  18
ENDBRANCH  10  11
ENDBRANCH   8   9
ENDBRANCH   1   8
BRANCH   1  21
HETATM   21  C9  UNL     1      -9.970  22.796  48.229  1.00  0.00     0.269 C 
BRANCH  21  22
HETATM   22  C10 UNL     1      -9.593  21.595  49.070  1.00  0.00     0.150 C 
BRANCH  22  23
HETATM   23  N3  UNL     1     -10.299  20.434  48.557  1.00  0.00    -0.367 N 
ATOM     24  H3  UNL     1     -11.055  20.540  47.880  1.00  0.00     0.161 HD
BRANCH  23  25
HETATM   25  C11 UNL     1      -9.914  19.156  49.017  1.00  0.00     0.348 C 
HETATM   26  O1  UNL     1      -8.861  18.988  49.661  1.00  0.00    -0.284 OA
ENDBRANCH  23  25
ENDBRANCH  22  23
ENDBRANCH  21  22
ENDBRANCH   1  21
TORSDOF 9
ENDMDL
MODEL 3
REMARK VINA RESULT: -5.377329728      4.791      8.474
REMARK  9 active torsions:
REMARK  status: ('A' for Active; 'I' for Inactive)
REMARK    1  A    between atoms: C2_2  and  C3_3 
REMARK    2  A    between atoms: C3_3  and  N1_4 
REMARK    3  A    between atoms: C5_6  and  C6_7 
REMARK    4  A    between atoms: C7_8  and  C8_9 
REMARK    5  A    between atoms: C8_9  and  N2_10 
REMARK    6  A    between atoms: N2_10  and  C9_11 
REMARK    7  A    between atoms: C9_11  and  C10_12 
REMARK    8  A    between atoms: C10_12  and  N3_13 
REMARK    9  A    between atoms: N3_13  and  C11_15 
ROOT
HETATM    1  N2  UNL     1     -10.689  23.364  49.866  1.00  0.00     0.020 N 
HETATM    2  C12 UNL     1     -10.394  23.473  51.259  1.00  0.00     0.269 C 
HETATM    3  C13 UNL     1     -11.703  23.625  51.993  1.00  0.00     0.153 C 
HETATM    4  N4  UNL     1     -12.585  24.146  50.961  1.00  0.00    -0.335 N 
ATOM      5  H4  UNL     1     -13.398  24.750  51.091  1.00  0.00     0.164 HD
HETATM    6  C14 UNL     1     -12.079  23.638  49.734  1.00  0.00     0.415 C 
HETATM    7  O2  UNL     1     -12.770  23.461  48.689  1.00  0.00    -0.239 OA
ENDROOT
BRANCH   1   8
HETATM    8  C8  UNL     1      -9.969  24.381  49.113  1.00  0.00     0.277 C 
BRANCH   8   9
HETATM    9  C7  UNL     1      -9.587  23.881  47.757  1.00  0.00    -0.001 C 
HETATM   10  C6  UNL     1      -9.374  24.677  46.738  1.00  0.00    -0.003 C 
BRANCH  10  11
HETATM   11  C5  UNL     1      -8.995  24.156  45.400  1.00  0.00     0.124 C 
HETATM   12  C4  UNL     1      -7.645  24.653  44.943  1.00  0.00     0.154 C 
HETATM   13  N1  UNL     1      -7.775  24.631  43.484  1.00  0.00    -0.353 N 
HETATM   14  C15 UNL     1      -9.126  25.000  43.232  1.00  0.00     0.170 C 
HETATM   15  N5  UNL     1      -9.913  24.604  44.360  1.00  0.00    -0.358 N 
HETATM   16  S1  UNL     1      -9.651  25.754  41.859  1.00  0.00    -0.041 SA
ATOM     17  H5  UNL     1     -10.931  24.631  44.425  1.00  0.00     0.162 HD
BRANCH  13  18
HETATM   18  C3  UNL     1      -6.752  24.306  42.513  1.00  0.00     0.151 C 
BRANCH  18  19
HETATM   19  C2  UNL     1      -5.422  24.318  43.125  1.00  0.00    -0.017 C 
HETATM   20  C1  UNL     1      -4.342  24.060  42.396  1.00  0.00     0.008 C 
ENDBRANCH  18  19
ENDBRANCH  13  18
ENDBRANCH  10  11
ENDBRANCH   8   9
ENDBRANCH   1   8
BRANCH   1  21
HETATM   21  C9  UNL     1     -10.373  22.068  49.328  1.00  0.00     0.269 C 
BRANCH  21  22
HETATM   22  C10 UNL     1      -9.487  21.342  50.318  1.00  0.00     0.150 C 
BRANCH  22  23
HETATM   23  N3  UNL     1      -8.883  20.204  49.647  1.00  0.00    -0.367 N 
ATOM     24  H3  UNL     1      -8.493  20.298  48.709  1.00  0.00     0.161 HD
BRANCH  23  25
HETATM   25  C11 UNL     1      -8.848  18.966  50.324  1.00  0.00     0.348 C 
HETATM   26  O1  UNL     1      -8.704  17.893  49.707  1.00  0.00    -0.284 OA
ENDBRANCH  23  25
ENDBRANCH  22  23
ENDBRANCH  21  22
ENDBRANCH   1  21
TORSDOF 9
ENDMDL
MODEL 4
REMARK VINA RESULT: -5.336842746      3.162      7.430
REMARK  9 active torsions:
REMARK  status: ('A' for Active; 'I' for Inactive)
REMARK    1  A    between atoms: C2_2  and  C3_3 
REMARK    2  A    between atoms: C3_3  and  N1_4 
REMARK    3  A    between atoms: C5_6  and  C6_7 
REMARK    4  A    between atoms: C7_8  and  C8_9 
REMARK    5  A    between atoms: C8_9  and  N2_10 
REMARK    6  A    between atoms: N2_10  and  C9_11 
REMARK    7  A    between atoms: C9_11  and  C10_12 
REMARK    8  A    between atoms: C10_12  and  N3_13 
REMARK    9  A    between atoms: N3_13  and  C11_15 
ROOT
HETATM    1  N2  UNL     1     -14.567  25.560  53.568  1.00  0.00     0.020 N 
HETATM    2  C12 UNL     1     -15.304  24.423  53.116  1.00  0.00     0.269 C 
HETATM    3  C13 UNL     1     -16.183  23.967  54.253  1.00  0.00     0.153 C 
HETATM    4  N4  UNL     1     -15.497  24.502  55.418  1.00  0.00    -0.335 N 
ATOM      5  H4  UNL     1     -15.496  24.119  56.364  1.00  0.00     0.164 HD
HETATM    6  C14 UNL     1     -14.826  25.669  54.962  1.00  0.00     0.415 C 
HETATM    7  O2  UNL     1     -14.512  26.651  55.697  1.00  0.00    -0.239 OA
ENDROOT
BRANCH   1   8
HETATM    8  C8  UNL     1     -13.138  25.336  53.404  1.00  0.00     0.277 C 
BRANCH   8   9
HETATM    9  C7  UNL     1     -12.867  24.348  52.316  1.00  0.00    -0.001 C 
HETATM   10  C6  UNL     1     -11.839  24.440  51.509  1.00  0.00    -0.003 C 
BRANCH  10  11
HETATM   11  C5  UNL     1     -11.591  23.445  50.435  1.00  0.00     0.124 C 
HETATM   12  C4  UNL     1     -10.245  22.773  50.564  1.00  0.00     0.154 C 
HETATM   13  N1  UNL     1      -9.928  22.426  49.177  1.00  0.00    -0.353 N 
HETATM   14  C15 UNL     1     -10.452  23.498  48.403  1.00  0.00     0.170 C 
HETATM   15  N5  UNL     1     -11.558  24.063  49.115  1.00  0.00    -0.358 N 
HETATM   16  S1  UNL     1      -9.856  23.976  46.938  1.00  0.00    -0.041 SA
ATOM     17  H5  UNL     1     -12.205  24.769  48.763  1.00  0.00     0.162 HD
BRANCH  13  18
HETATM   18  C3  UNL     1      -9.234  21.249  48.699  1.00  0.00     0.151 C 
BRANCH  18  19
HETATM   19  C2  UNL     1      -8.933  20.332  49.802  1.00  0.00    -0.017 C 
HETATM   20  C1  UNL     1      -9.314  19.061  49.743  1.00  0.00     0.008 C 
ENDBRANCH  18  19
ENDBRANCH  13  18
ENDBRANCH  10  11
ENDBRANCH   8   9
ENDBRANCH   1   8
BRANCH   1  21
HETATM   21  C9  UNL     1     -14.935  26.772  52.885  1.00  0.00     0.269 C 
BRANCH  21  22
HETATM   22  C10 UNL     1     -16.088  26.465  51.953  1.00  0.00     0.150 C 
BRANCH  22  23
HETATM   23  N3  UNL     1     -15.804  27.061  50.660  1.00  0.00    -0.367 N 
ATOM     24  H3  UNL     1     -16.515  27.603  50.167  1.00  0.00     0.161 HD
BRANCH  23  25
HETATM   25  C11 UNL     1     -14.522  26.872  50.099  1.00  0.00     0.348 C 
HETATM   26  O1  UNL     1     -14.256  25.868  49.410  1.00  0.00    -0.284 OA
ENDBRANCH  23  25
ENDBRANCH  22  23
ENDBRANCH  21  22
ENDBRANCH   1  21
TORSDOF 9
ENDMDL
MODEL 5
REMARK VINA RESULT: -5.310728375      3.467      5.107
REMARK  9 active torsions:
REMARK  status: ('A' for Active; 'I' for Inactive)
REMARK    1  A    between atoms: C2_2  and  C3_3 
REMARK    2  A    between atoms: C3_3  and  N1_4 
REMARK    3  A    between atoms: C5_6  and  C6_7 
REMARK    4  A    between atoms: C7_8  and  C8_9 
REMARK    5  A    between atoms: C8_9  and  N2_10 
REMARK    6  A    between atoms: N2_10  and  C9_11 
REMARK    7  A    between atoms: C9_11  and  C10_12 
REMARK    8  A    between atoms: C10_12  and  N3_13 
REMARK    9  A    between atoms: N3_13  and  C11_15 
ROOT
HETATM    1  N2  UNL     1     -10.548  23.375  49.264  1.00  0.00     0.020 N 
HETATM    2  C12 UNL     1     -10.715  23.156  47.863  1.00  0.00     0.269 C 
HETATM    3  C13 UNL     1      -9.865  24.168  47.137  1.00  0.00     0.153 C 
HETATM    4  N4  UNL     1      -9.719  25.225  48.125  1.00  0.00    -0.335 N 
ATOM      5  H4  UNL     1      -9.585  26.221  47.948  1.00  0.00     0.164 HD
HETATM    6  C14 UNL     1      -9.801  24.580  49.389  1.00  0.00     0.415 C 
HETATM    7  O2  UNL     1      -9.284  25.021  50.456  1.00  0.00    -0.239 OA
ENDROOT
BRANCH   1   8
HETATM    8  C8  UNL     1     -11.839  23.593  49.902  1.00  0.00     0.277 C 
BRANCH   8   9
HETATM    9  C7  UNL     1     -12.829  24.159  48.936  1.00  0.00    -0.001 C 
HETATM   10  C6  UNL     1     -13.397  25.329  49.102  1.00  0.00    -0.003 C 
BRANCH  10  11
HETATM   11  C5  UNL     1     -14.379  25.871  48.128  1.00  0.00     0.124 C 
HETATM   12  C4  UNL     1     -13.718  26.534  46.944  1.00  0.00     0.154 C 
HETATM   13  N1  UNL     1     -14.717  27.526  46.537  1.00  0.00    -0.353 N 
HETATM   14  C15 UNL     1     -15.301  27.977  47.753  1.00  0.00     0.170 C 
HETATM   15  N5  UNL     1     -15.205  26.920  48.713  1.00  0.00    -0.358 N 
HETATM   16  S1  UNL     1     -15.963  29.474  47.975  1.00  0.00    -0.041 SA
ATOM     17  H5  UNL     1     -15.637  26.903  49.637  1.00  0.00     0.162 HD
BRANCH  13  18
HETATM   18  C3  UNL     1     -15.038  27.951  45.191  1.00  0.00     0.151 C 
BRANCH  18  19
HETATM   19  C2  UNL     1     -16.429  27.636  44.857  1.00  0.00    -0.017 C 
HETATM   20  C1  UNL     1     -16.932  27.976  43.676  1.00  0.00     0.008 C 
ENDBRANCH  18  19
ENDBRANCH  13  18
ENDBRANCH  10  11
ENDBRANCH   8   9
ENDBRANCH   1   8
BRANCH   1  21
HETATM   21  C9  UNL     1      -9.874  22.289  49.923  1.00  0.00     0.269 C 
BRANCH  21  22
HETATM   22  C10 UNL     1      -9.891  21.087  49.003  1.00  0.00     0.150 C 
BRANCH  22  23
HETATM   23  N3  UNL     1      -8.978  20.089  49.533  1.00  0.00    -0.367 N 
ATOM     24  H3  UNL     1      -8.017  20.334  49.772  1.00  0.00     0.161 HD
BRANCH  23  25
HETATM   25  C11 UNL     1      -9.453  18.771  49.709  1.00  0.00     0.348 C 
HETATM   26  O1  UNL     1      -8.674  17.799  49.738  1.00  0.00    -0.284 OA
ENDBRANCH  23  25
ENDBRANCH  22  23
ENDBRANCH  21  22
ENDBRANCH   1  21
TORSDOF 9
ENDMDL
