MODEL 1
REMARK VINA RESULT: -7.147298508      0.000      0.000
REMARK  10 active torsions:
REMARK  status: ('A' for Active; 'I' for Inactive)
REMARK    1  A    between atoms: C2_2  and  C3_3 
REMARK    2  A    between atoms: C3_3  and  C4_4 
REMARK    3  A    between atoms: C4_4  and  C5_5 
REMARK    4  A    between atoms: C5_5  and  N1_6 
REMARK    5  A    between atoms: C5_5  and  C9_17 
REMARK       I    between atoms: N1_6  and  C6_8 
REMARK    6  A    between atoms: C6_8  and  C7_10 
REMARK    7  A    between atoms: C7_10  and  C8_11 
REMARK    8  A    between atoms: N2_12  and  N3_14 
REMARK       I    between atoms: C9_17  and  N4_19 
REMARK    9  A    between atoms: N4_19  and  C10_21 
REMARK   10  A    between atoms: C10_21  and  C11_22 
REMARK       I    between atoms: C11_22  and  N5_24 
ROOT
HETATM    1  C5  UNL     1     -10.040  22.328  49.619  1.00  0.00     0.177 C 
ENDROOT
BRANCH   1   2
HETATM    2  C4  UNL     1     -10.766  22.745  50.870  1.00  0.00     0.038 C 
BRANCH   2   3
HETATM    3  C3  UNL     1     -10.334  24.089  51.339  1.00  0.00     0.029 C 
BRANCH   3   4
HETATM    4  C2  UNL     1     -11.501  24.941  51.743  1.00  0.00    -0.037 C 
HETATM    5  C1  UNL     1     -12.702  24.616  51.372  1.00  0.00     0.007 C 
ENDBRANCH   3   4
ENDBRANCH   2   3
ENDBRANCH   1   2
BRANCH   1   6
HETATM    6  N1  UNL     1     -10.231  20.868  49.446  1.00  0.00    -0.348 N 
HETATM    7  C6  UNL     1      -9.134  20.026  49.738  1.00  0.00     0.223 C 
HETATM    8  O1  UNL     1      -8.032  20.475  50.127  1.00  0.00    -0.273 OA
ATOM      9  H1  UNL     1     -11.122  20.485  49.129  1.00  0.00     0.163 HD
BRANCH   7  10
HETATM   10  C7  UNL     1      -9.294  18.562  49.575  1.00  0.00     0.148 C 
BRANCH  10  11
HETATM   11  C8  UNL     1      -8.961  17.858  50.837  1.00  0.00     0.088 C 
HETATM   12  N2  UNL     1      -9.625  16.845  51.270  1.00  0.00    -0.322 N 
ATOM     13  H2  UNL     1      -9.359  16.390  52.143  1.00  0.00     0.185 HD
BRANCH  12  14
HETATM   14  N3  UNL     1     -10.725  16.369  50.522  1.00  0.00    -0.346 N 
ATOM     15  H32 UNL     1     -10.649  15.478  50.030  1.00  0.00     0.176 HD
ATOM     16  H31 UNL     1     -11.581  16.923  50.486  1.00  0.00     0.176 HD
ENDBRANCH  12  14
ENDBRANCH  10  11
ENDBRANCH   7  10
ENDBRANCH   1   6
BRANCH   1  17
HETATM   17  C9  UNL     1     -10.533  23.032  48.424  1.00  0.00     0.240 C 
HETATM   18  O2  UNL     1     -11.782  23.207  48.216  1.00  0.00    -0.271 OA
HETATM   19  N4  UNL     1      -9.638  23.532  47.458  1.00  0.00    -0.351 N 
ATOM     20  H4  UNL     1      -8.634  23.404  47.592  1.00  0.00     0.163 HD
BRANCH  19  21
HETATM   21  C10 UNL     1     -10.116  24.227  46.274  1.00  0.00     0.225 C 
BRANCH  21  22
HETATM   22  C11 UNL     1      -9.169  24.091  45.148  1.00  0.00     0.237 C 
HETATM   23  O3  UNL     1      -8.425  23.091  45.105  1.00  0.00    -0.272 OA
HETATM   24  N5  UNL     1      -9.096  25.064  44.133  1.00  0.00    -0.351 N 
HETATM   25  C12 UNL     1      -9.978  26.204  44.235  1.00  0.00     0.126 C 
HETATM   26  C16 UNL     1      -8.153  24.865  43.061  1.00  0.00     0.126 C 
HETATM   27  C13 UNL     1     -10.043  27.098  43.066  1.00  0.00     0.020 C 
HETATM   28  C14 UNL     1      -8.807  27.109  42.203  1.00  0.00     0.003 C 
HETATM   29  C15 UNL     1      -8.346  25.711  41.860  1.00  0.00     0.020 C 
ENDBRANCH  21  22
ENDBRANCH  19  21
ENDBRANCH   1  17
TORSDOF 10
ENDMDL
MODEL 2
REMARK VINA RESULT: -7.129031456      1.682      1.912
REMARK  10 active torsions:
REMARK  status: ('A' for Active; 'I' for Inactive)
REMARK    1  A    between atoms: C2_2  and  C3_3 
REMARK    2  A    between atoms: C3_3  and  C4_4 
REMARK    3  A    between atoms: C4_4  and  C5_5 
REMARK    4  A    between atoms: C5_5  and  N1_6 
REMARK    5  A    between atoms: C5_5  and  C9_17 
REMARK       I    between atoms: N1_6  and  C6_8 
REMARK    6  A    between atoms: C6_8  and  C7_10 
REMARK    7  A    between atoms: C7_10  and  C8_11 
REMARK    8  A    between atoms: N2_12  and  N3_14 
REMARK       I    between atoms: C9_17  and  N4_19 
REMARK    9  A    between atoms: N4_19  and  C10_21 
REMARK   10  A    between atoms: C10_21  and  C11_22 
REMARK       I    between atoms: C11_22  and  N5_24 
ROOT
HETATM    1  C5  UNL     1     -10.398  22.711  49.109  1.00  0.00     0.177 C 
ENDROOT
BRANCH   1   2
HETATM    2  C4  UNL     1     -11.478  23.103  50.082  1.00  0.00     0.038 C 
BRANCH   2   3
HETATM    3  C3  UNL     1     -10.922  23.432  51.422  1.00  0.00     0.029 C 
BRANCH   3   4
HETATM    4  C2  UNL     1     -11.993  23.873  52.376  1.00  0.00    -0.037 C 
HETATM    5  C1  UNL     1     -12.979  24.604  51.954  1.00  0.00     0.007 C 
ENDBRANCH   3   4
ENDBRANCH   2   3
ENDBRANCH   1   2
BRANCH   1   6
HETATM    6  N1  UNL     1     -10.522  21.257  48.851  1.00  0.00    -0.348 N 
HETATM    7  C6  UNL     1      -9.633  20.393  49.531  1.00  0.00     0.223 C 
HETATM    8  O1  UNL     1      -8.764  20.821  50.326  1.00  0.00    -0.273 OA
ATOM      9  H1  UNL     1     -11.224  20.892  48.207  1.00  0.00     0.163 HD
BRANCH   7  10
HETATM   10  C7  UNL     1      -9.733  18.934  49.295  1.00  0.00     0.148 C 
BRANCH  10  11
HETATM   11  C8  UNL     1      -9.065  18.182  50.384  1.00  0.00     0.088 C 
HETATM   12  N2  UNL     1      -9.546  17.101  50.886  1.00  0.00    -0.322 N 
ATOM     13  H2  UNL     1      -9.051  16.616  51.635  1.00  0.00     0.185 HD
BRANCH  12  14
HETATM   14  N3  UNL     1     -10.767  16.592  50.391  1.00  0.00    -0.346 N 
ATOM     15  H32 UNL     1     -11.647  16.960  50.753  1.00  0.00     0.176 HD
ATOM     16  H31 UNL     1     -10.751  15.864  49.677  1.00  0.00     0.176 HD
ENDBRANCH  12  14
ENDBRANCH  10  11
ENDBRANCH   7  10
ENDBRANCH   1   6
BRANCH   1  17
HETATM   17  C9  UNL     1     -10.497  23.445  47.837  1.00  0.00     0.240 C 
HETATM   18  O2  UNL     1     -11.540  24.117  47.530  1.00  0.00    -0.271 OA
HETATM   19  N4  UNL     1      -9.441  23.422  46.904  1.00  0.00    -0.351 N 
ATOM     20  H4  UNL     1      -8.597  22.890  47.117  1.00  0.00     0.163 HD
BRANCH  19  21
HETATM   21  C10 UNL     1      -9.531  24.143  45.644  1.00  0.00     0.225 C 
BRANCH  21  22
HETATM   22  C11 UNL     1      -8.375  23.853  44.772  1.00  0.00     0.237 C 
HETATM   23  O3  UNL     1      -8.409  22.841  44.044  1.00  0.00    -0.272 OA
HETATM   24  N5  UNL     1      -7.246  24.695  44.750  1.00  0.00    -0.351 N 
HETATM   25  C12 UNL     1      -7.258  25.850  45.617  1.00  0.00     0.126 C 
HETATM   26  C16 UNL     1      -6.156  24.354  43.871  1.00  0.00     0.126 C 
HETATM   27  C13 UNL     1      -6.174  26.831  45.428  1.00  0.00     0.020 C 
HETATM   28  C14 UNL     1      -4.901  26.268  44.850  1.00  0.00     0.003 C 
HETATM   29  C15 UNL     1      -5.162  25.425  43.623  1.00  0.00     0.020 C 
ENDBRANCH  21  22
ENDBRANCH  19  21
ENDBRANCH   1  17
TORSDOF 10
ENDMDL
MODEL 3
REMARK VINA RESULT: -6.937942508      1.741      2.011
REMARK  10 active torsions:
REMARK  status: ('A' for Active; 'I' for Inactive)
REMARK    1  A    between atoms: C2_2  and  C3_3 
REMARK    2  A    between atoms: C3_3  and  C4_4 
REMARK    3  A    between atoms: C4_4  and  C5_5 
REMARK    4  A    between atoms: C5_5  and  N1_6 
REMARK    5  A    between atoms: C5_5  and  C9_17 
REMARK       I    between atoms: N1_6  and  C6_8 
REMARK    6  A    between atoms: C6_8  and  C7_10 
REMARK    7  A    between atoms: C7_10  and  C8_11 
REMARK    8  A    between atoms: N2_12  and  N3_14 
REMARK       I    between atoms: C9_17  and  N4_19 
REMARK    9  A    between atoms: N4_19  and  C10_21 
REMARK   10  A    between atoms: C10_21  and  C11_22 
REMARK       I    between atoms: C11_22  and  N5_24 
ROOT
HETATM    1  C5  UNL     1     -10.912  22.919  49.108  1.00  0.00     0.177 C 
ENDROOT
BRANCH   1   2
HETATM    2  C4  UNL     1     -12.375  23.182  48.867  1.00  0.00     0.038 C 
BRANCH   2   3
HETATM    3  C3  UNL     1     -12.769  24.551  49.294  1.00  0.00     0.029 C 
BRANCH   3   4
HETATM    4  C2  UNL     1     -13.566  25.257  48.237  1.00  0.00    -0.037 C 
HETATM    5  C1  UNL     1     -14.450  26.147  48.574  1.00  0.00     0.007 C 
ENDBRANCH   3   4
ENDBRANCH   2   3
ENDBRANCH   1   2
BRANCH   1   6
HETATM    6  N1  UNL     1     -10.620  21.533  48.671  1.00  0.00    -0.348 N 
HETATM    7  C6  UNL     1      -9.985  20.676  49.598  1.00  0.00     0.223 C 
HETATM    8  O1  UNL     1      -9.671  21.053  50.750  1.00  0.00    -0.273 OA
ATOM      9  H1  UNL     1     -10.868  21.210  47.736  1.00  0.00     0.163 HD
BRANCH   7  10
HETATM   10  C7  UNL     1      -9.680  19.284  49.191  1.00  0.00     0.148 C 
BRANCH  10  11
HETATM   11  C8  UNL     1      -8.920  18.584  50.255  1.00  0.00     0.088 C 
HETATM   12  N2  UNL     1      -9.308  17.475  50.778  1.00  0.00    -0.322 N 
ATOM     13  H2  UNL     1      -8.754  17.028  51.508  1.00  0.00     0.185 HD
BRANCH  12  14
HETATM   14  N3  UNL     1     -10.512  16.884  50.332  1.00  0.00    -0.346 N 
ATOM     15  H32 UNL     1     -10.655  15.882  50.461  1.00  0.00     0.176 HD
ATOM     16  H31 UNL     1     -11.220  17.468  49.888  1.00  0.00     0.176 HD
ENDBRANCH  12  14
ENDBRANCH  10  11
ENDBRANCH   7  10
ENDBRANCH   1   6
BRANCH   1  17
HETATM   17  C9  UNL     1     -10.047  23.857  48.375  1.00  0.00     0.240 C 
HETATM   18  O2  UNL     1      -9.285  24.684  48.985  1.00  0.00    -0.271 OA
HETATM   19  N4  UNL     1     -10.035  23.881  46.967  1.00  0.00    -0.351 N 
ATOM     20  H4  UNL     1     -10.634  23.237  46.450  1.00  0.00     0.163 HD
BRANCH  19  21
HETATM   21  C10 UNL     1      -9.184  24.806  46.234  1.00  0.00     0.225 C 
BRANCH  21  22
HETATM   22  C11 UNL     1      -8.424  24.116  45.172  1.00  0.00     0.237 C 
HETATM   23  O3  UNL     1      -8.404  22.869  45.159  1.00  0.00    -0.272 OA
HETATM   24  N5  UNL     1      -7.730  24.839  44.183  1.00  0.00    -0.351 N 
HETATM   25  C12 UNL     1      -7.784  26.281  44.248  1.00  0.00     0.126 C 
HETATM   26  C16 UNL     1      -7.014  24.102  43.172  1.00  0.00     0.126 C 
HETATM   27  C13 UNL     1      -7.238  27.018  43.094  1.00  0.00     0.020 C 
HETATM   28  C14 UNL     1      -6.176  26.284  42.316  1.00  0.00     0.003 C 
HETATM   29  C15 UNL     1      -6.598  24.873  41.977  1.00  0.00     0.020 C 
ENDBRANCH  21  22
ENDBRANCH  19  21
ENDBRANCH   1  17
TORSDOF 10
ENDMDL
MODEL 4
REMARK VINA RESULT: -6.911816739      1.373      1.624
REMARK  10 active torsions:
REMARK  status: ('A' for Active; 'I' for Inactive)
REMARK    1  A    between atoms: C2_2  and  C3_3 
REMARK    2  A    between atoms: C3_3  and  C4_4 
REMARK    3  A    between atoms: C4_4  and  C5_5 
REMARK    4  A    between atoms: C5_5  and  N1_6 
REMARK    5  A    between atoms: C5_5  and  C9_17 
REMARK       I    between atoms: N1_6  and  C6_8 
REMARK    6  A    between atoms: C6_8  and  C7_10 
REMARK    7  A    between atoms: C7_10  and  C8_11 
REMARK    8  A    between atoms: N2_12  and  N3_14 
REMARK       I    between atoms: C9_17  and  N4_19 
REMARK    9  A    between atoms: N4_19  and  C10_21 
REMARK   10  A    between atoms: C10_21  and  C11_22 
REMARK       I    between atoms: C11_22  and  N5_24 
ROOT
HETATM    1  C5  UNL     1      -9.940  22.504  49.548  1.00  0.00     0.177 C 
ENDROOT
BRANCH   1   2
HETATM    2  C4  UNL     1     -10.630  22.973  50.802  1.00  0.00     0.038 C 
BRANCH   2   3
HETATM    3  C3  UNL     1     -10.365  24.411  51.075  1.00  0.00     0.029 C 
BRANCH   3   4
HETATM    4  C2  UNL     1     -11.632  25.172  51.334  1.00  0.00    -0.037 C 
HETATM    5  C1  UNL     1     -12.766  24.714  50.901  1.00  0.00     0.007 C 
ENDBRANCH   3   4
ENDBRANCH   2   3
ENDBRANCH   1   2
BRANCH   1   6
HETATM    6  N1  UNL     1     -10.237  21.062  49.377  1.00  0.00    -0.348 N 
HETATM    7  C6  UNL     1      -9.205  20.142  49.669  1.00  0.00     0.223 C 
HETATM    8  O1  UNL     1      -8.073  20.511  50.060  1.00  0.00    -0.273 OA
ATOM      9  H1  UNL     1     -11.153  20.745  49.059  1.00  0.00     0.163 HD
BRANCH   7  10
HETATM   10  C7  UNL     1      -9.471  18.694  49.508  1.00  0.00     0.148 C 
BRANCH  10  11
HETATM   11  C8  UNL     1      -8.972  17.938  50.682  1.00  0.00     0.088 C 
HETATM   12  N2  UNL     1      -9.564  16.894  51.146  1.00  0.00    -0.322 N 
ATOM     13  H2  UNL     1      -9.184  16.404  51.956  1.00  0.00     0.185 HD
BRANCH  12  14
HETATM   14  N3  UNL     1     -10.744  16.434  50.521  1.00  0.00    -0.346 N 
ATOM     15  H32 UNL     1     -11.290  17.076  49.946  1.00  0.00     0.176 HD
ATOM     16  H31 UNL     1     -11.034  15.465  50.655  1.00  0.00     0.176 HD
ENDBRANCH  12  14
ENDBRANCH  10  11
ENDBRANCH   7  10
ENDBRANCH   1   6
BRANCH   1  17
HETATM   17  C9  UNL     1     -10.385  23.242  48.355  1.00  0.00     0.240 C 
HETATM   18  O2  UNL     1     -11.513  23.006  47.802  1.00  0.00    -0.271 OA
HETATM   19  N4  UNL     1      -9.572  24.235  47.774  1.00  0.00    -0.351 N 
ATOM     20  H4  UNL     1      -8.664  24.444  48.189  1.00  0.00     0.163 HD
BRANCH  19  21
HETATM   21  C10 UNL     1     -10.003  24.968  46.594  1.00  0.00     0.225 C 
BRANCH  21  22
HETATM   22  C11 UNL     1      -9.477  24.357  45.356  1.00  0.00     0.237 C 
HETATM   23  O3  UNL     1     -10.203  23.569  44.717  1.00  0.00    -0.272 OA
HETATM   24  N5  UNL     1      -8.180  24.649  44.891  1.00  0.00    -0.351 N 
HETATM   25  C12 UNL     1      -7.381  25.564  45.672  1.00  0.00     0.126 C 
HETATM   26  C16 UNL     1      -7.733  24.021  43.672  1.00  0.00     0.126 C 
HETATM   27  C13 UNL     1      -6.118  26.024  45.066  1.00  0.00     0.020 C 
HETATM   28  C14 UNL     1      -5.512  25.077  44.062  1.00  0.00     0.003 C 
HETATM   29  C15 UNL     1      -6.526  24.608  43.044  1.00  0.00     0.020 C 
ENDBRANCH  21  22
ENDBRANCH  19  21
ENDBRANCH   1  17
TORSDOF 10
ENDMDL
MODEL 5
REMARK VINA RESULT: -6.894037095      1.596      1.869
REMARK  10 active torsions:
REMARK  status: ('A' for Active; 'I' for Inactive)
REMARK    1  A    between atoms: C2_2  and  C3_3 
REMARK    2  A    between atoms: C3_3  and  C4_4 
REMARK    3  A    between atoms: C4_4  and  C5_5 
REMARK    4  A    between atoms: C5_5  and  N1_6 
REMARK    5  A    between atoms: C5_5  and  C9_17 
REMARK       I    between atoms: N1_6  and  C6_8 
REMARK    6  A    between atoms: C6_8  and  C7_10 
REMARK    7  A    between atoms: C7_10  and  C8_11 
REMARK    8  A    between atoms: N2_12  and  N3_14 
REMARK       I    between atoms: C9_17  and  N4_19 
REMARK    9  A    between atoms: N4_19  and  C10_21 
REMARK   10  A    between atoms: C10_21  and  C11_22 
REMARK       I    between atoms: C11_22  and  N5_24 
ROOT
HETATM    1  C5  UNL     1     -10.837  22.966  49.052  1.00  0.00     0.177 C 
ENDROOT
BRANCH   1   2
HETATM    2  C4  UNL     1     -12.299  23.307  48.947  1.00  0.00     0.038 C 
BRANCH   2   3
HETATM    3  C3  UNL     1     -12.708  24.312  49.965  1.00  0.00     0.029 C 
BRANCH   3   4
HETATM    4  C2  UNL     1     -13.363  25.507  49.338  1.00  0.00    -0.037 C 
HETATM    5  C1  UNL     1     -13.908  25.408  48.164  1.00  0.00     0.007 C 
ENDBRANCH   3   4
ENDBRANCH   2   3
ENDBRANCH   1   2
BRANCH   1   6
HETATM    6  N1  UNL     1     -10.668  21.552  48.641  1.00  0.00    -0.348 N 
HETATM    7  C6  UNL     1      -9.932  20.705  49.500  1.00  0.00     0.223 C 
HETATM    8  O1  UNL     1      -9.431  21.113  50.573  1.00  0.00    -0.273 OA
ATOM      9  H1  UNL     1     -11.069  21.203  47.770  1.00  0.00     0.163 HD
BRANCH   7  10
HETATM   10  C7  UNL     1      -9.746  19.285  49.117  1.00  0.00     0.148 C 
BRANCH  10  11
HETATM   11  C8  UNL     1      -8.928  18.575  50.128  1.00  0.00     0.088 C 
HETATM   12  N2  UNL     1      -9.298  17.474  50.681  1.00  0.00    -0.322 N 
ATOM     13  H2  UNL     1      -8.702  17.018  51.372  1.00  0.00     0.185 HD
BRANCH  12  14
HETATM   14  N3  UNL     1     -10.539  16.902  50.320  1.00  0.00    -0.346 N 
ATOM     15  H32 UNL     1     -11.323  17.512  50.089  1.00  0.00     0.176 HD
ATOM     16  H31 UNL     1     -10.632  15.887  50.295  1.00  0.00     0.176 HD
ENDBRANCH  12  14
ENDBRANCH  10  11
ENDBRANCH   7  10
ENDBRANCH   1   6
BRANCH   1  17
HETATM   17  C9  UNL     1      -9.999  23.827  48.202  1.00  0.00     0.240 C 
HETATM   18  O2  UNL     1      -9.513  24.928  48.634  1.00  0.00    -0.271 OA
HETATM   19  N4  UNL     1      -9.710  23.469  46.871  1.00  0.00    -0.351 N 
ATOM     20  H4  UNL     1     -10.087  22.599  46.494  1.00  0.00     0.163 HD
BRANCH  19  21
HETATM   21  C10 UNL     1      -8.885  24.314  46.023  1.00  0.00     0.225 C 
BRANCH  21  22
HETATM   22  C11 UNL     1      -9.179  24.097  44.592  1.00  0.00     0.237 C 
HETATM   23  O3  UNL     1      -8.686  23.104  44.020  1.00  0.00    -0.272 OA
HETATM   24  N5  UNL     1     -10.002  24.985  43.872  1.00  0.00    -0.351 N 
HETATM   25  C12 UNL     1     -10.543  26.120  44.583  1.00  0.00     0.126 C 
HETATM   26  C16 UNL     1     -10.252  24.709  42.479  1.00  0.00     0.126 C 
HETATM   27  C13 UNL     1     -11.566  26.915  43.881  1.00  0.00     0.020 C 
HETATM   28  C14 UNL     1     -11.487  26.868  42.377  1.00  0.00     0.003 C 
HETATM   29  C15 UNL     1     -11.375  25.452  41.861  1.00  0.00     0.020 C 
ENDBRANCH  21  22
ENDBRANCH  19  21
ENDBRANCH   1  17
TORSDOF 10
ENDMDL
