MODEL 1
REMARK VINA RESULT: -6.851911630      0.000      0.000
REMARK  8 active torsions:
REMARK  status: ('A' for Active; 'I' for Inactive)
REMARK    1  A    between atoms: N1_2  and  C2_4 
REMARK    2  A    between atoms: C2_4  and  C4_11 
REMARK    3  A    between atoms: C3_5  and  N2_6 
REMARK       I    between atoms: C4_11  and  N4_13 
REMARK    4  A    between atoms: N4_13  and  C5_15 
REMARK    5  A    between atoms: C5_15  and  C6_16 
REMARK    6  A    between atoms: C13_23  and  C14_24 
REMARK    7  A    between atoms: C14_24  and  C15_25 
REMARK    8  A    between atoms: C15_25  and  N5_26 
ROOT
HETATM    1  C5  UNL     1     -10.484  23.310  51.509  1.00  0.00     0.161 C 
ENDROOT
BRANCH   1   2
HETATM    2  N4  UNL     1     -10.261  22.028  50.833  1.00  0.00    -0.351 N 
HETATM    3  C4  UNL     1      -9.134  21.275  51.248  1.00  0.00     0.269 C 
HETATM    4  O1  UNL     1      -8.371  21.679  52.141  1.00  0.00    -0.266 OA
ATOM      5  H4  UNL     1     -10.887  21.695  50.100  1.00  0.00     0.163 HD
BRANCH   3   6
HETATM    6  C2  UNL     1      -8.838  19.964  50.583  1.00  0.00     0.113 C 
HETATM    7  C3  UNL     1      -8.022  19.011  51.281  1.00  0.00     0.141 C 
BRANCH   6   8
HETATM    8  N1  UNL     1      -9.758  19.719  49.592  1.00  0.00    -0.389 N 
HETATM    9  C1  UNL     1      -9.505  19.729  48.206  1.00  0.00     0.146 C 
ATOM     10  H1  UNL     1     -10.712  19.510  49.886  1.00  0.00     0.159 HD
ENDBRANCH   6   8
BRANCH   7  11
HETATM   11  N2  UNL     1      -8.674  18.023  52.065  1.00  0.00    -0.316 N 
HETATM   12  N3  UNL     1      -8.662  16.797  51.720  1.00  0.00    -0.345 N 
ATOM     13  H32 UNL     1      -8.172  16.537  50.864  1.00  0.00     0.176 HD
ATOM     14  H31 UNL     1      -9.130  16.087  52.283  1.00  0.00     0.176 HD
ATOM     15  H2  UNL     1      -9.160  18.299  52.919  1.00  0.00     0.185 HD
ENDBRANCH   7  11
ENDBRANCH   3   6
ENDBRANCH   1   2
BRANCH   1  16
HETATM   16  C6  UNL     1     -11.586  24.064  50.738  1.00  0.00    -0.041 C 
HETATM   17  C7  UNL     1     -12.530  24.676  51.441  1.00  0.00    -0.013 C 
HETATM   18  C8  UNL     1     -13.719  25.470  51.148  1.00  0.00     0.013 A 
HETATM   19  C9  UNL     1     -13.419  26.952  50.856  1.00  0.00     0.014 A 
HETATM   20  C10 UNL     1     -14.028  26.005  49.865  1.00  0.00    -0.006 A 
HETATM   21  C11 UNL     1     -13.277  25.592  48.646  1.00  0.00     0.009 C 
HETATM   22  C12 UNL     1     -12.851  24.166  48.608  1.00  0.00     0.035 C 
HETATM   23  C13 UNL     1     -11.551  23.937  49.289  1.00  0.00    -0.071 C 
BRANCH  23  24
HETATM   24  C14 UNL     1     -10.335  24.533  48.675  1.00  0.00     0.062 C 
BRANCH  24  25
HETATM   25  C15 UNL     1      -9.980  23.766  47.408  1.00  0.00     0.240 C 
BRANCH  25  26
HETATM   26  N5  UNL     1      -9.529  24.616  46.362  1.00  0.00    -0.078 N 
HETATM   27  C16 UNL     1      -8.785  25.734  46.998  1.00  0.00     0.271 C 
HETATM   28  C17 UNL     1     -10.630  25.260  45.662  1.00  0.00     0.271 C 
HETATM   29  C18 UNL     1      -8.659  24.040  45.384  1.00  0.00     0.271 C 
ENDBRANCH  25  26
ENDBRANCH  24  25
ENDBRANCH  23  24
ENDBRANCH   1  16
TORSDOF 8
ENDMDL
MODEL 2
REMARK VINA RESULT: -6.689021902      2.206      4.880
REMARK  8 active torsions:
REMARK  status: ('A' for Active; 'I' for Inactive)
REMARK    1  A    between atoms: N1_2  and  C2_4 
REMARK    2  A    between atoms: C2_4  and  C4_11 
REMARK    3  A    between atoms: C3_5  and  N2_6 
REMARK       I    between atoms: C4_11  and  N4_13 
REMARK    4  A    between atoms: N4_13  and  C5_15 
REMARK    5  A    between atoms: C5_15  and  C6_16 
REMARK    6  A    between atoms: C13_23  and  C14_24 
REMARK    7  A    between atoms: C14_24  and  C15_25 
REMARK    8  A    between atoms: C15_25  and  N5_26 
ROOT
HETATM    1  C5  UNL     1     -10.120  23.437  51.818  1.00  0.00     0.161 C 
ENDROOT
BRANCH   1   2
HETATM    2  N4  UNL     1     -10.011  22.188  51.058  1.00  0.00    -0.351 N 
HETATM    3  C4  UNL     1      -8.963  21.306  51.423  1.00  0.00     0.269 C 
HETATM    4  O1  UNL     1      -8.173  21.577  52.343  1.00  0.00    -0.266 OA
ATOM      5  H4  UNL     1     -10.659  21.964  50.303  1.00  0.00     0.163 HD
BRANCH   3   6
HETATM    6  C2  UNL     1      -8.784  20.020  50.673  1.00  0.00     0.113 C 
HETATM    7  C3  UNL     1      -8.013  18.974  51.281  1.00  0.00     0.141 C 
BRANCH   6   8
HETATM    8  N1  UNL     1      -9.755  19.899  49.707  1.00  0.00    -0.389 N 
HETATM    9  C1  UNL     1      -9.533  19.734  48.326  1.00  0.00     0.146 C 
ATOM     10  H1  UNL     1     -10.725  19.932  50.018  1.00  0.00     0.159 HD
ENDBRANCH   6   8
BRANCH   7  11
HETATM   11  N2  UNL     1      -8.704  17.987  52.032  1.00  0.00    -0.316 N 
HETATM   12  N3  UNL     1      -8.689  16.763  51.680  1.00  0.00    -0.345 N 
ATOM     13  H32 UNL     1      -8.167  16.504  50.843  1.00  0.00     0.176 HD
ATOM     14  H31 UNL     1      -9.186  16.054  52.220  1.00  0.00     0.176 HD
ATOM     15  H2  UNL     1      -9.221  18.263  52.867  1.00  0.00     0.185 HD
ENDBRANCH   7  11
ENDBRANCH   3   6
ENDBRANCH   1   2
BRANCH   1  16
HETATM   16  C6  UNL     1     -11.223  24.292  51.164  1.00  0.00    -0.041 C 
HETATM   17  C7  UNL     1     -11.274  24.336  49.840  1.00  0.00    -0.013 C 
HETATM   18  C8  UNL     1     -12.108  24.990  48.835  1.00  0.00     0.013 A 
HETATM   19  C9  UNL     1     -13.427  24.250  48.545  1.00  0.00     0.014 A 
HETATM   20  C10 UNL     1     -13.345  25.634  49.117  1.00  0.00    -0.006 A 
HETATM   21  C11 UNL     1     -13.782  25.906  50.516  1.00  0.00     0.009 C 
HETATM   22  C12 UNL     1     -12.695  26.265  51.468  1.00  0.00     0.035 C 
HETATM   23  C13 UNL     1     -12.047  25.074  52.074  1.00  0.00    -0.071 C 
BRANCH  23  24
HETATM   24  C14 UNL     1     -12.862  24.238  52.996  1.00  0.00     0.062 C 
BRANCH  24  25
HETATM   25  C15 UNL     1     -12.483  24.556  54.436  1.00  0.00     0.240 C 
BRANCH  25  26
HETATM   26  N5  UNL     1     -13.561  25.116  55.175  1.00  0.00    -0.078 N 
HETATM   27  C16 UNL     1     -13.471  24.576  56.556  1.00  0.00     0.271 C 
HETATM   28  C17 UNL     1     -14.856  24.664  54.689  1.00  0.00     0.271 C 
HETATM   29  C18 UNL     1     -13.601  26.541  55.287  1.00  0.00     0.271 C 
ENDBRANCH  25  26
ENDBRANCH  24  25
ENDBRANCH  23  24
ENDBRANCH   1  16
TORSDOF 8
ENDMDL
MODEL 3
REMARK VINA RESULT: -6.556510712      0.834      1.869
REMARK  8 active torsions:
REMARK  status: ('A' for Active; 'I' for Inactive)
REMARK    1  A    between atoms: N1_2  and  C2_4 
REMARK    2  A    between atoms: C2_4  and  C4_11 
REMARK    3  A    between atoms: C3_5  and  N2_6 
REMARK       I    between atoms: C4_11  and  N4_13 
REMARK    4  A    between atoms: N4_13  and  C5_15 
REMARK    5  A    between atoms: C5_15  and  C6_16 
REMARK    6  A    between atoms: C13_23  and  C14_24 
REMARK    7  A    between atoms: C14_24  and  C15_25 
REMARK    8  A    between atoms: C15_25  and  N5_26 
ROOT
HETATM    1  C5  UNL     1     -10.117  23.465  50.965  1.00  0.00     0.161 C 
ENDROOT
BRANCH   1   2
HETATM    2  N4  UNL     1     -10.166  22.081  50.481  1.00  0.00    -0.351 N 
HETATM    3  C4  UNL     1      -9.223  21.178  51.034  1.00  0.00     0.269 C 
HETATM    4  O1  UNL     1      -8.395  21.538  51.886  1.00  0.00    -0.266 OA
ATOM      5  H4  UNL     1     -10.845  21.784  49.781  1.00  0.00     0.163 HD
BRANCH   3   6
HETATM    6  C2  UNL     1      -9.207  19.752  50.568  1.00  0.00     0.113 C 
HETATM    7  C3  UNL     1      -9.942  19.411  49.385  1.00  0.00     0.141 C 
BRANCH   6   8
HETATM    8  N1  UNL     1      -8.133  19.089  51.114  1.00  0.00    -0.389 N 
HETATM    9  C1  UNL     1      -8.194  18.082  52.097  1.00  0.00     0.146 C 
ATOM     10  H1  UNL     1      -7.207  19.351  50.777  1.00  0.00     0.159 HD
ENDBRANCH   6   8
BRANCH   7  11
HETATM   11  N2  UNL     1      -9.250  19.414  48.145  1.00  0.00    -0.316 N 
HETATM   12  N3  UNL     1      -8.933  20.506  47.571  1.00  0.00    -0.345 N 
ATOM     13  H32 UNL     1      -9.189  21.384  48.023  1.00  0.00     0.176 HD
ATOM     14  H31 UNL     1      -8.435  20.508  46.681  1.00  0.00     0.176 HD
ATOM     15  H2  UNL     1      -9.001  18.526  47.707  1.00  0.00     0.185 HD
ENDBRANCH   7  11
ENDBRANCH   3   6
ENDBRANCH   1   2
BRANCH   1  16
HETATM   16  C6  UNL     1     -11.390  24.181  50.474  1.00  0.00    -0.041 C 
HETATM   17  C7  UNL     1     -12.210  24.688  51.385  1.00  0.00    -0.013 C 
HETATM   18  C8  UNL     1     -13.477  25.413  51.381  1.00  0.00     0.013 A 
HETATM   19  C9  UNL     1     -13.326  26.925  51.134  1.00  0.00     0.014 A 
HETATM   20  C10 UNL     1     -14.063  25.993  50.221  1.00  0.00    -0.006 A 
HETATM   21  C11 UNL     1     -13.546  25.698  48.855  1.00  0.00     0.009 C 
HETATM   22  C12 UNL     1     -13.056  24.309  48.641  1.00  0.00     0.035 C 
HETATM   23  C13 UNL     1     -11.637  24.133  49.040  1.00  0.00    -0.071 C 
BRANCH  23  24
HETATM   24  C14 UNL     1     -10.601  24.844  48.242  1.00  0.00     0.062 C 
BRANCH  24  25
HETATM   25  C15 UNL     1     -10.092  23.923  47.141  1.00  0.00     0.240 C 
BRANCH  25  26
HETATM   26  N5  UNL     1      -9.500  24.635  46.062  1.00  0.00    -0.078 N 
HETATM   27  C16 UNL     1      -8.788  25.800  46.647  1.00  0.00     0.271 C 
HETATM   28  C17 UNL     1     -10.495  25.221  45.177  1.00  0.00     0.271 C 
HETATM   29  C18 UNL     1      -8.552  23.928  45.258  1.00  0.00     0.271 C 
ENDBRANCH  25  26
ENDBRANCH  24  25
ENDBRANCH  23  24
ENDBRANCH   1  16
TORSDOF 8
ENDMDL
MODEL 4
REMARK VINA RESULT: -6.511579167      1.611      2.446
REMARK  8 active torsions:
REMARK  status: ('A' for Active; 'I' for Inactive)
REMARK    1  A    between atoms: N1_2  and  C2_4 
REMARK    2  A    between atoms: C2_4  and  C4_11 
REMARK    3  A    between atoms: C3_5  and  N2_6 
REMARK       I    between atoms: C4_11  and  N4_13 
REMARK    4  A    between atoms: N4_13  and  C5_15 
REMARK    5  A    between atoms: C5_15  and  C6_16 
REMARK    6  A    between atoms: C13_23  and  C14_24 
REMARK    7  A    between atoms: C14_24  and  C15_25 
REMARK    8  A    between atoms: C15_25  and  N5_26 
ROOT
HETATM    1  C5  UNL     1      -9.099  21.393  48.660  1.00  0.00     0.161 C 
ENDROOT
BRANCH   1   2
HETATM    2  N4  UNL     1      -9.473  20.061  49.147  1.00  0.00    -0.351 N 
HETATM    3  C4  UNL     1      -8.612  19.465  50.103  1.00  0.00     0.269 C 
HETATM    4  O1  UNL     1      -7.590  20.041  50.510  1.00  0.00    -0.266 OA
ATOM      5  H4  UNL     1     -10.312  19.587  48.814  1.00  0.00     0.163 HD
BRANCH   3   6
HETATM    6  C2  UNL     1      -8.927  18.096  50.627  1.00  0.00     0.113 C 
HETATM    7  C3  UNL     1      -8.186  17.608  51.756  1.00  0.00     0.141 C 
BRANCH   6   8
HETATM    8  N1  UNL     1     -10.175  17.704  50.205  1.00  0.00    -0.389 N 
HETATM    9  C1  UNL     1     -10.711  16.405  50.298  1.00  0.00     0.146 C 
ATOM     10  H1  UNL     1     -10.768  18.420  49.786  1.00  0.00     0.159 HD
ENDBRANCH   6   8
BRANCH   7  11
HETATM   11  N2  UNL     1      -8.737  17.804  53.049  1.00  0.00    -0.316 N 
HETATM   12  N3  UNL     1      -7.988  17.919  54.073  1.00  0.00    -0.345 N 
ATOM     13  H32 UNL     1      -6.978  17.867  53.944  1.00  0.00     0.176 HD
ATOM     14  H31 UNL     1      -8.385  18.061  55.002  1.00  0.00     0.176 HD
ATOM     15  H2  UNL     1      -9.751  17.854  53.161  1.00  0.00     0.185 HD
ENDBRANCH   7  11
ENDBRANCH   3   6
ENDBRANCH   1   2
BRANCH   1  16
HETATM   16  C6  UNL     1     -10.111  22.405  49.233  1.00  0.00    -0.041 C 
HETATM   17  C7  UNL     1     -10.356  22.372  50.535  1.00  0.00    -0.013 C 
HETATM   18  C8  UNL     1     -11.204  23.104  51.471  1.00  0.00     0.013 A 
HETATM   19  C9  UNL     1     -10.601  24.442  51.940  1.00  0.00     0.014 A 
HETATM   20  C10 UNL     1     -11.875  24.320  51.159  1.00  0.00    -0.006 A 
HETATM   21  C11 UNL     1     -11.962  24.827  49.760  1.00  0.00     0.009 C 
HETATM   22  C12 UNL     1     -12.105  23.783  48.708  1.00  0.00     0.035 C 
HETATM   23  C13 UNL     1     -10.798  23.240  48.258  1.00  0.00    -0.071 C 
BRANCH  23  24
HETATM   24  C14 UNL     1      -9.886  24.155  47.520  1.00  0.00     0.062 C 
BRANCH  24  25
HETATM   25  C15 UNL     1     -10.525  24.542  46.193  1.00  0.00     0.240 C 
BRANCH  25  26
HETATM   26  N5  UNL     1      -9.603  24.504  45.111  1.00  0.00    -0.078 N 
HETATM   27  C16 UNL     1      -9.147  25.898  44.878  1.00  0.00     0.271 C 
HETATM   28  C17 UNL     1     -10.237  24.113  43.861  1.00  0.00     0.271 C 
HETATM   29  C18 UNL     1      -8.430  23.705  45.283  1.00  0.00     0.271 C 
ENDBRANCH  25  26
ENDBRANCH  24  25
ENDBRANCH  23  24
ENDBRANCH   1  16
TORSDOF 8
ENDMDL
MODEL 5
REMARK VINA RESULT: -6.469170351      0.910      1.389
REMARK  8 active torsions:
REMARK  status: ('A' for Active; 'I' for Inactive)
REMARK    1  A    between atoms: N1_2  and  C2_4 
REMARK    2  A    between atoms: C2_4  and  C4_11 
REMARK    3  A    between atoms: C3_5  and  N2_6 
REMARK       I    between atoms: C4_11  and  N4_13 
REMARK    4  A    between atoms: N4_13  and  C5_15 
REMARK    5  A    between atoms: C5_15  and  C6_16 
REMARK    6  A    between atoms: C13_23  and  C14_24 
REMARK    7  A    between atoms: C14_24  and  C15_25 
REMARK    8  A    between atoms: C15_25  and  N5_26 
ROOT
HETATM    1  C5  UNL     1     -10.138  23.377  51.952  1.00  0.00     0.161 C 
ENDROOT
BRANCH   1   2
HETATM    2  N4  UNL     1     -10.051  22.132  51.184  1.00  0.00    -0.351 N 
HETATM    3  C4  UNL     1      -8.928  21.303  51.434  1.00  0.00     0.269 C 
HETATM    4  O1  UNL     1      -8.060  21.614  52.265  1.00  0.00    -0.266 OA
ATOM      5  H4  UNL     1     -10.764  21.875  50.501  1.00  0.00     0.163 HD
BRANCH   3   6
HETATM    6  C2  UNL     1      -8.770  20.024  50.668  1.00  0.00     0.113 C 
HETATM    7  C3  UNL     1      -8.020  18.956  51.265  1.00  0.00     0.141 C 
BRANCH   6   8
HETATM    8  N1  UNL     1      -9.739  19.933  49.696  1.00  0.00    -0.389 N 
HETATM    9  C1  UNL     1      -9.522  19.637  48.336  1.00  0.00     0.146 C 
ATOM     10  H1  UNL     1     -10.703  20.093  49.987  1.00  0.00     0.159 HD
ENDBRANCH   6   8
BRANCH   7  11
HETATM   11  N2  UNL     1      -8.731  17.972  52.000  1.00  0.00    -0.316 N 
HETATM   12  N3  UNL     1      -8.719  16.749  51.645  1.00  0.00    -0.345 N 
ATOM     13  H32 UNL     1      -8.183  16.489  50.816  1.00  0.00     0.176 HD
ATOM     14  H31 UNL     1      -9.230  16.042  52.173  1.00  0.00     0.176 HD
ATOM     15  H2  UNL     1      -9.262  18.249  52.827  1.00  0.00     0.185 HD
ENDBRANCH   7  11
ENDBRANCH   3   6
ENDBRANCH   1   2
BRANCH   1  16
HETATM   16  C6  UNL     1     -11.425  24.108  51.522  1.00  0.00    -0.041 C 
HETATM   17  C7  UNL     1     -12.367  24.300  52.436  1.00  0.00    -0.013 C 
HETATM   18  C8  UNL     1     -13.692  24.912  52.477  1.00  0.00     0.013 A 
HETATM   19  C9  UNL     1     -13.664  26.443  52.642  1.00  0.00     0.014 A 
HETATM   20  C10 UNL     1     -14.225  25.735  51.445  1.00  0.00    -0.006 A 
HETATM   21  C11 UNL     1     -13.562  25.847  50.115  1.00  0.00     0.009 C 
HETATM   22  C12 UNL     1     -12.925  24.600  49.609  1.00  0.00     0.035 C 
HETATM   23  C13 UNL     1     -11.537  24.423  50.106  1.00  0.00    -0.071 C 
BRANCH  23  24
HETATM   24  C14 UNL     1     -10.507  25.388  49.635  1.00  0.00     0.062 C 
BRANCH  24  25
HETATM   25  C15 UNL     1      -9.747  24.784  48.461  1.00  0.00     0.240 C 
BRANCH  25  26
HETATM   26  N5  UNL     1      -9.845  25.571  47.282  1.00  0.00    -0.078 N 
HETATM   27  C16 UNL     1     -10.222  24.654  46.175  1.00  0.00     0.271 C 
HETATM   28  C17 UNL     1      -8.560  26.122  46.879  1.00  0.00     0.271 C 
HETATM   29  C18 UNL     1     -10.802  26.633  47.287  1.00  0.00     0.271 C 
ENDBRANCH  25  26
ENDBRANCH  24  25
ENDBRANCH  23  24
ENDBRANCH   1  16
TORSDOF 8
ENDMDL
