MODEL 1
REMARK VINA RESULT: -5.696480966      0.000      0.000
REMARK  11 active torsions:
REMARK  status: ('A' for Active; 'I' for Inactive)
REMARK    1  A    between atoms: C2_2  and  N1_3 
REMARK       I    between atoms: N1_3  and  C3_5 
REMARK       I    between atoms: C3_5  and  N2_7 
REMARK    2  A    between atoms: N2_7  and  C4_9 
REMARK    3  A    between atoms: C4_9  and  C5_10 
REMARK    4  A    between atoms: C5_10  and  N3_11 
REMARK    5  A    between atoms: N3_11  and  C8_14 
REMARK    6  A    between atoms: C8_14  and  C9_15 
REMARK       I    between atoms: C9_15  and  N4_17 
REMARK    7  A    between atoms: N4_17  and  C10_19 
REMARK    8  A    between atoms: C10_19  and  C11_20 
REMARK    9  A    between atoms: C11_20  and  N5_21 
REMARK   10  A    between atoms: N5_21  and  C14_24 
REMARK   11  A    between atoms: C14_24  and  O3_27 
ROOT
HETATM    1  C8  UNL     1     -10.523  24.621  48.820  1.00  0.00     0.338 C 
ENDROOT
BRANCH   1   2
HETATM    2  N3  UNL     1     -11.773  24.453  49.515  1.00  0.00    -0.065 N 
HETATM    3  C6  UNL     1     -12.754  23.837  48.642  1.00  0.00     0.272 C 
HETATM    4  C7  UNL     1     -12.323  25.671  50.033  1.00  0.00     0.272 C 
BRANCH   2   5
HETATM    5  C5  UNL     1     -11.486  23.548  50.628  1.00  0.00     0.256 C 
BRANCH   5   6
HETATM    6  C4  UNL     1     -10.046  23.173  50.701  1.00  0.00     0.152 C 
BRANCH   6   7
HETATM    7  N2  UNL     1      -9.946  21.729  50.444  1.00  0.00    -0.342 N 
HETATM    8  C3  UNL     1      -8.991  20.928  51.112  1.00  0.00     0.316 C 
HETATM    9  N1  UNL     1      -8.926  19.546  50.839  1.00  0.00    -0.344 N 
HETATM   10  O1  UNL     1      -8.217  21.456  51.939  1.00  0.00    -0.247 OA
ATOM     11  H1  UNL     1      -9.565  19.129  50.163  1.00  0.00     0.164 HD
ATOM     12  H2  UNL     1     -10.577  21.295  49.770  1.00  0.00     0.164 HD
BRANCH   9  13
HETATM   13  C2  UNL     1      -7.954  18.727  51.519  1.00  0.00     0.120 C 
HETATM   14  C1  UNL     1      -8.676  17.519  52.087  1.00  0.00     0.026 C 
ENDBRANCH   9  13
ENDBRANCH   6   7
ENDBRANCH   5   6
ENDBRANCH   2   5
ENDBRANCH   1   2
BRANCH   1  15
HETATM   15  C9  UNL     1     -10.594  24.518  47.362  1.00  0.00     0.243 C 
HETATM   16  O2  UNL     1     -10.407  23.425  46.796  1.00  0.00    -0.272 OA
HETATM   17  N4  UNL     1     -10.874  25.659  46.580  1.00  0.00    -0.358 N 
ATOM     18  H4  UNL     1     -11.022  26.533  47.084  1.00  0.00     0.162 HD
BRANCH  17  19
HETATM   19  C10 UNL     1     -10.970  25.717  45.155  1.00  0.00     0.150 C 
BRANCH  19  20
HETATM   20  C11 UNL     1      -9.661  26.063  44.530  1.00  0.00     0.259 C 
BRANCH  20  21
HETATM   21  N5  UNL     1      -9.166  25.034  43.640  1.00  0.00    -0.042 N 
HETATM   22  C12 UNL     1     -10.248  24.065  43.470  1.00  0.00     0.276 C 
HETATM   23  C13 UNL     1      -8.897  25.605  42.354  1.00  0.00     0.276 C 
BRANCH  21  24
HETATM   24  C14 UNL     1      -8.027  24.336  44.134  1.00  0.00     0.220 C 
HETATM   25  C15 UNL     1      -7.387  25.186  45.227  1.00  0.00     0.078 C 
HETATM   26  C16 UNL     1      -6.961  24.085  43.097  1.00  0.00     0.078 C 
BRANCH  24  27
HETATM   27  O3  UNL     1      -8.345  23.113  44.742  1.00  0.00    -0.365 OA
ATOM     28  H3  UNL     1      -8.646  22.452  44.129  1.00  0.00     0.212 HD
ENDBRANCH  24  27
ENDBRANCH  21  24
ENDBRANCH  20  21
ENDBRANCH  19  20
ENDBRANCH  17  19
ENDBRANCH   1  15
TORSDOF 11
ENDMDL
MODEL 2
REMARK VINA RESULT: -5.566325462      3.872      7.835
REMARK  11 active torsions:
REMARK  status: ('A' for Active; 'I' for Inactive)
REMARK    1  A    between atoms: C2_2  and  N1_3 
REMARK       I    between atoms: N1_3  and  C3_5 
REMARK       I    between atoms: C3_5  and  N2_7 
REMARK    2  A    between atoms: N2_7  and  C4_9 
REMARK    3  A    between atoms: C4_9  and  C5_10 
REMARK    4  A    between atoms: C5_10  and  N3_11 
REMARK    5  A    between atoms: N3_11  and  C8_14 
REMARK    6  A    between atoms: C8_14  and  C9_15 
REMARK       I    between atoms: C9_15  and  N4_17 
REMARK    7  A    between atoms: N4_17  and  C10_19 
REMARK    8  A    between atoms: C10_19  and  C11_20 
REMARK    9  A    between atoms: C11_20  and  N5_21 
REMARK   10  A    between atoms: N5_21  and  C14_24 
REMARK   11  A    between atoms: C14_24  and  O3_27 
ROOT
HETATM    1  C8  UNL     1     -10.299  24.433  50.228  1.00  0.00     0.338 C 
ENDROOT
BRANCH   1   2
HETATM    2  N3  UNL     1     -10.864  24.157  48.932  1.00  0.00    -0.065 N 
HETATM    3  C6  UNL     1     -10.989  25.383  48.167  1.00  0.00     0.272 C 
HETATM    4  C7  UNL     1     -12.144  23.514  48.978  1.00  0.00     0.272 C 
BRANCH   2   5
HETATM    5  C5  UNL     1      -9.909  23.272  48.267  1.00  0.00     0.256 C 
BRANCH   5   6
HETATM    6  C4  UNL     1     -10.277  21.834  48.399  1.00  0.00     0.152 C 
BRANCH   6   7
HETATM    7  N2  UNL     1      -9.329  21.212  49.334  1.00  0.00    -0.342 N 
HETATM    8  C3  UNL     1      -9.421  19.843  49.672  1.00  0.00     0.316 C 
HETATM    9  N1  UNL     1      -8.492  19.283  50.574  1.00  0.00    -0.344 N 
HETATM   10  O1  UNL     1     -10.325  19.144  49.167  1.00  0.00    -0.247 OA
ATOM     11  H1  UNL     1      -7.758  19.864  50.978  1.00  0.00     0.164 HD
ATOM     12  H2  UNL     1      -8.589  21.780  49.748  1.00  0.00     0.164 HD
BRANCH   9  13
HETATM   13  C2  UNL     1      -8.584  17.886  50.921  1.00  0.00     0.120 C 
HETATM   14  C1  UNL     1      -8.459  17.771  52.429  1.00  0.00     0.026 C 
ENDBRANCH   9  13
ENDBRANCH   6   7
ENDBRANCH   5   6
ENDBRANCH   2   5
ENDBRANCH   1   2
BRANCH   1  15
HETATM   15  C9  UNL     1     -11.008  23.843  51.364  1.00  0.00     0.243 C 
HETATM   16  O2  UNL     1     -10.818  22.654  51.678  1.00  0.00    -0.272 OA
HETATM   17  N4  UNL     1     -11.917  24.617  52.117  1.00  0.00    -0.358 N 
ATOM     18  H4  UNL     1     -12.041  25.587  51.826  1.00  0.00     0.162 HD
BRANCH  17  19
HETATM   19  C10 UNL     1     -12.682  24.184  53.243  1.00  0.00     0.150 C 
BRANCH  19  20
HETATM   20  C11 UNL     1     -14.142  24.400  53.030  1.00  0.00     0.259 C 
BRANCH  20  21
HETATM   21  N5  UNL     1     -14.744  25.249  54.036  1.00  0.00    -0.042 N 
HETATM   22  C12 UNL     1     -14.213  24.816  55.328  1.00  0.00     0.276 C 
HETATM   23  C13 UNL     1     -14.323  26.602  53.833  1.00  0.00     0.276 C 
BRANCH  21  24
HETATM   24  C14 UNL     1     -16.165  25.162  54.096  1.00  0.00     0.220 C 
HETATM   25  C15 UNL     1     -16.647  26.082  55.214  1.00  0.00     0.078 C 
HETATM   26  C16 UNL     1     -16.685  23.782  54.413  1.00  0.00     0.078 C 
BRANCH  24  27
HETATM   27  O3  UNL     1     -16.801  25.615  52.932  1.00  0.00    -0.365 OA
ATOM     28  H3  UNL     1     -16.736  25.007  52.205  1.00  0.00     0.212 HD
ENDBRANCH  24  27
ENDBRANCH  21  24
ENDBRANCH  20  21
ENDBRANCH  19  20
ENDBRANCH  17  19
ENDBRANCH   1  15
TORSDOF 11
ENDMDL
MODEL 3
REMARK VINA RESULT: -5.443987199      4.084      8.057
REMARK  11 active torsions:
REMARK  status: ('A' for Active; 'I' for Inactive)
REMARK    1  A    between atoms: C2_2  and  N1_3 
REMARK       I    between atoms: N1_3  and  C3_5 
REMARK       I    between atoms: C3_5  and  N2_7 
REMARK    2  A    between atoms: N2_7  and  C4_9 
REMARK    3  A    between atoms: C4_9  and  C5_10 
REMARK    4  A    between atoms: C5_10  and  N3_11 
REMARK    5  A    between atoms: N3_11  and  C8_14 
REMARK    6  A    between atoms: C8_14  and  C9_15 
REMARK       I    between atoms: C9_15  and  N4_17 
REMARK    7  A    between atoms: N4_17  and  C10_19 
REMARK    8  A    between atoms: C10_19  and  C11_20 
REMARK    9  A    between atoms: C11_20  and  N5_21 
REMARK   10  A    between atoms: N5_21  and  C14_24 
REMARK   11  A    between atoms: C14_24  and  O3_27 
ROOT
HETATM    1  C8  UNL     1     -10.332  23.803  51.044  1.00  0.00     0.338 C 
ENDROOT
BRANCH   1   2
HETATM    2  N3  UNL     1     -10.766  24.442  49.829  1.00  0.00    -0.065 N 
HETATM    3  C6  UNL     1      -9.621  24.923  49.079  1.00  0.00     0.272 C 
HETATM    4  C7  UNL     1     -11.670  25.536  50.034  1.00  0.00     0.272 C 
BRANCH   2   5
HETATM    5  C5  UNL     1     -11.443  23.402  49.056  1.00  0.00     0.256 C 
BRANCH   5   6
HETATM    6  C4  UNL     1     -10.492  22.567  48.270  1.00  0.00     0.152 C 
BRANCH   6   7
HETATM    7  N2  UNL     1     -10.708  21.163  48.650  1.00  0.00    -0.342 N 
HETATM    8  C3  UNL     1      -9.641  20.350  49.097  1.00  0.00     0.316 C 
HETATM    9  N1  UNL     1      -9.889  19.008  49.453  1.00  0.00    -0.344 N 
HETATM   10  O1  UNL     1      -8.491  20.831  49.171  1.00  0.00    -0.247 OA
ATOM     11  H1  UNL     1     -10.834  18.628  49.389  1.00  0.00     0.164 HD
ATOM     12  H2  UNL     1     -11.647  20.768  48.591  1.00  0.00     0.164 HD
BRANCH   9  13
HETATM   13  C2  UNL     1      -8.804  18.176  49.909  1.00  0.00     0.120 C 
HETATM   14  C1  UNL     1      -8.720  18.303  51.419  1.00  0.00     0.026 C 
ENDBRANCH   9  13
ENDBRANCH   6   7
ENDBRANCH   5   6
ENDBRANCH   2   5
ENDBRANCH   1   2
BRANCH   1  15
HETATM   15  C9  UNL     1     -10.846  24.388  52.283  1.00  0.00     0.243 C 
HETATM   16  O2  UNL     1     -10.205  25.275  52.876  1.00  0.00    -0.272 OA
HETATM   17  N4  UNL     1     -12.076  23.952  52.821  1.00  0.00    -0.358 N 
ATOM     18  H4  UNL     1     -12.570  23.226  52.301  1.00  0.00     0.162 HD
BRANCH  17  19
HETATM   19  C10 UNL     1     -12.702  24.422  54.016  1.00  0.00     0.150 C 
BRANCH  19  20
HETATM   20  C11 UNL     1     -13.646  25.543  53.738  1.00  0.00     0.259 C 
BRANCH  20  21
HETATM   21  N5  UNL     1     -14.747  25.606  54.674  1.00  0.00    -0.042 N 
HETATM   22  C12 UNL     1     -14.561  24.506  55.621  1.00  0.00     0.276 C 
HETATM   23  C13 UNL     1     -14.672  26.827  55.418  1.00  0.00     0.276 C 
BRANCH  21  24
HETATM   24  C14 UNL     1     -16.030  25.454  54.075  1.00  0.00     0.220 C 
HETATM   25  C15 UNL     1     -16.363  23.966  54.040  1.00  0.00     0.078 C 
HETATM   26  C16 UNL     1     -16.108  25.951  52.653  1.00  0.00     0.078 C 
BRANCH  24  27
HETATM   27  O3  UNL     1     -17.063  26.056  54.808  1.00  0.00    -0.365 OA
ATOM     28  H3  UNL     1     -17.817  26.288  54.278  1.00  0.00     0.212 HD
ENDBRANCH  24  27
ENDBRANCH  21  24
ENDBRANCH  20  21
ENDBRANCH  19  20
ENDBRANCH  17  19
ENDBRANCH   1  15
TORSDOF 11
ENDMDL
MODEL 4
REMARK VINA RESULT: -5.404428018      3.621      7.594
REMARK  11 active torsions:
REMARK  status: ('A' for Active; 'I' for Inactive)
REMARK    1  A    between atoms: C2_2  and  N1_3 
REMARK       I    between atoms: N1_3  and  C3_5 
REMARK       I    between atoms: C3_5  and  N2_7 
REMARK    2  A    between atoms: N2_7  and  C4_9 
REMARK    3  A    between atoms: C4_9  and  C5_10 
REMARK    4  A    between atoms: C5_10  and  N3_11 
REMARK    5  A    between atoms: N3_11  and  C8_14 
REMARK    6  A    between atoms: C8_14  and  C9_15 
REMARK       I    between atoms: C9_15  and  N4_17 
REMARK    7  A    between atoms: N4_17  and  C10_19 
REMARK    8  A    between atoms: C10_19  and  C11_20 
REMARK    9  A    between atoms: C11_20  and  N5_21 
REMARK   10  A    between atoms: N5_21  and  C14_24 
REMARK   11  A    between atoms: C14_24  and  O3_27 
ROOT
HETATM    1  C8  UNL     1     -10.733  25.116  49.574  1.00  0.00     0.338 C 
ENDROOT
BRANCH   1   2
HETATM    2  N3  UNL     1     -11.584  24.553  48.558  1.00  0.00    -0.065 N 
HETATM    3  C6  UNL     1     -11.182  25.026  47.247  1.00  0.00     0.272 C 
HETATM    4  C7  UNL     1     -12.978  24.837  48.739  1.00  0.00     0.272 C 
BRANCH   2   5
HETATM    5  C5  UNL     1     -11.379  23.107  48.629  1.00  0.00     0.256 C 
BRANCH   5   6
HETATM    6  C4  UNL     1      -9.949  22.725  48.463  1.00  0.00     0.152 C 
BRANCH   6   7
HETATM    7  N2  UNL     1      -9.591  21.832  49.575  1.00  0.00    -0.342 N 
HETATM    8  C3  UNL     1      -9.366  20.452  49.365  1.00  0.00     0.316 C 
HETATM    9  N1  UNL     1      -9.025  19.628  50.457  1.00  0.00    -0.344 N 
HETATM   10  O1  UNL     1      -9.472  19.979  48.214  1.00  0.00    -0.247 OA
ATOM     11  H1  UNL     1      -8.941  20.027  51.392  1.00  0.00     0.164 HD
ATOM     12  H2  UNL     1      -9.504  22.215  50.516  1.00  0.00     0.164 HD
BRANCH   9  13
HETATM   13  C2  UNL     1      -8.794  18.220  50.248  1.00  0.00     0.120 C 
HETATM   14  C1  UNL     1      -8.752  17.546  51.607  1.00  0.00     0.026 C 
ENDBRANCH   9  13
ENDBRANCH   6   7
ENDBRANCH   5   6
ENDBRANCH   2   5
ENDBRANCH   1   2
BRANCH   1  15
HETATM   15  C9  UNL     1     -11.388  25.427  50.844  1.00  0.00     0.243 C 
HETATM   16  O2  UNL     1     -11.800  26.578  51.077  1.00  0.00    -0.272 OA
HETATM   17  N4  UNL     1     -11.560  24.424  51.822  1.00  0.00    -0.358 N 
ATOM     18  H4  UNL     1     -11.211  23.494  51.589  1.00  0.00     0.162 HD
BRANCH  17  19
HETATM   19  C10 UNL     1     -12.173  24.575  53.104  1.00  0.00     0.150 C 
BRANCH  19  20
HETATM   20  C11 UNL     1     -13.630  24.257  53.057  1.00  0.00     0.259 C 
BRANCH  20  21
HETATM   21  N5  UNL     1     -14.465  25.347  53.514  1.00  0.00    -0.042 N 
HETATM   22  C12 UNL     1     -13.575  26.339  54.116  1.00  0.00     0.276 C 
HETATM   23  C13 UNL     1     -15.097  25.968  52.389  1.00  0.00     0.276 C 
BRANCH  21  24
HETATM   24  C14 UNL     1     -15.428  24.971  54.494  1.00  0.00     0.220 C 
HETATM   25  C15 UNL     1     -16.332  23.904  53.884  1.00  0.00     0.078 C 
HETATM   26  C16 UNL     1     -16.325  26.099  54.939  1.00  0.00     0.078 C 
BRANCH  24  27
HETATM   27  O3  UNL     1     -14.862  24.383  55.634  1.00  0.00    -0.365 OA
ATOM     28  H3  UNL     1     -15.046  23.454  55.710  1.00  0.00     0.212 HD
ENDBRANCH  24  27
ENDBRANCH  21  24
ENDBRANCH  20  21
ENDBRANCH  19  20
ENDBRANCH  17  19
ENDBRANCH   1  15
TORSDOF 11
ENDMDL
MODEL 5
REMARK VINA RESULT: -5.325494634      3.261      7.227
REMARK  11 active torsions:
REMARK  status: ('A' for Active; 'I' for Inactive)
REMARK    1  A    between atoms: C2_2  and  N1_3 
REMARK       I    between atoms: N1_3  and  C3_5 
REMARK       I    between atoms: C3_5  and  N2_7 
REMARK    2  A    between atoms: N2_7  and  C4_9 
REMARK    3  A    between atoms: C4_9  and  C5_10 
REMARK    4  A    between atoms: C5_10  and  N3_11 
REMARK    5  A    between atoms: N3_11  and  C8_14 
REMARK    6  A    between atoms: C8_14  and  C9_15 
REMARK       I    between atoms: C9_15  and  N4_17 
REMARK    7  A    between atoms: N4_17  and  C10_19 
REMARK    8  A    between atoms: C10_19  and  C11_20 
REMARK    9  A    between atoms: C11_20  and  N5_21 
REMARK   10  A    between atoms: N5_21  and  C14_24 
REMARK   11  A    between atoms: C14_24  and  O3_27 
ROOT
HETATM    1  C8  UNL     1     -12.427  24.055  48.593  1.00  0.00     0.338 C 
ENDROOT
BRANCH   1   2
HETATM    2  N3  UNL     1     -11.086  24.418  48.215  1.00  0.00    -0.065 N 
HETATM    3  C6  UNL     1     -10.539  25.374  49.159  1.00  0.00     0.272 C 
HETATM    4  C7  UNL     1     -10.980  24.969  46.895  1.00  0.00     0.272 C 
BRANCH   2   5
HETATM    5  C5  UNL     1     -10.309  23.181  48.279  1.00  0.00     0.256 C 
BRANCH   5   6
HETATM    6  C4  UNL     1     -10.464  22.479  49.584  1.00  0.00     0.152 C 
BRANCH   6   7
HETATM    7  N2  UNL     1      -9.804  21.170  49.469  1.00  0.00    -0.342 N 
HETATM    8  C3  UNL     1      -9.210  20.546  50.590  1.00  0.00     0.316 C 
HETATM    9  N1  UNL     1      -8.585  19.291  50.440  1.00  0.00    -0.344 N 
HETATM   10  O1  UNL     1      -9.246  21.115  51.702  1.00  0.00    -0.247 OA
ATOM     11  H1  UNL     1      -8.564  18.837  49.527  1.00  0.00     0.164 HD
ATOM     12  H2  UNL     1      -9.773  20.703  48.563  1.00  0.00     0.164 HD
BRANCH   9  13
HETATM   13  C2  UNL     1      -7.978  18.652  51.581  1.00  0.00     0.120 C 
HETATM   14  C1  UNL     1      -8.759  17.384  51.876  1.00  0.00     0.026 C 
ENDBRANCH   9  13
ENDBRANCH   6   7
ENDBRANCH   5   6
ENDBRANCH   2   5
ENDBRANCH   1   2
BRANCH   1  15
HETATM   15  C9  UNL     1     -13.268  25.153  49.068  1.00  0.00     0.243 C 
HETATM   16  O2  UNL     1     -13.918  25.845  48.263  1.00  0.00    -0.272 OA
HETATM   17  N4  UNL     1     -13.352  25.442  50.447  1.00  0.00    -0.358 N 
ATOM     18  H4  UNL     1     -12.806  24.849  51.072  1.00  0.00     0.162 HD
BRANCH  17  19
HETATM   19  C10 UNL     1     -14.122  26.478  51.059  1.00  0.00     0.150 C 
BRANCH  19  20
HETATM   20  C11 UNL     1     -13.901  26.529  52.534  1.00  0.00     0.259 C 
BRANCH  20  21
HETATM   21  N5  UNL     1     -15.023  26.023  53.296  1.00  0.00    -0.042 N 
HETATM   22  C12 UNL     1     -15.242  26.959  54.398  1.00  0.00     0.276 C 
HETATM   23  C13 UNL     1     -16.200  26.039  52.481  1.00  0.00     0.276 C 
BRANCH  21  24
HETATM   24  C14 UNL     1     -14.811  24.731  53.856  1.00  0.00     0.220 C 
HETATM   25  C15 UNL     1     -16.141  23.984  53.839  1.00  0.00     0.078 C 
HETATM   26  C16 UNL     1     -14.340  24.751  55.289  1.00  0.00     0.078 C 
BRANCH  24  27
HETATM   27  O3  UNL     1     -13.923  23.940  53.113  1.00  0.00    -0.365 OA
ATOM     28  H3  UNL     1     -13.629  23.164  53.576  1.00  0.00     0.212 HD
ENDBRANCH  24  27
ENDBRANCH  21  24
ENDBRANCH  20  21
ENDBRANCH  19  20
ENDBRANCH  17  19
ENDBRANCH   1  15
TORSDOF 11
ENDMDL
