MODEL 1
REMARK VINA RESULT: -6.219776695      0.000      0.000
REMARK  10 active torsions:
REMARK  status: ('A' for Active; 'I' for Inactive)
REMARK    1  A    between atoms: C2_2  and  N1_3 
REMARK    2  A    between atoms: N1_3  and  C5_6 
REMARK    3  A    between atoms: C5_6  and  C6_7 
REMARK    4  A    between atoms: C6_7  and  N2_8 
REMARK       I    between atoms: N2_8  and  C7_10 
REMARK    5  A    between atoms: C7_10  and  C8_12 
REMARK    6  A    between atoms: C8_12  and  C9_13 
REMARK    7  A    between atoms: C8_12  and  N3_20 
REMARK    8  A    between atoms: C9_13  and  C10_14 
REMARK       I    between atoms: N3_20  and  C16_22 
REMARK    9  A    between atoms: C16_22  and  C17_24 
REMARK   10  A    between atoms: C17_24  and  N4_25 
ROOT
HETATM    1  C8  UNL     1     -10.835  22.578  48.826  1.00  0.00     0.177 C 
ENDROOT
BRANCH   1   2
HETATM    2  C7  UNL     1      -9.950  23.534  48.141  1.00  0.00     0.240 C 
HETATM    3  N2  UNL     1      -9.915  23.527  46.719  1.00  0.00    -0.358 N 
ATOM      4  H2  UNL     1     -10.513  22.884  46.200  1.00  0.00     0.162 HD
HETATM    5  O1  UNL     1      -9.242  24.321  48.830  1.00  0.00    -0.271 OA
BRANCH   3   6
HETATM    6  C6  UNL     1      -9.042  24.420  46.012  1.00  0.00     0.150 C 
BRANCH   6   7
HETATM    7  C5  UNL     1      -8.339  23.760  44.895  1.00  0.00     0.256 C 
BRANCH   7   8
HETATM    8  N1  UNL     1      -7.891  24.692  43.869  1.00  0.00    -0.073 N 
HETATM    9  C3  UNL     1      -7.563  25.956  44.485  1.00  0.00     0.272 C 
HETATM   10  C4  UNL     1      -9.042  24.929  42.995  1.00  0.00     0.272 C 
BRANCH   8  11
HETATM   11  C2  UNL     1      -6.754  24.223  43.138  1.00  0.00     0.232 C 
HETATM   12  C1  UNL     1      -5.500  24.482  43.957  1.00  0.00     0.034 C 
ENDBRANCH   8  11
ENDBRANCH   7   8
ENDBRANCH   6   7
ENDBRANCH   3   6
ENDBRANCH   1   2
BRANCH   1  13
HETATM   13  C9  UNL     1     -11.972  23.192  49.525  1.00  0.00     0.039 C 
BRANCH  13  14
HETATM   14  C10 UNL     1     -12.421  24.558  49.160  1.00  0.00    -0.012 C 
HETATM   15  C11 UNL     1     -13.753  24.747  48.558  1.00  0.00     0.005 C 
HETATM   16  C12 UNL     1     -14.207  26.220  48.713  1.00  0.00     0.000 C 
HETATM   17  C13 UNL     1     -14.528  26.493  50.169  1.00  0.00     0.000 C 
HETATM   18  C14 UNL     1     -13.747  25.489  50.996  1.00  0.00     0.000 C 
HETATM   19  C15 UNL     1     -12.350  25.421  50.435  1.00  0.00     0.005 C 
ENDBRANCH  13  14
ENDBRANCH   1  13
BRANCH   1  20
HETATM   20  N3  UNL     1     -10.049  21.731  49.742  1.00  0.00    -0.346 N 
HETATM   21  C16 UNL     1      -9.669  20.418  49.368  1.00  0.00     0.237 C 
HETATM   22  O2  UNL     1     -10.001  19.940  48.229  1.00  0.00    -0.272 OA
ATOM     23  H3  UNL     1      -9.775  22.094  50.656  1.00  0.00     0.163 HD
BRANCH  21  24
HETATM   24  C17 UNL     1      -8.880  19.531  50.255  1.00  0.00     0.241 C 
BRANCH  24  25
HETATM   25  N4  UNL     1      -9.005  18.154  49.881  1.00  0.00    -0.334 N 
HETATM   26  N5  UNL     1      -9.999  17.501  50.199  1.00  0.00    -0.349 N 
ATOM     27  H52 UNL     1     -10.734  17.962  50.736  1.00  0.00     0.176 HD
ATOM     28  H51 UNL     1     -10.088  16.521  49.933  1.00  0.00     0.176 HD
ATOM     29  H4  UNL     1      -8.260  17.709  49.345  1.00  0.00     0.180 HD
ENDBRANCH  24  25
ENDBRANCH  21  24
ENDBRANCH   1  20
TORSDOF 10
ENDMDL
MODEL 2
REMARK VINA RESULT: -6.202035848      2.644      6.738
REMARK  10 active torsions:
REMARK  status: ('A' for Active; 'I' for Inactive)
REMARK    1  A    between atoms: C2_2  and  N1_3 
REMARK    2  A    between atoms: N1_3  and  C5_6 
REMARK    3  A    between atoms: C5_6  and  C6_7 
REMARK    4  A    between atoms: C6_7  and  N2_8 
REMARK       I    between atoms: N2_8  and  C7_10 
REMARK    5  A    between atoms: C7_10  and  C8_12 
REMARK    6  A    between atoms: C8_12  and  C9_13 
REMARK    7  A    between atoms: C8_12  and  N3_20 
REMARK    8  A    between atoms: C9_13  and  C10_14 
REMARK       I    between atoms: N3_20  and  C16_22 
REMARK    9  A    between atoms: C16_22  and  C17_24 
REMARK   10  A    between atoms: C17_24  and  N4_25 
ROOT
HETATM    1  C8  UNL     1     -10.131  22.393  49.388  1.00  0.00     0.177 C 
ENDROOT
BRANCH   1   2
HETATM    2  C7  UNL     1     -10.730  22.790  50.672  1.00  0.00     0.240 C 
HETATM    3  N2  UNL     1     -11.783  23.746  50.663  1.00  0.00    -0.358 N 
ATOM      4  H2  UNL     1     -12.120  24.122  49.777  1.00  0.00     0.162 HD
HETATM    5  O1  UNL     1     -10.289  22.282  51.741  1.00  0.00    -0.271 OA
BRANCH   3   6
HETATM    6  C6  UNL     1     -12.374  24.185  51.895  1.00  0.00     0.150 C 
BRANCH   6   7
HETATM    7  C5  UNL     1     -13.366  25.259  51.698  1.00  0.00     0.256 C 
BRANCH   7   8
HETATM    8  N1  UNL     1     -14.278  25.410  52.824  1.00  0.00    -0.073 N 
HETATM    9  C3  UNL     1     -15.496  26.037  52.369  1.00  0.00     0.272 C 
HETATM   10  C4  UNL     1     -13.637  26.346  53.751  1.00  0.00     0.272 C 
BRANCH   8  11
HETATM   11  C2  UNL     1     -14.603  24.170  53.458  1.00  0.00     0.232 C 
HETATM   12  C1  UNL     1     -16.085  24.163  53.796  1.00  0.00     0.034 C 
ENDBRANCH   8  11
ENDBRANCH   7   8
ENDBRANCH   6   7
ENDBRANCH   3   6
ENDBRANCH   1   2
BRANCH   1  13
HETATM   13  C9  UNL     1     -10.628  23.142  48.226  1.00  0.00     0.039 C 
BRANCH  13  14
HETATM   14  C10 UNL     1      -9.793  24.203  47.611  1.00  0.00    -0.012 C 
HETATM   15  C11 UNL     1      -9.405  24.091  46.194  1.00  0.00     0.005 C 
HETATM   16  C12 UNL     1      -8.986  25.477  45.642  1.00  0.00     0.000 C 
HETATM   17  C13 UNL     1     -10.213  26.358  45.518  1.00  0.00     0.000 C 
HETATM   18  C14 UNL     1     -11.245  25.828  46.496  1.00  0.00     0.000 C 
HETATM   19  C15 UNL     1     -10.538  25.539  47.795  1.00  0.00     0.005 C 
ENDBRANCH  13  14
ENDBRANCH   1  13
BRANCH   1  20
HETATM   20  N3  UNL     1     -10.290  20.940  49.185  1.00  0.00    -0.346 N 
HETATM   21  C16 UNL     1      -9.227  20.049  49.472  1.00  0.00     0.237 C 
HETATM   22  O2  UNL     1      -8.108  20.485  49.912  1.00  0.00    -0.272 OA
ATOM     23  H3  UNL     1     -11.175  20.574  48.835  1.00  0.00     0.163 HD
BRANCH  21  24
HETATM   24  C17 UNL     1      -9.340  18.583  49.284  1.00  0.00     0.241 C 
BRANCH  24  25
HETATM   25  N4  UNL     1      -9.472  17.894  50.533  1.00  0.00    -0.334 N 
HETATM   26  N5  UNL     1      -8.480  17.486  51.137  1.00  0.00    -0.349 N 
ATOM     27  H52 UNL     1      -7.559  17.649  50.729  1.00  0.00     0.176 HD
ATOM     28  H51 UNL     1      -8.574  16.995  52.026  1.00  0.00     0.176 HD
ATOM     29  H4  UNL     1     -10.400  17.739  50.927  1.00  0.00     0.180 HD
ENDBRANCH  24  25
ENDBRANCH  21  24
ENDBRANCH   1  20
TORSDOF 10
ENDMDL
MODEL 3
REMARK VINA RESULT: -6.174323010      2.715      5.002
REMARK  10 active torsions:
REMARK  status: ('A' for Active; 'I' for Inactive)
REMARK    1  A    between atoms: C2_2  and  N1_3 
REMARK    2  A    between atoms: N1_3  and  C5_6 
REMARK    3  A    between atoms: C5_6  and  C6_7 
REMARK    4  A    between atoms: C6_7  and  N2_8 
REMARK       I    between atoms: N2_8  and  C7_10 
REMARK    5  A    between atoms: C7_10  and  C8_12 
REMARK    6  A    between atoms: C8_12  and  C9_13 
REMARK    7  A    between atoms: C8_12  and  N3_20 
REMARK    8  A    between atoms: C9_13  and  C10_14 
REMARK       I    between atoms: N3_20  and  C16_22 
REMARK    9  A    between atoms: C16_22  and  C17_24 
REMARK   10  A    between atoms: C17_24  and  N4_25 
ROOT
HETATM    1  C8  UNL     1     -10.407  23.127  49.046  1.00  0.00     0.177 C 
ENDROOT
BRANCH   1   2
HETATM    2  C7  UNL     1     -10.430  23.872  47.777  1.00  0.00     0.240 C 
HETATM    3  N2  UNL     1      -9.526  23.488  46.749  1.00  0.00    -0.358 N 
ATOM      4  H2  UNL     1      -8.898  22.698  46.894  1.00  0.00     0.162 HD
HETATM    5  O1  UNL     1     -11.239  24.832  47.641  1.00  0.00    -0.271 OA
BRANCH   3   6
HETATM    6  C6  UNL     1      -9.493  24.208  45.508  1.00  0.00     0.150 C 
BRANCH   6   7
HETATM    7  C5  UNL     1      -8.444  23.717  44.594  1.00  0.00     0.256 C 
BRANCH   7   8
HETATM    8  N1  UNL     1      -7.664  24.787  43.987  1.00  0.00    -0.073 N 
HETATM    9  C3  UNL     1      -7.115  25.625  45.027  1.00  0.00     0.272 C 
HETATM   10  C4  UNL     1      -8.611  25.610  43.231  1.00  0.00     0.272 C 
BRANCH   8  11
HETATM   11  C2  UNL     1      -6.596  24.310  43.163  1.00  0.00     0.232 C 
HETATM   12  C1  UNL     1      -5.291  24.424  43.933  1.00  0.00     0.034 C 
ENDBRANCH   8  11
ENDBRANCH   7   8
ENDBRANCH   6   7
ENDBRANCH   3   6
ENDBRANCH   1   2
BRANCH   1  13
HETATM   13  C9  UNL     1     -10.350  21.667  48.895  1.00  0.00     0.039 C 
BRANCH  13  14
HETATM   14  C10 UNL     1      -9.164  20.914  49.372  1.00  0.00    -0.012 C 
HETATM   15  C11 UNL     1      -8.949  20.741  50.820  1.00  0.00     0.005 C 
HETATM   16  C12 UNL     1      -7.984  19.556  51.080  1.00  0.00     0.000 C 
HETATM   17  C13 UNL     1      -8.690  18.256  50.754  1.00  0.00     0.000 C 
HETATM   18  C14 UNL     1      -9.793  18.580  49.764  1.00  0.00     0.000 C 
HETATM   19  C15 UNL     1      -9.219  19.514  48.730  1.00  0.00     0.005 C 
ENDBRANCH  13  14
ENDBRANCH   1  13
BRANCH   1  20
HETATM   20  N3  UNL     1     -11.553  23.525  49.885  1.00  0.00    -0.346 N 
HETATM   21  C16 UNL     1     -11.366  23.878  51.245  1.00  0.00     0.237 C 
HETATM   22  O2  UNL     1     -10.201  23.858  51.772  1.00  0.00    -0.272 OA
ATOM     23  H3  UNL     1     -12.490  23.547  49.482  1.00  0.00     0.163 HD
BRANCH  21  24
HETATM   24  C17 UNL     1     -12.486  24.285  52.126  1.00  0.00     0.241 C 
BRANCH  24  25
HETATM   25  N4  UNL     1     -12.329  23.780  53.457  1.00  0.00    -0.334 N 
HETATM   26  N5  UNL     1     -11.748  24.440  54.318  1.00  0.00    -0.349 N 
ATOM     27  H52 UNL     1     -11.379  25.357  54.064  1.00  0.00     0.176 HD
ATOM     28  H51 UNL     1     -11.637  24.080  55.266  1.00  0.00     0.176 HD
ATOM     29  H4  UNL     1     -12.704  22.861  53.694  1.00  0.00     0.180 HD
ENDBRANCH  24  25
ENDBRANCH  21  24
ENDBRANCH   1  20
TORSDOF 10
ENDMDL
MODEL 4
REMARK VINA RESULT: -6.147615854      1.071      1.715
REMARK  10 active torsions:
REMARK  status: ('A' for Active; 'I' for Inactive)
REMARK    1  A    between atoms: C2_2  and  N1_3 
REMARK    2  A    between atoms: N1_3  and  C5_6 
REMARK    3  A    between atoms: C5_6  and  C6_7 
REMARK    4  A    between atoms: C6_7  and  N2_8 
REMARK       I    between atoms: N2_8  and  C7_10 
REMARK    5  A    between atoms: C7_10  and  C8_12 
REMARK    6  A    between atoms: C8_12  and  C9_13 
REMARK    7  A    between atoms: C8_12  and  N3_20 
REMARK    8  A    between atoms: C9_13  and  C10_14 
REMARK       I    between atoms: N3_20  and  C16_22 
REMARK    9  A    between atoms: C16_22  and  C17_24 
REMARK   10  A    between atoms: C17_24  and  N4_25 
ROOT
HETATM    1  C8  UNL     1     -10.976  22.799  49.056  1.00  0.00     0.177 C 
ENDROOT
BRANCH   1   2
HETATM    2  C7  UNL     1     -10.060  23.652  48.281  1.00  0.00     0.240 C 
HETATM    3  N2  UNL     1     -10.058  23.531  46.864  1.00  0.00    -0.358 N 
ATOM      4  H2  UNL     1     -10.698  22.881  46.408  1.00  0.00     0.162 HD
HETATM    5  O1  UNL     1      -9.299  24.453  48.892  1.00  0.00    -0.271 OA
BRANCH   3   6
HETATM    6  C6  UNL     1      -9.158  24.320  46.072  1.00  0.00     0.150 C 
BRANCH   6   7
HETATM    7  C5  UNL     1      -9.862  25.262  45.181  1.00  0.00     0.256 C 
BRANCH   7   8
HETATM    8  N1  UNL     1      -9.656  24.979  43.768  1.00  0.00    -0.073 N 
HETATM    9  C3  UNL     1      -8.752  23.861  43.633  1.00  0.00     0.272 C 
HETATM   10  C4  UNL     1      -8.975  26.149  43.208  1.00  0.00     0.272 C 
BRANCH   8  11
HETATM   11  C2  UNL     1     -10.868  24.683  43.068  1.00  0.00     0.232 C 
HETATM   12  C1  UNL     1     -10.977  25.601  41.861  1.00  0.00     0.034 C 
ENDBRANCH   8  11
ENDBRANCH   7   8
ENDBRANCH   6   7
ENDBRANCH   3   6
ENDBRANCH   1   2
BRANCH   1  13
HETATM   13  C9  UNL     1     -12.028  23.530  49.776  1.00  0.00     0.039 C 
BRANCH  13  14
HETATM   14  C10 UNL     1     -12.517  24.831  49.259  1.00  0.00    -0.012 C 
HETATM   15  C11 UNL     1     -13.785  24.883  48.509  1.00  0.00     0.005 C 
HETATM   16  C12 UNL     1     -14.343  26.329  48.500  1.00  0.00     0.000 C 
HETATM   17  C13 UNL     1     -14.836  26.684  49.888  1.00  0.00     0.000 C 
HETATM   18  C14 UNL     1     -14.090  25.798  50.868  1.00  0.00     0.000 C 
HETATM   19  C15 UNL     1     -12.639  25.787  50.462  1.00  0.00     0.005 C 
ENDBRANCH  13  14
ENDBRANCH   1  13
BRANCH   1  20
HETATM   20  N3  UNL     1     -10.207  21.940  49.976  1.00  0.00    -0.346 N 
HETATM   21  C16 UNL     1      -9.784  20.648  49.577  1.00  0.00     0.237 C 
HETATM   22  O2  UNL     1     -10.060  20.200  48.411  1.00  0.00    -0.272 OA
ATOM     23  H3  UNL     1      -9.978  22.280  50.911  1.00  0.00     0.163 HD
BRANCH  21  24
HETATM   24  C17 UNL     1      -9.010  19.751  50.467  1.00  0.00     0.241 C 
BRANCH  24  25
HETATM   25  N4  UNL     1      -8.943  18.416  49.951  1.00  0.00    -0.334 N 
HETATM   26  N5  UNL     1      -9.746  17.557  50.315  1.00  0.00    -0.349 N 
ATOM     27  H52 UNL     1     -10.464  17.816  50.993  1.00  0.00     0.176 HD
ATOM     28  H51 UNL     1      -9.699  16.607  49.948  1.00  0.00     0.176 HD
ATOM     29  H4  UNL     1      -8.220  18.174  49.274  1.00  0.00     0.180 HD
ENDBRANCH  24  25
ENDBRANCH  21  24
ENDBRANCH   1  20
TORSDOF 10
ENDMDL
MODEL 5
REMARK VINA RESULT: -6.144569287      1.691      2.337
REMARK  10 active torsions:
REMARK  status: ('A' for Active; 'I' for Inactive)
REMARK    1  A    between atoms: C2_2  and  N1_3 
REMARK    2  A    between atoms: N1_3  and  C5_6 
REMARK    3  A    between atoms: C5_6  and  C6_7 
REMARK    4  A    between atoms: C6_7  and  N2_8 
REMARK       I    between atoms: N2_8  and  C7_10 
REMARK    5  A    between atoms: C7_10  and  C8_12 
REMARK    6  A    between atoms: C8_12  and  C9_13 
REMARK    7  A    between atoms: C8_12  and  N3_20 
REMARK    8  A    between atoms: C9_13  and  C10_14 
REMARK       I    between atoms: N3_20  and  C16_22 
REMARK    9  A    between atoms: C16_22  and  C17_24 
REMARK   10  A    between atoms: C17_24  and  N4_25 
ROOT
HETATM    1  C8  UNL     1     -10.495  22.695  50.432  1.00  0.00     0.177 C 
ENDROOT
BRANCH   1   2
HETATM    2  C7  UNL     1      -9.955  23.511  49.333  1.00  0.00     0.240 C 
HETATM    3  N2  UNL     1     -10.191  23.090  47.996  1.00  0.00    -0.358 N 
ATOM      4  H2  UNL     1     -10.744  22.251  47.818  1.00  0.00     0.162 HD
HETATM    5  O1  UNL     1      -9.292  24.551  49.606  1.00  0.00    -0.271 OA
BRANCH   3   6
HETATM    6  C6  UNL     1      -9.656  23.839  46.895  1.00  0.00     0.150 C 
BRANCH   6   7
HETATM    7  C5  UNL     1     -10.617  24.820  46.355  1.00  0.00     0.256 C 
BRANCH   7   8
HETATM    8  N1  UNL     1     -10.282  25.272  45.012  1.00  0.00    -0.073 N 
HETATM    9  C3  UNL     1      -9.076  26.063  45.062  1.00  0.00     0.272 C 
HETATM   10  C4  UNL     1     -11.364  26.168  44.596  1.00  0.00     0.272 C 
BRANCH   8  11
HETATM   11  C2  UNL     1     -10.095  24.197  44.085  1.00  0.00     0.232 C 
HETATM   12  C1  UNL     1      -8.783  24.407  43.347  1.00  0.00     0.034 C 
ENDBRANCH   8  11
ENDBRANCH   7   8
ENDBRANCH   6   7
ENDBRANCH   3   6
ENDBRANCH   1   2
BRANCH   1  13
HETATM   13  C9  UNL     1     -10.947  23.464  51.599  1.00  0.00     0.039 C 
BRANCH  13  14
HETATM   14  C10 UNL     1     -12.396  23.630  51.866  1.00  0.00    -0.012 C 
HETATM   15  C11 UNL     1     -12.850  23.961  53.229  1.00  0.00     0.005 C 
HETATM   16  C12 UNL     1     -14.278  24.559  53.187  1.00  0.00     0.000 C 
HETATM   17  C13 UNL     1     -14.223  25.945  52.577  1.00  0.00     0.000 C 
HETATM   18  C14 UNL     1     -12.980  26.003  51.709  1.00  0.00     0.000 C 
HETATM   19  C15 UNL     1     -12.917  24.725  50.914  1.00  0.00     0.005 C 
ENDBRANCH  13  14
ENDBRANCH   1  13
BRANCH   1  20
HETATM   20  N3  UNL     1      -9.512  21.668  50.827  1.00  0.00    -0.346 N 
HETATM   21  C16 UNL     1      -9.423  20.442  50.122  1.00  0.00     0.237 C 
HETATM   22  O2  UNL     1     -10.194  20.200  49.131  1.00  0.00    -0.272 OA
ATOM     23  H3  UNL     1      -8.888  21.843  51.615  1.00  0.00     0.163 HD
BRANCH  21  24
HETATM   24  C17 UNL     1      -8.452  19.382  50.482  1.00  0.00     0.241 C 
BRANCH  24  25
HETATM   25  N4  UNL     1      -8.829  18.108  49.947  1.00  0.00    -0.334 N 
HETATM   26  N5  UNL     1      -9.705  17.431  50.485  1.00  0.00    -0.349 N 
ATOM     27  H52 UNL     1     -10.160  17.797  51.322  1.00  0.00     0.176 HD
ATOM     28  H51 UNL     1      -9.973  16.525  50.104  1.00  0.00     0.176 HD
ATOM     29  H4  UNL     1      -8.364  17.757  49.109  1.00  0.00     0.180 HD
ENDBRANCH  24  25
ENDBRANCH  21  24
ENDBRANCH   1  20
TORSDOF 10
ENDMDL
