MODEL 1
REMARK VINA RESULT: -6.272556639      0.000      0.000
REMARK  9 active torsions:
REMARK  status: ('A' for Active; 'I' for Inactive)
REMARK    1  A    between atoms: N1_2  and  C4_5 
REMARK    2  A    between atoms: C4_5  and  C5_6 
REMARK    3  A    between atoms: C5_6  and  C6_7 
REMARK    4  A    between atoms: C6_7  and  C7_8 
REMARK    5  A    between atoms: C6_7  and  N3_13 
REMARK    6  A    between atoms: C7_8  and  N2_9 
REMARK       I    between atoms: N3_13  and  C11_15 
REMARK       I    between atoms: C11_15  and  N4_17 
REMARK    7  A    between atoms: N4_17  and  C12_19 
REMARK    8  A    between atoms: C12_19  and  C13_20 
REMARK    9  A    between atoms: C13_20  and  C14_21 
ROOT
HETATM    1  N3  UNL     1     -11.869  23.093  48.791  1.00  0.00    -0.337 N 
ATOM      2  H3  UNL     1     -12.652  22.563  48.408  1.00  0.00     0.164 HD
HETATM    3  C11 UNL     1     -10.616  22.436  48.911  1.00  0.00     0.316 C 
HETATM    4  O1  UNL     1      -9.596  23.018  49.372  1.00  0.00    -0.247 OA
HETATM    5  N4  UNL     1     -10.485  21.092  48.506  1.00  0.00    -0.343 N 
ATOM      6  H4  UNL     1     -11.297  20.601  48.131  1.00  0.00     0.164 HD
ENDROOT
BRANCH   1   7
HETATM    7  C6  UNL     1     -12.105  24.468  49.179  1.00  0.00     0.113 C 
BRANCH   7   8
HETATM    8  C5  UNL     1     -13.277  24.904  48.283  1.00  0.00     0.055 C 
BRANCH   8   9
HETATM    9  C4  UNL     1     -14.218  25.837  48.963  1.00  0.00     0.238 C 
BRANCH   9  10
HETATM   10  N1  UNL     1     -14.237  27.061  48.143  1.00  0.00    -0.079 N 
HETATM   11  C1  UNL     1     -13.356  28.006  48.760  1.00  0.00     0.271 C 
HETATM   12  C2  UNL     1     -15.590  27.577  48.235  1.00  0.00     0.271 C 
HETATM   13  C3  UNL     1     -13.903  26.765  46.768  1.00  0.00     0.271 C 
ENDBRANCH   9  10
ENDBRANCH   8   9
ENDBRANCH   7   8
BRANCH   7  14
HETATM   14  C7  UNL     1     -12.572  24.495  50.593  1.00  0.00     0.261 C 
BRANCH  14  15
HETATM   15  N2  UNL     1     -11.732  25.161  51.533  1.00  0.00    -0.077 N 
HETATM   16  C8  UNL     1     -12.565  26.038  52.345  1.00  0.00     0.271 C 
HETATM   17  C9  UNL     1     -10.779  26.064  50.856  1.00  0.00     0.271 C 
HETATM   18  C10 UNL     1     -10.932  24.305  52.367  1.00  0.00     0.271 C 
ENDBRANCH  14  15
ENDBRANCH   7  14
ENDBRANCH   1   7
BRANCH   5  19
HETATM   19  C12 UNL     1      -9.234  20.406  48.614  1.00  0.00     0.125 C 
BRANCH  19  20
HETATM   20  C13 UNL     1      -9.403  19.043  49.263  1.00  0.00     0.035 C 
BRANCH  20  21
HETATM   21  C14 UNL     1      -9.148  19.211  50.741  1.00  0.00     0.097 C 
HETATM   22  C15 UNL     1      -7.811  19.773  51.108  1.00  0.00     0.136 C 
HETATM   23  N5  UNL     1      -7.555  18.595  51.931  1.00  0.00    -0.360 N 
HETATM   24  C16 UNL     1      -8.664  17.936  51.334  1.00  0.00     0.223 C 
ATOM     25  H5  UNL     1      -6.865  18.348  52.641  1.00  0.00     0.162 HD
HETATM   26  O2  UNL     1      -9.055  16.742  51.327  1.00  0.00    -0.273 OA
ENDBRANCH  20  21
ENDBRANCH  19  20
ENDBRANCH   5  19
TORSDOF 9
ENDMDL
MODEL 2
REMARK VINA RESULT: -6.127171396      2.259      3.656
REMARK  9 active torsions:
REMARK  status: ('A' for Active; 'I' for Inactive)
REMARK    1  A    between atoms: N1_2  and  C4_5 
REMARK    2  A    between atoms: C4_5  and  C5_6 
REMARK    3  A    between atoms: C5_6  and  C6_7 
REMARK    4  A    between atoms: C6_7  and  C7_8 
REMARK    5  A    between atoms: C6_7  and  N3_13 
REMARK    6  A    between atoms: C7_8  and  N2_9 
REMARK       I    between atoms: N3_13  and  C11_15 
REMARK       I    between atoms: C11_15  and  N4_17 
REMARK    7  A    between atoms: N4_17  and  C12_19 
REMARK    8  A    between atoms: C12_19  and  C13_20 
REMARK    9  A    between atoms: C13_20  and  C14_21 
ROOT
HETATM    1  N3  UNL     1     -11.394  23.478  52.187  1.00  0.00    -0.337 N 
ATOM      2  H3  UNL     1     -11.059  23.405  53.147  1.00  0.00     0.164 HD
HETATM    3  C11 UNL     1     -10.705  22.749  51.182  1.00  0.00     0.316 C 
HETATM    4  O1  UNL     1     -11.055  22.782  49.971  1.00  0.00    -0.247 OA
HETATM    5  N4  UNL     1      -9.591  21.958  51.529  1.00  0.00    -0.343 N 
ATOM      6  H4  UNL     1      -9.289  21.916  52.502  1.00  0.00     0.164 HD
ENDROOT
BRANCH   1   7
HETATM    7  C6  UNL     1     -12.546  24.319  51.933  1.00  0.00     0.113 C 
BRANCH   7   8
HETATM    8  C5  UNL     1     -13.361  24.225  53.235  1.00  0.00     0.055 C 
BRANCH   8   9
HETATM    9  C4  UNL     1     -13.832  25.550  53.727  1.00  0.00     0.238 C 
BRANCH   9  10
HETATM   10  N1  UNL     1     -15.304  25.487  53.708  1.00  0.00    -0.079 N 
HETATM   11  C1  UNL     1     -15.749  26.143  52.516  1.00  0.00     0.271 C 
HETATM   12  C2  UNL     1     -15.748  26.269  54.846  1.00  0.00     0.271 C 
HETATM   13  C3  UNL     1     -15.763  24.120  53.827  1.00  0.00     0.271 C 
ENDBRANCH   9  10
ENDBRANCH   8   9
ENDBRANCH   7   8
BRANCH   7  14
HETATM   14  C7  UNL     1     -12.088  25.727  51.777  1.00  0.00     0.261 C 
BRANCH  14  15
HETATM   15  N2  UNL     1     -12.253  26.316  50.489  1.00  0.00    -0.077 N 
HETATM   16  C8  UNL     1     -12.809  27.652  50.669  1.00  0.00     0.271 C 
HETATM   17  C9  UNL     1     -13.263  25.590  49.692  1.00  0.00     0.271 C 
HETATM   18  C10 UNL     1     -11.072  26.364  49.671  1.00  0.00     0.271 C 
ENDBRANCH  14  15
ENDBRANCH   7  14
ENDBRANCH   1   7
BRANCH   5  19
HETATM   19  C12 UNL     1      -8.877  21.212  50.537  1.00  0.00     0.125 C 
BRANCH  19  20
HETATM   20  C13 UNL     1      -7.973  20.169  51.172  1.00  0.00     0.035 C 
BRANCH  20  21
HETATM   21  C14 UNL     1      -8.839  18.991  51.551  1.00  0.00     0.097 C 
HETATM   22  C15 UNL     1      -8.233  18.029  52.521  1.00  0.00     0.136 C 
HETATM   23  N5  UNL     1      -8.438  16.949  51.560  1.00  0.00    -0.360 N 
HETATM   24  C16 UNL     1      -8.708  17.906  50.544  1.00  0.00     0.223 C 
ATOM     25  H5  UNL     1      -8.402  15.930  51.601  1.00  0.00     0.162 HD
HETATM   26  O2  UNL     1      -8.796  17.832  49.292  1.00  0.00    -0.273 OA
ENDBRANCH  20  21
ENDBRANCH  19  20
ENDBRANCH   5  19
TORSDOF 9
ENDMDL
MODEL 3
REMARK VINA RESULT: -6.109063032      1.030      1.414
REMARK  9 active torsions:
REMARK  status: ('A' for Active; 'I' for Inactive)
REMARK    1  A    between atoms: N1_2  and  C4_5 
REMARK    2  A    between atoms: C4_5  and  C5_6 
REMARK    3  A    between atoms: C5_6  and  C6_7 
REMARK    4  A    between atoms: C6_7  and  C7_8 
REMARK    5  A    between atoms: C6_7  and  N3_13 
REMARK    6  A    between atoms: C7_8  and  N2_9 
REMARK       I    between atoms: N3_13  and  C11_15 
REMARK       I    between atoms: C11_15  and  N4_17 
REMARK    7  A    between atoms: N4_17  and  C12_19 
REMARK    8  A    between atoms: C12_19  and  C13_20 
REMARK    9  A    between atoms: C13_20  and  C14_21 
ROOT
HETATM    1  N3  UNL     1     -11.741  23.120  48.603  1.00  0.00    -0.337 N 
ATOM      2  H3  UNL     1     -12.535  22.686  48.133  1.00  0.00     0.164 HD
HETATM    3  C11 UNL     1     -10.588  22.325  48.833  1.00  0.00     0.316 C 
HETATM    4  O1  UNL     1      -9.562  22.783  49.406  1.00  0.00    -0.247 OA
HETATM    5  N4  UNL     1     -10.567  20.979  48.414  1.00  0.00    -0.343 N 
ATOM      6  H4  UNL     1     -11.386  20.587  47.948  1.00  0.00     0.164 HD
ENDROOT
BRANCH   1   7
HETATM    7  C6  UNL     1     -11.861  24.509  48.996  1.00  0.00     0.113 C 
BRANCH   7   8
HETATM    8  C5  UNL     1     -12.689  25.139  47.863  1.00  0.00     0.055 C 
BRANCH   8   9
HETATM    9  C4  UNL     1     -14.040  25.586  48.303  1.00  0.00     0.238 C 
BRANCH   9  10
HETATM   10  N1  UNL     1     -14.268  26.886  47.650  1.00  0.00    -0.079 N 
HETATM   11  C1  UNL     1     -13.636  26.841  46.366  1.00  0.00     0.271 C 
HETATM   12  C2  UNL     1     -13.570  27.864  48.463  1.00  0.00     0.271 C 
HETATM   13  C3  UNL     1     -15.680  27.193  47.594  1.00  0.00     0.271 C 
ENDBRANCH   9  10
ENDBRANCH   8   9
ENDBRANCH   7   8
BRANCH   7  14
HETATM   14  C7  UNL     1     -12.662  24.586  50.249  1.00  0.00     0.261 C 
BRANCH  14  15
HETATM   15  N2  UNL     1     -11.968  24.979  51.431  1.00  0.00    -0.077 N 
HETATM   16  C8  UNL     1     -12.816  25.908  52.168  1.00  0.00     0.271 C 
HETATM   17  C9  UNL     1     -10.752  25.752  51.107  1.00  0.00     0.271 C 
HETATM   18  C10 UNL     1     -11.532  23.905  52.281  1.00  0.00     0.271 C 
ENDBRANCH  14  15
ENDBRANCH   7  14
ENDBRANCH   1   7
BRANCH   5  19
HETATM   19  C12 UNL     1      -9.417  20.155  48.631  1.00  0.00     0.125 C 
BRANCH  19  20
HETATM   20  C13 UNL     1      -9.713  19.042  49.622  1.00  0.00     0.035 C 
BRANCH  20  21
HETATM   21  C14 UNL     1      -8.482  18.862  50.479  1.00  0.00     0.097 C 
HETATM   22  C15 UNL     1      -8.508  17.694  51.412  1.00  0.00     0.136 C 
HETATM   23  N5  UNL     1      -8.274  18.601  52.533  1.00  0.00    -0.360 N 
HETATM   24  C16 UNL     1      -8.568  19.711  51.696  1.00  0.00     0.223 C 
ATOM     25  H5  UNL     1      -8.010  18.484  53.512  1.00  0.00     0.162 HD
HETATM   26  O2  UNL     1      -8.804  20.924  51.925  1.00  0.00    -0.273 OA
ENDBRANCH  20  21
ENDBRANCH  19  20
ENDBRANCH   5  19
TORSDOF 9
ENDMDL
MODEL 4
REMARK VINA RESULT: -6.088993920      1.015      1.669
REMARK  9 active torsions:
REMARK  status: ('A' for Active; 'I' for Inactive)
REMARK    1  A    between atoms: N1_2  and  C4_5 
REMARK    2  A    between atoms: C4_5  and  C5_6 
REMARK    3  A    between atoms: C5_6  and  C6_7 
REMARK    4  A    between atoms: C6_7  and  C7_8 
REMARK    5  A    between atoms: C6_7  and  N3_13 
REMARK    6  A    between atoms: C7_8  and  N2_9 
REMARK       I    between atoms: N3_13  and  C11_15 
REMARK       I    between atoms: C11_15  and  N4_17 
REMARK    7  A    between atoms: N4_17  and  C12_19 
REMARK    8  A    between atoms: C12_19  and  C13_20 
REMARK    9  A    between atoms: C13_20  and  C14_21 
ROOT
HETATM    1  N3  UNL     1     -11.730  23.097  48.627  1.00  0.00    -0.337 N 
ATOM      2  H3  UNL     1     -12.521  22.667  48.148  1.00  0.00     0.164 HD
HETATM    3  C11 UNL     1     -10.579  22.301  48.862  1.00  0.00     0.316 C 
HETATM    4  O1  UNL     1      -9.558  22.755  49.446  1.00  0.00    -0.247 OA
HETATM    5  N4  UNL     1     -10.556  20.957  48.436  1.00  0.00    -0.343 N 
ATOM      6  H4  UNL     1     -11.371  20.567  47.962  1.00  0.00     0.164 HD
ENDROOT
BRANCH   1   7
HETATM    7  C6  UNL     1     -11.852  24.485  49.027  1.00  0.00     0.113 C 
BRANCH   7   8
HETATM    8  C5  UNL     1     -12.689  25.116  47.900  1.00  0.00     0.055 C 
BRANCH   8   9
HETATM    9  C4  UNL     1     -14.036  25.563  48.352  1.00  0.00     0.238 C 
BRANCH   9  10
HETATM   10  N1  UNL     1     -14.216  26.920  47.807  1.00  0.00    -0.079 N 
HETATM   11  C1  UNL     1     -15.621  27.189  47.775  1.00  0.00     0.271 C 
HETATM   12  C2  UNL     1     -13.735  26.863  46.439  1.00  0.00     0.271 C 
HETATM   13  C3  UNL     1     -13.454  27.885  48.568  1.00  0.00     0.271 C 
ENDBRANCH   9  10
ENDBRANCH   8   9
ENDBRANCH   7   8
BRANCH   7  14
HETATM   14  C7  UNL     1     -12.646  24.554  50.284  1.00  0.00     0.261 C 
BRANCH  14  15
HETATM   15  N2  UNL     1     -11.978  25.062  51.437  1.00  0.00    -0.077 N 
HETATM   16  C8  UNL     1     -11.592  23.933  52.273  1.00  0.00     0.271 C 
HETATM   17  C9  UNL     1     -12.892  25.861  52.278  1.00  0.00     0.271 C 
HETATM   18  C10 UNL     1     -10.848  25.912  51.176  1.00  0.00     0.271 C 
ENDBRANCH  14  15
ENDBRANCH   7  14
ENDBRANCH   1   7
BRANCH   5  19
HETATM   19  C12 UNL     1      -9.408  20.131  48.658  1.00  0.00     0.125 C 
BRANCH  19  20
HETATM   20  C13 UNL     1      -9.710  19.017  49.646  1.00  0.00     0.035 C 
BRANCH  20  21
HETATM   21  C14 UNL     1      -8.480  18.825  50.500  1.00  0.00     0.097 C 
HETATM   22  C15 UNL     1      -8.518  17.663  51.440  1.00  0.00     0.136 C 
HETATM   23  N5  UNL     1      -8.269  18.572  52.555  1.00  0.00    -0.360 N 
HETATM   24  C16 UNL     1      -8.550  19.682  51.713  1.00  0.00     0.223 C 
ATOM     25  H5  UNL     1      -8.003  18.458  53.534  1.00  0.00     0.162 HD
HETATM   26  O2  UNL     1      -8.769  20.900  51.936  1.00  0.00    -0.273 OA
ENDBRANCH  20  21
ENDBRANCH  19  20
ENDBRANCH   5  19
TORSDOF 9
ENDMDL
MODEL 5
REMARK VINA RESULT: -5.997497920      3.046      3.678
REMARK  9 active torsions:
REMARK  status: ('A' for Active; 'I' for Inactive)
REMARK    1  A    between atoms: N1_2  and  C4_5 
REMARK    2  A    between atoms: C4_5  and  C5_6 
REMARK    3  A    between atoms: C5_6  and  C6_7 
REMARK    4  A    between atoms: C6_7  and  C7_8 
REMARK    5  A    between atoms: C6_7  and  N3_13 
REMARK    6  A    between atoms: C7_8  and  N2_9 
REMARK       I    between atoms: N3_13  and  C11_15 
REMARK       I    between atoms: C11_15  and  N4_17 
REMARK    7  A    between atoms: N4_17  and  C12_19 
REMARK    8  A    between atoms: C12_19  and  C13_20 
REMARK    9  A    between atoms: C13_20  and  C14_21 
ROOT
HETATM    1  N3  UNL     1     -11.276  23.354  52.163  1.00  0.00    -0.337 N 
ATOM      2  H3  UNL     1     -11.812  22.609  52.608  1.00  0.00     0.164 HD
HETATM    3  C11 UNL     1     -10.206  22.985  51.306  1.00  0.00     0.316 C 
HETATM    4  O1  UNL     1      -9.495  23.843  50.715  1.00  0.00    -0.247 OA
HETATM    5  N4  UNL     1      -9.912  21.622  51.097  1.00  0.00    -0.343 N 
ATOM      6  H4  UNL     1     -10.473  20.911  51.565  1.00  0.00     0.164 HD
ENDROOT
BRANCH   1   7
HETATM    7  C6  UNL     1     -11.656  24.723  52.444  1.00  0.00     0.113 C 
BRANCH   7   8
HETATM    8  C5  UNL     1     -13.188  24.715  52.297  1.00  0.00     0.055 C 
BRANCH   8   9
HETATM    9  C4  UNL     1     -13.888  24.194  53.505  1.00  0.00     0.238 C 
BRANCH   9  10
HETATM   10  N1  UNL     1     -15.088  25.031  53.668  1.00  0.00    -0.079 N 
HETATM   11  C1  UNL     1     -14.945  25.756  54.894  1.00  0.00     0.271 C 
HETATM   12  C2  UNL     1     -16.197  24.107  53.817  1.00  0.00     0.271 C 
HETATM   13  C3  UNL     1     -15.289  25.875  52.512  1.00  0.00     0.271 C 
ENDBRANCH   9  10
ENDBRANCH   8   9
ENDBRANCH   7   8
BRANCH   7  14
HETATM   14  C7  UNL     1     -11.331  25.030  53.864  1.00  0.00     0.261 C 
BRANCH  14  15
HETATM   15  N2  UNL     1     -10.150  25.794  54.101  1.00  0.00    -0.077 N 
HETATM   16  C8  UNL     1     -10.448  26.783  55.129  1.00  0.00     0.271 C 
HETATM   17  C9  UNL     1      -9.775  26.584  52.911  1.00  0.00     0.271 C 
HETATM   18  C10 UNL     1      -8.979  25.035  54.450  1.00  0.00     0.271 C 
ENDBRANCH  14  15
ENDBRANCH   7  14
ENDBRANCH   1   7
BRANCH   5  19
HETATM   19  C12 UNL     1      -8.839  21.221  50.238  1.00  0.00     0.125 C 
BRANCH  19  20
HETATM   20  C13 UNL     1      -7.922  20.224  50.925  1.00  0.00     0.035 C 
BRANCH  20  21
HETATM   21  C14 UNL     1      -8.784  19.093  51.432  1.00  0.00     0.097 C 
HETATM   22  C15 UNL     1      -8.155  18.213  52.464  1.00  0.00     0.136 C 
HETATM   23  N5  UNL     1      -8.400  17.055  51.607  1.00  0.00    -0.360 N 
HETATM   24  C16 UNL     1      -8.696  17.923  50.521  1.00  0.00     0.223 C 
ATOM     25  H5  UNL     1      -8.371  16.044  51.736  1.00  0.00     0.162 HD
HETATM   26  O2  UNL     1      -8.825  17.741  49.284  1.00  0.00    -0.273 OA
ENDBRANCH  20  21
ENDBRANCH  19  20
ENDBRANCH   5  19
TORSDOF 9
ENDMDL
