MODEL 1
REMARK VINA RESULT: -5.304518071      0.000      0.000
REMARK  2 active torsions:
REMARK  status: ('A' for Active; 'I' for Inactive)
REMARK    1  A    between atoms: C2_2  and  N1_4 
REMARK       I    between atoms: N1_4  and  C4_6 
REMARK       I    between atoms: C4_6  and  N2_8 
REMARK    2  A    between atoms: N2_8  and  N3_10 
ROOT
HETATM    1  N1  UNL     1      -2.151  16.086  16.011  1.00  0.00    -0.338 N 
ATOM      2  H1  UNL     1      -2.397  16.481  15.104  1.00  0.00     0.164 HD
HETATM    3  C4  UNL     1      -1.919  14.681  16.126  1.00  0.00     0.336 C 
HETATM    4  O1  UNL     1      -1.619  14.226  17.254  1.00  0.00    -0.246 OA
HETATM    5  N2  UNL     1      -2.020  13.811  15.007  1.00  0.00    -0.237 N 
ATOM      6  H2  UNL     1      -2.263  14.176  14.086  1.00  0.00     0.193 HD
ENDROOT
BRANCH   1   7
HETATM    7  C2  UNL     1      -2.045  16.951  17.154  1.00  0.00     0.078 C 
HETATM    8  C1  UNL     1      -3.144  18.004  17.174  1.00  0.00     0.032 C 
HETATM    9  C3  UNL     1      -0.724  17.657  17.238  1.00  0.00     0.032 C 
ENDBRANCH   1   7
BRANCH   5  10
HETATM   10  N3  UNL     1      -1.781  12.450  15.188  1.00  0.00    -0.245 N 
HETATM   11  N4  UNL     1      -0.624  12.046  15.573  1.00  0.00    -0.331 N 
ATOM     12  H42 UNL     1       0.109  12.735  15.742  1.00  0.00     0.178 HD
ATOM     13  H41 UNL     1      -0.449  11.050  15.706  1.00  0.00     0.178 HD
ATOM     14  H3  UNL     1      -2.525  11.775  15.015  1.00  0.00     0.208 HD
ENDBRANCH   5  10
TORSDOF 2
ENDMDL
MODEL 2
REMARK VINA RESULT: -5.277486470      1.543      1.650
REMARK  2 active torsions:
REMARK  status: ('A' for Active; 'I' for Inactive)
REMARK    1  A    between atoms: C2_2  and  N1_4 
REMARK       I    between atoms: N1_4  and  C4_6 
REMARK       I    between atoms: C4_6  and  N2_8 
REMARK    2  A    between atoms: N2_8  and  N3_10 
ROOT
HETATM    1  N1  UNL     1      -1.261  16.255  17.103  1.00  0.00    -0.338 N 
ATOM      2  H1  UNL     1      -1.294  17.075  16.496  1.00  0.00     0.164 HD
HETATM    3  C4  UNL     1      -1.770  15.009  16.627  1.00  0.00     0.336 C 
HETATM    4  O1  UNL     1      -1.715  14.021  17.395  1.00  0.00    -0.246 OA
HETATM    5  N2  UNL     1      -2.326  14.874  15.326  1.00  0.00    -0.237 N 
ATOM      6  H2  UNL     1      -2.372  15.675  14.696  1.00  0.00     0.193 HD
ENDROOT
BRANCH   1   7
HETATM    7  C2  UNL     1      -0.702  16.374  18.422  1.00  0.00     0.078 C 
HETATM    8  C1  UNL     1      -1.768  16.679  19.465  1.00  0.00     0.032 C 
HETATM    9  C3  UNL     1       0.360  17.429  18.520  1.00  0.00     0.032 C 
ENDBRANCH   1   7
BRANCH   5  10
HETATM   10  N3  UNL     1      -2.806  13.628  14.925  1.00  0.00    -0.245 N 
HETATM   11  N4  UNL     1      -2.030  12.606  14.938  1.00  0.00    -0.331 N 
ATOM     12  H42 UNL     1      -1.064  12.722  15.245  1.00  0.00     0.178 HD
ATOM     13  H41 UNL     1      -2.381  11.694  14.644  1.00  0.00     0.178 HD
ATOM     14  H3  UNL     1      -3.774  13.530  14.621  1.00  0.00     0.208 HD
ENDBRANCH   5  10
TORSDOF 2
ENDMDL
MODEL 3
REMARK VINA RESULT: -5.226927655      1.704      2.200
REMARK  2 active torsions:
REMARK  status: ('A' for Active; 'I' for Inactive)
REMARK    1  A    between atoms: C2_2  and  N1_4 
REMARK       I    between atoms: N1_4  and  C4_6 
REMARK       I    between atoms: C4_6  and  N2_8 
REMARK    2  A    between atoms: N2_8  and  N3_10 
ROOT
HETATM    1  N1  UNL     1      -0.890  14.982  18.282  1.00  0.00    -0.338 N 
ATOM      2  H1  UNL     1      -0.516  14.449  19.067  1.00  0.00     0.164 HD
HETATM    3  C4  UNL     1      -1.059  14.343  17.016  1.00  0.00     0.336 C 
HETATM    4  O1  UNL     1      -1.520  15.024  16.071  1.00  0.00    -0.246 OA
HETATM    5  N2  UNL     1      -0.721  12.977  16.815  1.00  0.00    -0.237 N 
ATOM      6  H2  UNL     1      -0.347  12.418  17.580  1.00  0.00     0.193 HD
ENDROOT
BRANCH   1   7
HETATM    7  C2  UNL     1      -1.237  16.365  18.467  1.00  0.00     0.078 C 
HETATM    8  C1  UNL     1      -0.048  17.285  18.228  1.00  0.00     0.032 C 
HETATM    9  C3  UNL     1      -1.785  16.658  19.832  1.00  0.00     0.032 C 
ENDBRANCH   1   7
BRANCH   5  10
HETATM   10  N3  UNL     1      -0.911  12.415  15.554  1.00  0.00    -0.245 N 
HETATM   11  N4  UNL     1      -2.070  12.452  15.001  1.00  0.00    -0.331 N 
ATOM     12  H42 UNL     1      -2.841  12.896  15.500  1.00  0.00     0.178 HD
ATOM     13  H41 UNL     1      -2.209  12.040  14.078  1.00  0.00     0.178 HD
ATOM     14  H3  UNL     1      -0.129  11.975  15.069  1.00  0.00     0.208 HD
ENDBRANCH   5  10
TORSDOF 2
ENDMDL
MODEL 4
REMARK VINA RESULT: -5.088997208      1.278      1.613
REMARK  2 active torsions:
REMARK  status: ('A' for Active; 'I' for Inactive)
REMARK    1  A    between atoms: C2_2  and  N1_4 
REMARK       I    between atoms: N1_4  and  C4_6 
REMARK       I    between atoms: C4_6  and  N2_8 
REMARK    2  A    between atoms: N2_8  and  N3_10 
ROOT
HETATM    1  N1  UNL     1      -2.709  15.957  17.230  1.00  0.00    -0.338 N 
ATOM      2  H1  UNL     1      -3.709  16.160  17.207  1.00  0.00     0.164 HD
HETATM    3  C4  UNL     1      -2.183  14.925  16.395  1.00  0.00     0.336 C 
HETATM    4  O1  UNL     1      -0.952  14.699  16.445  1.00  0.00    -0.246 OA
HETATM    5  N2  UNL     1      -3.015  14.167  15.526  1.00  0.00    -0.237 N 
ATOM      6  H2  UNL     1      -4.017  14.348  15.480  1.00  0.00     0.193 HD
ENDROOT
BRANCH   1   7
HETATM    7  C2  UNL     1      -1.853  16.713  18.103  1.00  0.00     0.078 C 
HETATM    8  C1  UNL     1      -1.695  16.045  19.461  1.00  0.00     0.032 C 
HETATM    9  C3  UNL     1      -2.332  18.117  18.328  1.00  0.00     0.032 C 
ENDBRANCH   1   7
BRANCH   5  10
HETATM   10  N3  UNL     1      -2.437  13.174  14.737  1.00  0.00    -0.245 N 
HETATM   11  N4  UNL     1      -1.749  12.238  15.284  1.00  0.00    -0.331 N 
ATOM     12  H42 UNL     1      -1.635  12.236  16.297  1.00  0.00     0.178 HD
ATOM     13  H41 UNL     1      -1.325  11.511  14.707  1.00  0.00     0.178 HD
ATOM     14  H3  UNL     1      -2.561  13.191  13.725  1.00  0.00     0.208 HD
ENDBRANCH   5  10
TORSDOF 2
ENDMDL
MODEL 5
REMARK VINA RESULT: -5.081915901      1.667      2.021
REMARK  2 active torsions:
REMARK  status: ('A' for Active; 'I' for Inactive)
REMARK    1  A    between atoms: C2_2  and  N1_4 
REMARK       I    between atoms: N1_4  and  C4_6 
REMARK       I    between atoms: C4_6  and  N2_8 
REMARK    2  A    between atoms: N2_8  and  N3_10 
ROOT
HETATM    1  N1  UNL     1      -1.662  15.209  18.364  1.00  0.00    -0.338 N 
ATOM      2  H1  UNL     1      -1.746  14.670  19.227  1.00  0.00     0.164 HD
HETATM    3  C4  UNL     1      -1.436  14.528  17.130  1.00  0.00     0.336 C 
HETATM    4  O1  UNL     1      -1.339  15.217  16.088  1.00  0.00    -0.246 OA
HETATM    5  N2  UNL     1      -1.322  13.113  17.065  1.00  0.00    -0.237 N 
ATOM      6  H2  UNL     1      -1.402  12.547  17.909  1.00  0.00     0.193 HD
ENDROOT
BRANCH   1   7
HETATM    7  C2  UNL     1      -1.775  16.641  18.412  1.00  0.00     0.078 C 
HETATM    8  C1  UNL     1      -1.645  17.174  19.832  1.00  0.00     0.032 C 
HETATM    9  C3  UNL     1      -3.066  17.151  17.841  1.00  0.00     0.032 C 
ENDBRANCH   1   7
BRANCH   5  10
HETATM   10  N3  UNL     1      -1.101  12.512  15.827  1.00  0.00    -0.245 N 
HETATM   11  N4  UNL     1      -2.037  12.484  14.948  1.00  0.00    -0.331 N 
ATOM     12  H42 UNL     1      -2.937  12.907  15.173  1.00  0.00     0.178 HD
ATOM     13  H41 UNL     1      -1.875  12.044  14.042  1.00  0.00     0.178 HD
ATOM     14  H3  UNL     1      -0.194  12.093  15.619  1.00  0.00     0.208 HD
ENDBRANCH   5  10
TORSDOF 2
ENDMDL
