MODEL 1
REMARK VINA RESULT: -4.822782449      0.000      0.000
REMARK  1 active torsions:
REMARK  status: ('A' for Active; 'I' for Inactive)
REMARK    1  A    between atoms: C3_3  and  N1_4 
ROOT
HETATM    1  C1  UNL     1      -3.192  18.720  16.507  1.00  0.00     0.013 C 
HETATM    2  C2  UNL     1      -2.992  17.763  17.230  1.00  0.00    -0.089 C 
HETATM    3  C3  UNL     1      -2.779  16.624  18.086  1.00  0.00     0.332 C 
ENDROOT
BRANCH   3   4
HETATM    4  N1  UNL     1      -1.563  15.911  17.799  1.00  0.00    -0.039 N 
HETATM    5  C4  UNL     1      -0.465  16.883  17.681  1.00  0.00     0.276 C 
HETATM    6  C5  UNL     1      -1.199  14.941  18.778  1.00  0.00     0.361 C 
HETATM    7  N2  UNL     1      -1.590  13.681  18.213  1.00  0.00    -0.355 N 
HETATM    8  C6  UNL     1      -1.451  13.804  16.804  1.00  0.00     0.098 C 
ATOM      9  H2  UNL     1      -1.905  12.857  18.724  1.00  0.00     0.162 HD
HETATM   10  N3  UNL     1      -1.199  12.884  15.927  1.00  0.00    -0.388 N 
HETATM   11  C7  UNL     1      -1.658  15.256  16.516  1.00  0.00     0.315 C 
ATOM     12  H32 UNL     1      -1.058  11.893  16.123  1.00  0.00     0.157 HD
ATOM     13  H31 UNL     1      -1.099  12.973  14.916  1.00  0.00     0.157 HD
ENDBRANCH   3   4
TORSDOF 1
ENDMDL
MODEL 2
REMARK VINA RESULT: -4.730763508      1.395      2.616
REMARK  1 active torsions:
REMARK  status: ('A' for Active; 'I' for Inactive)
REMARK    1  A    between atoms: C3_3  and  N1_4 
ROOT
HETATM    1  C1  UNL     1       1.358  18.191  19.049  1.00  0.00     0.013 C 
HETATM    2  C2  UNL     1       0.434  17.869  18.325  1.00  0.00    -0.089 C 
HETATM    3  C3  UNL     1      -0.645  17.492  17.449  1.00  0.00     0.332 C 
ENDROOT
BRANCH   3   4
HETATM    4  N1  UNL     1      -1.491  16.463  17.991  1.00  0.00    -0.039 N 
HETATM    5  C4  UNL     1      -1.795  16.795  19.393  1.00  0.00     0.276 C 
HETATM    6  C5  UNL     1      -2.721  16.279  17.297  1.00  0.00     0.361 C 
HETATM    7  N2  UNL     1      -2.517  15.114  16.485  1.00  0.00    -0.355 N 
HETATM    8  C6  UNL     1      -1.615  14.275  17.193  1.00  0.00     0.098 C 
ATOM      9  H2  UNL     1      -2.938  14.926  15.576  1.00  0.00     0.162 HD
HETATM   10  N3  UNL     1      -1.503  12.984  17.156  1.00  0.00    -0.388 N 
HETATM   11  C7  UNL     1      -0.787  15.203  18.023  1.00  0.00     0.315 C 
ATOM     12  H32 UNL     1      -2.068  12.351  16.589  1.00  0.00     0.157 HD
ATOM     13  H31 UNL     1      -0.855  12.383  17.664  1.00  0.00     0.157 HD
ENDBRANCH   3   4
TORSDOF 1
ENDMDL
MODEL 3
REMARK VINA RESULT: -4.723418072      1.380      1.846
REMARK  1 active torsions:
REMARK  status: ('A' for Active; 'I' for Inactive)
REMARK    1  A    between atoms: C3_3  and  N1_4 
ROOT
HETATM    1  C1  UNL     1      -1.278  17.961  20.828  1.00  0.00     0.013 C 
HETATM    2  C2  UNL     1      -1.763  17.427  19.849  1.00  0.00    -0.089 C 
HETATM    3  C3  UNL     1      -2.353  16.812  18.688  1.00  0.00     0.332 C 
ENDROOT
BRANCH   3   4
HETATM    4  N1  UNL     1      -1.399  16.145  17.845  1.00  0.00    -0.039 N 
HETATM    5  C4  UNL     1      -0.545  17.159  17.206  1.00  0.00     0.276 C 
HETATM    6  C5  UNL     1      -0.558  15.213  18.520  1.00  0.00     0.361 C 
HETATM    7  N2  UNL     1      -1.114  13.926  18.216  1.00  0.00    -0.355 N 
HETATM    8  C6  UNL     1      -1.685  14.023  16.918  1.00  0.00     0.098 C 
ATOM      9  H2  UNL     1      -1.101  13.101  18.816  1.00  0.00     0.162 HD
HETATM   10  N3  UNL     1      -1.849  13.095  16.029  1.00  0.00    -0.388 N 
HETATM   11  C7  UNL     1      -2.076  15.458  16.770  1.00  0.00     0.315 C 
ATOM     12  H32 UNL     1      -1.583  12.115  16.131  1.00  0.00     0.157 HD
ATOM     13  H31 UNL     1      -2.259  13.165  15.098  1.00  0.00     0.157 HD
ENDBRANCH   3   4
TORSDOF 1
ENDMDL
MODEL 4
REMARK VINA RESULT: -4.651619691      1.313      1.914
REMARK  1 active torsions:
REMARK  status: ('A' for Active; 'I' for Inactive)
REMARK    1  A    between atoms: C3_3  and  N1_4 
ROOT
HETATM    1  C1  UNL     1      -1.436  19.489  17.835  1.00  0.00     0.013 C 
HETATM    2  C2  UNL     1      -0.996  18.361  17.724  1.00  0.00    -0.089 C 
HETATM    3  C3  UNL     1      -0.453  17.032  17.601  1.00  0.00     0.332 C 
ENDROOT
BRANCH   3   4
HETATM    4  N1  UNL     1      -1.393  15.996  17.932  1.00  0.00    -0.039 N 
HETATM    5  C4  UNL     1      -1.669  16.054  19.376  1.00  0.00     0.276 C 
HETATM    6  C5  UNL     1      -2.634  16.075  17.236  1.00  0.00     0.361 C 
HETATM    7  N2  UNL     1      -2.539  15.092  16.195  1.00  0.00    -0.355 N 
HETATM    8  C6  UNL     1      -1.721  14.043  16.697  1.00  0.00     0.098 C 
ATOM      9  H2  UNL     1      -2.973  15.138  15.274  1.00  0.00     0.162 HD
HETATM   10  N3  UNL     1      -1.731  12.785  16.390  1.00  0.00    -0.388 N 
HETATM   11  C7  UNL     1      -0.811  14.697  17.688  1.00  0.00     0.315 C 
ATOM     12  H32 UNL     1      -2.351  12.339  15.714  1.00  0.00     0.157 HD
ATOM     13  H31 UNL     1      -1.144  12.033  16.751  1.00  0.00     0.157 HD
ENDBRANCH   3   4
TORSDOF 1
ENDMDL
MODEL 5
REMARK VINA RESULT: -4.502251154      1.798      3.695
REMARK  1 active torsions:
REMARK  status: ('A' for Active; 'I' for Inactive)
REMARK    1  A    between atoms: C3_3  and  N1_4 
ROOT
HETATM    1  C1  UNL     1      -1.364  13.130  17.012  1.00  0.00     0.013 C 
HETATM    2  C2  UNL     1      -1.532  14.321  16.832  1.00  0.00    -0.089 C 
HETATM    3  C3  UNL     1      -1.748  15.726  16.602  1.00  0.00     0.332 C 
ENDROOT
BRANCH   3   4
HETATM    4  N1  UNL     1      -1.642  16.525  17.793  1.00  0.00    -0.039 N 
HETATM    5  C4  UNL     1      -2.851  17.355  17.912  1.00  0.00     0.276 C 
HETATM    6  C5  UNL     1      -1.492  15.778  18.998  1.00  0.00     0.361 C 
HETATM    7  N2  UNL     1      -0.094  15.859  19.311  1.00  0.00    -0.355 N 
HETATM    8  C6  UNL     1       0.360  17.118  18.833  1.00  0.00     0.098 C 
ATOM      9  H2  UNL     1       0.465  15.150  19.785  1.00  0.00     0.162 HD
HETATM   10  N3  UNL     1       1.333  17.853  19.272  1.00  0.00    -0.388 N 
HETATM   11  C7  UNL     1      -0.535  17.445  17.682  1.00  0.00     0.315 C 
ATOM     12  H32 UNL     1       1.944  17.630  20.058  1.00  0.00     0.157 HD
ATOM     13  H31 UNL     1       1.658  18.757  18.929  1.00  0.00     0.157 HD
ENDBRANCH   3   4
TORSDOF 1
ENDMDL
