MODEL 1
REMARK VINA RESULT: -3.884050520      0.000      0.000
REMARK  3 active torsions:
REMARK  status: ('A' for Active; 'I' for Inactive)
REMARK    1  A    between atoms: N1_3  and  C4_5 
REMARK    2  A    between atoms: C4_5  and  C5_6 
REMARK    3  A    between atoms: C6_7  and  C7_8 
ROOT
HETATM    1  C1  UNL     1       1.861  18.526  18.998  1.00  0.00     0.030 C 
HETATM    2  C2  UNL     1       1.016  17.958  19.647  1.00  0.00    -0.028 C 
HETATM    3  N1  UNL     1       0.029  17.301  20.427  1.00  0.00    -0.237 NA
HETATM    4  C3  UNL     1      -0.381  18.185  21.529  1.00  0.00     0.127 C 
ENDROOT
BRANCH   3   5
HETATM    5  C4  UNL     1      -1.122  17.117  19.597  1.00  0.00     0.198 C 
BRANCH   5   6
HETATM    6  C5  UNL     1      -0.951  15.876  18.840  1.00  0.00    -0.091 C 
HETATM    7  C6  UNL     1      -0.829  14.836  18.206  1.00  0.00    -0.106 C 
BRANCH   7   8
HETATM    8  C7  UNL     1      -0.704  13.595  17.438  1.00  0.00     0.089 C 
HETATM    9  C8  UNL     1      -1.720  13.599  16.341  1.00  0.00     0.018 C 
ENDBRANCH   7   8
ENDBRANCH   5   6
ENDBRANCH   3   5
TORSDOF 3
ENDMDL
MODEL 2
REMARK VINA RESULT: -3.784941322      1.752      2.693
REMARK  3 active torsions:
REMARK  status: ('A' for Active; 'I' for Inactive)
REMARK    1  A    between atoms: N1_3  and  C4_5 
REMARK    2  A    between atoms: C4_5  and  C5_6 
REMARK    3  A    between atoms: C6_7  and  C7_8 
ROOT
HETATM    1  C1  UNL     1      -1.469  17.700  21.117  1.00  0.00     0.030 C 
HETATM    2  C2  UNL     1      -1.556  17.097  20.075  1.00  0.00    -0.028 C 
HETATM    3  N1  UNL     1      -1.646  16.404  18.840  1.00  0.00    -0.237 NA
HETATM    4  C3  UNL     1      -0.487  16.754  18.005  1.00  0.00     0.127 C 
ENDROOT
BRANCH   3   5
HETATM    5  C4  UNL     1      -1.541  15.005  19.124  1.00  0.00     0.198 C 
BRANCH   5   6
HETATM    6  C5  UNL     1      -1.533  14.277  17.855  1.00  0.00    -0.091 C 
HETATM    7  C6  UNL     1      -1.506  13.669  16.793  1.00  0.00    -0.106 C 
BRANCH   7   8
HETATM    8  C7  UNL     1      -1.451  12.934  15.527  1.00  0.00     0.089 C 
HETATM    9  C8  UNL     1      -2.153  13.727  14.473  1.00  0.00     0.018 C 
ENDBRANCH   7   8
ENDBRANCH   5   6
ENDBRANCH   3   5
TORSDOF 3
ENDMDL
MODEL 3
REMARK VINA RESULT: -3.763448792      2.084      5.186
REMARK  3 active torsions:
REMARK  status: ('A' for Active; 'I' for Inactive)
REMARK    1  A    between atoms: N1_3  and  C4_5 
REMARK    2  A    between atoms: C4_5  and  C5_6 
REMARK    3  A    between atoms: C6_7  and  C7_8 
ROOT
HETATM    1  C1  UNL     1      -1.896  13.342  14.781  1.00  0.00     0.030 C 
HETATM    2  C2  UNL     1      -1.804  13.773  15.904  1.00  0.00    -0.028 C 
HETATM    3  N1  UNL     1      -1.684  14.261  17.232  1.00  0.00    -0.237 NA
HETATM    4  C3  UNL     1      -0.509  13.646  17.867  1.00  0.00     0.127 C 
ENDROOT
BRANCH   3   5
HETATM    5  C4  UNL     1      -1.420  15.666  17.150  1.00  0.00     0.198 C 
BRANCH   5   6
HETATM    6  C5  UNL     1      -1.461  16.221  18.504  1.00  0.00    -0.091 C 
HETATM    7  C6  UNL     1      -1.492  16.703  19.628  1.00  0.00    -0.106 C 
BRANCH   7   8
HETATM    8  C7  UNL     1      -1.534  17.303  20.964  1.00  0.00     0.089 C 
HETATM    9  C8  UNL     1      -0.341  18.186  21.139  1.00  0.00     0.018 C 
ENDBRANCH   7   8
ENDBRANCH   5   6
ENDBRANCH   3   5
TORSDOF 3
ENDMDL
MODEL 4
REMARK VINA RESULT: -3.753089224      1.133      1.168
REMARK  3 active torsions:
REMARK  status: ('A' for Active; 'I' for Inactive)
REMARK    1  A    between atoms: N1_3  and  C4_5 
REMARK    2  A    between atoms: C4_5  and  C5_6 
REMARK    3  A    between atoms: C6_7  and  C7_8 
ROOT
HETATM    1  C1  UNL     1       0.327  18.266  17.521  1.00  0.00     0.030 C 
HETATM    2  C2  UNL     1       0.046  17.662  18.527  1.00  0.00    -0.028 C 
HETATM    3  N1  UNL     1      -0.275  16.967  19.722  1.00  0.00    -0.237 NA
HETATM    4  C3  UNL     1      -0.349  17.927  20.834  1.00  0.00     0.127 C 
ENDROOT
BRANCH   3   5
HETATM    5  C4  UNL     1      -1.589  16.421  19.562  1.00  0.00     0.198 C 
BRANCH   5   6
HETATM    6  C5  UNL     1      -1.523  15.346  18.570  1.00  0.00    -0.091 C 
HETATM    7  C6  UNL     1      -1.461  14.461  17.728  1.00  0.00    -0.106 C 
BRANCH   7   8
HETATM    8  C7  UNL     1      -1.369  13.414  16.708  1.00  0.00     0.089 C 
HETATM    9  C8  UNL     1      -2.008  13.905  15.449  1.00  0.00     0.018 C 
ENDBRANCH   7   8
ENDBRANCH   5   6
ENDBRANCH   3   5
TORSDOF 3
ENDMDL
MODEL 5
REMARK VINA RESULT: -3.678883256      2.331      5.250
REMARK  3 active torsions:
REMARK  status: ('A' for Active; 'I' for Inactive)
REMARK    1  A    between atoms: N1_3  and  C4_5 
REMARK    2  A    between atoms: C4_5  and  C5_6 
REMARK    3  A    between atoms: C6_7  and  C7_8 
ROOT
HETATM    1  C1  UNL     1      -1.524  13.161  18.269  1.00  0.00     0.030 C 
HETATM    2  C2  UNL     1      -1.471  13.762  17.224  1.00  0.00    -0.028 C 
HETATM    3  N1  UNL     1      -1.410  14.451  15.984  1.00  0.00    -0.237 NA
HETATM    4  C3  UNL     1      -2.179  13.701  14.979  1.00  0.00     0.127 C 
ENDROOT
BRANCH   3   5
HETATM    5  C4  UNL     1      -2.074  15.707  16.158  1.00  0.00     0.198 C 
BRANCH   5   6
HETATM    6  C5  UNL     1      -1.216  16.573  16.968  1.00  0.00    -0.091 C 
HETATM    7  C6  UNL     1      -0.483  17.292  17.634  1.00  0.00    -0.106 C 
BRANCH   7   8
HETATM    8  C7  UNL     1       0.410  18.153  18.412  1.00  0.00     0.089 C 
HETATM    9  C8  UNL     1       0.469  17.649  19.818  1.00  0.00     0.018 C 
ENDBRANCH   7   8
ENDBRANCH   5   6
ENDBRANCH   3   5
TORSDOF 3
ENDMDL
