MODEL 1
REMARK VINA RESULT: -4.325681579      0.000      0.000
REMARK  0 active torsions:
REMARK  status: ('A' for Active; 'I' for Inactive)
ROOT
HETATM    1  C1  UNL     1      -1.104  16.711  19.133  1.00  0.00     0.056 A 
HETATM    2  C2  UNL     1      -1.839  15.387  19.092  1.00  0.00     0.241 A 
HETATM    3  N1  UNL     1      -1.308  15.077  17.793  1.00  0.00    -0.042 N 
HETATM    4  C3  UNL     1      -0.574  16.332  17.771  1.00  0.00     0.241 A 
HETATM    5  C4  UNL     1      -2.354  14.965  16.806  1.00  0.00     0.267 C 
HETATM    6  C5  UNL     1      -1.929  13.868  15.875  1.00  0.00     0.262 C 
HETATM    7  N2  UNL     1      -0.960  13.108  16.605  1.00  0.00    -0.049 N 
ATOM      8  H21 UNL     1      -0.203  12.769  16.012  1.00  0.00     0.279 HD
ATOM      9  H22 UNL     1      -1.320  12.202  16.906  1.00  0.00     0.279 HD
HETATM   10  C6  UNL     1      -0.488  13.901  17.700  1.00  0.00     0.467 C 
ENDROOT
TORSDOF 0
ENDMDL
MODEL 2
REMARK VINA RESULT: -3.992244006      0.952      1.789
REMARK  0 active torsions:
REMARK  status: ('A' for Active; 'I' for Inactive)
ROOT
HETATM    1  C1  UNL     1      -0.961  17.065  19.558  1.00  0.00     0.056 A 
HETATM    2  C2  UNL     1      -0.175  16.614  18.343  1.00  0.00     0.241 A 
HETATM    3  N1  UNL     1      -1.084  15.527  18.100  1.00  0.00    -0.042 N 
HETATM    4  C3  UNL     1      -1.884  15.911  19.252  1.00  0.00     0.241 A 
HETATM    5  C4  UNL     1      -0.425  14.250  18.213  1.00  0.00     0.267 C 
HETATM    6  C5  UNL     1      -1.046  13.370  17.168  1.00  0.00     0.262 C 
HETATM    7  N2  UNL     1      -1.647  14.266  16.229  1.00  0.00    -0.049 N 
ATOM      8  H21 UNL     1      -2.529  13.911  15.860  1.00  0.00     0.279 HD
ATOM      9  H22 UNL     1      -1.134  14.312  15.348  1.00  0.00     0.279 HD
HETATM   10  C6  UNL     1      -1.789  15.550  16.848  1.00  0.00     0.467 C 
ENDROOT
TORSDOF 0
ENDMDL
MODEL 3
REMARK VINA RESULT: -3.805372982      1.073      3.287
REMARK  0 active torsions:
REMARK  status: ('A' for Active; 'I' for Inactive)
ROOT
HETATM    1  C1  UNL     1      -1.729  13.733  16.715  1.00  0.00     0.056 A 
HETATM    2  C2  UNL     1      -0.666  14.081  17.738  1.00  0.00     0.241 A 
HETATM    3  N1  UNL     1      -1.324  15.313  18.074  1.00  0.00    -0.042 N 
HETATM    4  C3  UNL     1      -2.379  15.037  17.110  1.00  0.00     0.241 A 
HETATM    5  C4  UNL     1      -0.501  16.456  17.765  1.00  0.00     0.267 C 
HETATM    6  C5  UNL     1      -0.763  17.460  18.848  1.00  0.00     0.262 C 
HETATM    7  N2  UNL     1      -1.314  16.708  19.934  1.00  0.00    -0.049 N 
ATOM      8  H21 UNL     1      -2.041  17.220  20.434  1.00  0.00     0.279 HD
ATOM      9  H22 UNL     1      -0.658  16.603  20.709  1.00  0.00     0.279 HD
HETATM   10  C6  UNL     1      -1.775  15.449  19.431  1.00  0.00     0.467 C 
ENDROOT
TORSDOF 0
ENDMDL
MODEL 4
REMARK VINA RESULT: -3.755043811      1.474      2.315
REMARK  0 active torsions:
REMARK  status: ('A' for Active; 'I' for Inactive)
ROOT
HETATM    1  C1  UNL     1      -0.803  14.359  18.948  1.00  0.00     0.056 A 
HETATM    2  C2  UNL     1      -0.688  15.039  17.598  1.00  0.00     0.241 A 
HETATM    3  N1  UNL     1      -1.586  14.095  16.992  1.00  0.00    -0.042 N 
HETATM    4  C3  UNL     1      -1.743  13.399  18.259  1.00  0.00     0.241 A 
HETATM    5  C4  UNL     1      -0.934  13.334  15.955  1.00  0.00     0.267 C 
HETATM    6  C5  UNL     1      -1.965  13.122  14.886  1.00  0.00     0.262 C 
HETATM    7  N2  UNL     1      -2.956  14.128  15.113  1.00  0.00    -0.049 N 
ATOM      8  H21 UNL     1      -3.902  13.795  14.926  1.00  0.00     0.279 HD
ATOM      9  H22 UNL     1      -2.927  14.870  14.413  1.00  0.00     0.279 HD
HETATM   10  C6  UNL     1      -2.804  14.628  16.447  1.00  0.00     0.467 C 
ENDROOT
TORSDOF 0
ENDMDL
MODEL 5
REMARK VINA RESULT: -3.753289832      1.278      3.361
REMARK  0 active torsions:
REMARK  status: ('A' for Active; 'I' for Inactive)
ROOT
HETATM    1  C1  UNL     1      -1.486  13.670  17.239  1.00  0.00     0.056 A 
HETATM    2  C2  UNL     1      -2.279  14.960  17.294  1.00  0.00     0.241 A 
HETATM    3  N1  UNL     1      -1.300  15.583  18.141  1.00  0.00    -0.042 N 
HETATM    4  C3  UNL     1      -0.489  14.376  18.126  1.00  0.00     0.241 A 
HETATM    5  C4  UNL     1      -1.854  15.929  19.426  1.00  0.00     0.267 C 
HETATM    6  C5  UNL     1      -1.207  17.224  19.820  1.00  0.00     0.262 C 
HETATM    7  N2  UNL     1      -0.712  17.785  18.601  1.00  0.00    -0.049 N 
ATOM      8  H21 UNL     1       0.180  18.264  18.725  1.00  0.00     0.279 HD
ATOM      9  H22 UNL     1      -1.259  18.587  18.289  1.00  0.00     0.279 HD
HETATM   10  C6  UNL     1      -0.646  16.749  17.614  1.00  0.00     0.467 C 
ENDROOT
TORSDOF 0
ENDMDL
