MODEL 1
REMARK VINA RESULT: -3.863722229      0.000      0.000
REMARK  1 active torsions:
REMARK  status: ('A' for Active; 'I' for Inactive)
REMARK    1  A    between atoms: N1_2  and  C2_3 
ROOT
HETATM    1  C1  UNL     1      -0.279  14.059  18.506  1.00  0.00     0.275 C 
HETATM    2  N1  UNL     1      -1.196  15.136  18.143  1.00  0.00    -0.040 N 
HETATM    3  C4  UNL     1      -1.832  15.749  19.302  1.00  0.00     0.241 A 
HETATM    4  C5  UNL     1      -1.086  17.034  19.011  1.00  0.00     0.056 A 
HETATM    5  C6  UNL     1      -0.500  16.328  17.825  1.00  0.00     0.241 A 
ENDROOT
BRANCH   2   6
HETATM    6  C2  UNL     1      -2.207  14.681  17.228  1.00  0.00     0.412 A 
HETATM    7  C3  UNL     1      -2.031  14.532  15.806  1.00  0.00     0.297 A 
HETATM    8  N2  UNL     1      -2.050  13.358  16.642  1.00  0.00    -0.040 N 
ATOM      9  H22 UNL     1      -1.422  12.568  16.795  1.00  0.00     0.279 HD
ATOM     10  H21 UNL     1      -2.585  12.489  16.659  1.00  0.00     0.279 HD
ENDBRANCH   2   6
TORSDOF 1
ENDMDL
MODEL 2
REMARK VINA RESULT: -3.666054961      1.380      3.382
REMARK  1 active torsions:
REMARK  status: ('A' for Active; 'I' for Inactive)
REMARK    1  A    between atoms: N1_2  and  C2_3 
ROOT
HETATM    1  C1  UNL     1      -1.916  15.843  19.525  1.00  0.00     0.275 C 
HETATM    2  N1  UNL     1      -1.040  15.616  18.378  1.00  0.00    -0.040 N 
HETATM    3  C4  UNL     1      -0.433  14.291  18.385  1.00  0.00     0.241 A 
HETATM    4  C5  UNL     1      -1.228  13.940  17.145  1.00  0.00     0.056 A 
HETATM    5  C6  UNL     1      -1.782  15.332  17.205  1.00  0.00     0.241 A 
ENDROOT
BRANCH   2   6
HETATM    6  C2  UNL     1      -0.008  16.614  18.298  1.00  0.00     0.412 A 
HETATM    7  C3  UNL     1      -0.069  17.919  18.905  1.00  0.00     0.297 A 
HETATM    8  N2  UNL     1       0.758  16.900  19.503  1.00  0.00    -0.040 N 
ATOM      9  H22 UNL     1       0.833  16.480  20.429  1.00  0.00     0.279 HD
ATOM     10  H21 UNL     1       1.739  16.829  19.771  1.00  0.00     0.279 HD
ENDBRANCH   2   6
TORSDOF 1
ENDMDL
MODEL 3
REMARK VINA RESULT: -3.636576777      1.148      2.035
REMARK  1 active torsions:
REMARK  status: ('A' for Active; 'I' for Inactive)
REMARK    1  A    between atoms: N1_2  and  C2_3 
ROOT
HETATM    1  C1  UNL     1      -0.752  16.803  17.400  1.00  0.00     0.275 C 
HETATM    2  N1  UNL     1      -1.343  15.467  17.377  1.00  0.00    -0.040 N 
HETATM    3  C4  UNL     1      -0.426  14.437  17.849  1.00  0.00     0.241 A 
HETATM    4  C5  UNL     1      -1.324  14.211  19.047  1.00  0.00     0.056 A 
HETATM    5  C6  UNL     1      -2.219  15.267  18.472  1.00  0.00     0.241 A 
ENDROOT
BRANCH   2   6
HETATM    6  C2  UNL     1      -1.815  15.122  16.064  1.00  0.00     0.412 A 
HETATM    7  C3  UNL     1      -1.890  13.784  15.536  1.00  0.00     0.297 A 
HETATM    8  N2  UNL     1      -3.100  14.445  15.958  1.00  0.00    -0.040 N 
ATOM      9  H22 UNL     1      -3.857  14.225  16.604  1.00  0.00     0.279 HD
ATOM     10  H21 UNL     1      -3.998  14.659  15.524  1.00  0.00     0.279 HD
ENDBRANCH   2   6
TORSDOF 1
ENDMDL
MODEL 4
REMARK VINA RESULT: -3.434322915      1.942      2.779
REMARK  1 active torsions:
REMARK  status: ('A' for Active; 'I' for Inactive)
REMARK    1  A    between atoms: N1_2  and  C2_3 
ROOT
HETATM    1  C1  UNL     1      -1.541  17.490  20.370  1.00  0.00     0.275 C 
HETATM    2  N1  UNL     1      -0.815  17.013  19.195  1.00  0.00    -0.040 N 
HETATM    3  C4  UNL     1      -0.758  18.003  18.127  1.00  0.00     0.241 A 
HETATM    4  C5  UNL     1       0.740  18.105  18.325  1.00  0.00     0.056 A 
HETATM    5  C6  UNL     1       0.587  17.063  19.393  1.00  0.00     0.241 A 
ENDROOT
BRANCH   2   6
HETATM    6  C2  UNL     1      -1.381  15.793  18.686  1.00  0.00     0.412 A 
HETATM    7  C3  UNL     1      -0.640  14.590  18.405  1.00  0.00     0.297 A 
HETATM    8  N2  UNL     1      -1.463  14.653  19.587  1.00  0.00    -0.040 N 
ATOM      9  H22 UNL     1      -1.310  14.506  20.585  1.00  0.00     0.279 HD
ATOM     10  H21 UNL     1      -2.219  14.087  19.973  1.00  0.00     0.279 HD
ENDBRANCH   2   6
TORSDOF 1
ENDMDL
MODEL 5
REMARK VINA RESULT: -3.430594713      1.170      3.191
REMARK  1 active torsions:
REMARK  status: ('A' for Active; 'I' for Inactive)
REMARK    1  A    between atoms: N1_2  and  C2_3 
ROOT
HETATM    1  C1  UNL     1      -1.596  14.191  19.319  1.00  0.00     0.275 C 
HETATM    2  N1  UNL     1      -1.235  14.643  17.978  1.00  0.00    -0.040 N 
HETATM    3  C4  UNL     1      -0.611  13.597  17.178  1.00  0.00     0.241 A 
HETATM    4  C5  UNL     1      -1.813  13.608  16.258  1.00  0.00     0.056 A 
HETATM    5  C6  UNL     1      -2.364  14.700  17.125  1.00  0.00     0.241 A 
ENDROOT
BRANCH   2   6
HETATM    6  C2  UNL     1      -0.368  15.790  18.025  1.00  0.00     0.412 A 
HETATM    7  C3  UNL     1      -0.668  17.029  18.694  1.00  0.00     0.297 A 
HETATM    8  N2  UNL     1       0.267  16.112  19.295  1.00  0.00    -0.040 N 
ATOM      9  H22 UNL     1       0.349  15.651  20.200  1.00  0.00     0.279 HD
ATOM     10  H21 UNL     1       1.229  16.174  19.628  1.00  0.00     0.279 HD
ENDBRANCH   2   6
TORSDOF 1
ENDMDL
