MODEL 1
REMARK VINA RESULT: -9.726005435      0.000      0.000
REMARK  15 active torsions:
REMARK  status: ('A' for Active; 'I' for Inactive)
REMARK    1  A    between atoms: C2_2  and  N1_3 
REMARK    2  A    between atoms: C2_2  and  C3_7 
REMARK    3  A    between atoms: C3_7  and  N2_8 
REMARK    4  A    between atoms: N2_8  and  C4_9 
REMARK    5  A    between atoms: N2_8  and  C12_35 
REMARK    6  A    between atoms: C5_12  and  N4_13 
REMARK    7  A    between atoms: N7_19  and  C6_20 
REMARK    8  A    between atoms: N8_22  and  C8_23 
REMARK    9  A    between atoms: C8_23  and  O1_24 
REMARK   10  A    between atoms: C12_35  and  O4_36 
REMARK   11  A    between atoms: C12_35  and  C13_38 
REMARK   12  A    between atoms: C13_38  and  N11_39 
REMARK   13  A    between atoms: C14_44  and  C15_45 
REMARK   14  A    between atoms: C18_48  and  O5_49 
REMARK   15  A    between atoms: C21_53  and  O6_54 
ROOT
HETATM    1  N2  UNL     1       3.737 -21.815  -0.670  1.00  0.00    -0.165 N 
ENDROOT
BRANCH   1   2
HETATM    2  C3  UNL     1       3.186 -22.395   0.483  1.00  0.00     0.117 C 
BRANCH   2   3
HETATM    3  C2  UNL     1       4.087 -23.100   1.442  1.00  0.00     0.218 C 
HETATM    4  C1  UNL     1       4.771 -24.321   0.871  1.00  0.00     0.045 C 
BRANCH   3   5
HETATM    5  N1  UNL     1       3.262 -23.519   2.565  1.00  0.00    -0.071 N 
ATOM      6  H13 UNL     1       2.268 -23.359   2.402  1.00  0.00     0.275 HD
ATOM      7  H12 UNL     1       3.225 -24.533   2.667  1.00  0.00     0.275 HD
ATOM      8  H11 UNL     1       3.602 -23.052   3.406  1.00  0.00     0.275 HD
ENDBRANCH   3   5
ENDBRANCH   2   3
ENDBRANCH   1   2
BRANCH   1   9
HETATM    9  C4  UNL     1       3.453 -22.274  -1.985  1.00  0.00     0.715 A 
HETATM   10  N3  UNL     1       3.880 -23.386  -2.564  1.00  0.00    -0.019 N 
HETATM   11  C5  UNL     1       3.539 -23.792  -3.785  1.00  0.00     0.728 A 
ATOM     12  H3  UNL     1       4.521 -23.976  -2.033  1.00  0.00     0.203 HD
HETATM   13  N5  UNL     1       2.687 -23.039  -4.527  1.00  0.00     0.108 N 
HETATM   14  N6  UNL     1       1.963 -22.742  -5.593  1.00  0.00    -0.184 N 
HETATM   15  C11 UNL     1       2.226 -21.898  -3.980  1.00  0.00     0.757 A 
HETATM   16  N7  UNL     1       1.490 -21.626  -5.100  1.00  0.00    -0.061 N 
ATOM     17  H6  UNL     1       1.822 -23.216  -6.486  1.00  0.00     0.211 HD
HETATM   18  N10 UNL     1       2.590 -21.521  -2.755  1.00  0.00    -0.017 N 
ATOM     19  H10 UNL     1       2.219 -20.650  -2.375  1.00  0.00     0.203 HD
BRANCH  11  20
HETATM   20  N4  UNL     1       4.004 -24.886  -4.269  1.00  0.00    -0.232 N 
ATOM     21  H42 UNL     1       4.989 -25.118  -4.137  1.00  0.00     0.174 HD
ATOM     22  H41 UNL     1       3.402 -25.528  -4.785  1.00  0.00     0.174 HD
ENDBRANCH  11  20
BRANCH  16  23
HETATM   23  C6  UNL     1       0.609 -20.555  -5.458  1.00  0.00     0.160 A 
HETATM   24  C7  UNL     1       1.056 -19.265  -5.335  1.00  0.00     0.136 A 
HETATM   25  N8  UNL     1       0.227 -18.271  -5.700  1.00  0.00    -0.286 N 
HETATM   26  C9  UNL     1      -1.007 -18.522  -6.172  1.00  0.00     0.331 A 
HETATM   27  O2  UNL     1      -1.784 -17.581  -6.516  1.00  0.00    -0.246 OA
HETATM   28  N9  UNL     1      -1.445 -19.789  -6.292  1.00  0.00    -0.273 N 
HETATM   29  C10 UNL     1      -0.652 -20.791  -5.941  1.00  0.00     0.280 A 
ATOM     30  H9  UNL     1      -2.382 -19.976  -6.650  1.00  0.00     0.173 HD
HETATM   31  O3  UNL     1      -1.049 -22.002  -6.046  1.00  0.00    -0.265 OA
BRANCH  25  32
HETATM   32  C8  UNL     1       0.684 -16.876  -5.585  1.00  0.00     0.299 C 
BRANCH  32  33
HETATM   33  O1  UNL     1      -0.230 -16.153  -4.825  1.00  0.00    -0.382 OA
ATOM     34  H1  UNL     1      -0.043 -15.225  -4.907  1.00  0.00     0.211 HD
ENDBRANCH  32  33
ENDBRANCH  25  32
ENDBRANCH  16  23
ENDBRANCH   1   9
BRANCH   1  35
HETATM   35  C12 UNL     1       4.727 -20.731  -0.641  1.00  0.00     0.262 C 
BRANCH  35  36
HETATM   36  O4  UNL     1       4.562 -19.886   0.436  1.00  0.00    -0.374 OA
ATOM     37  H4  UNL     1       5.246 -19.230   0.498  1.00  0.00     0.212 HD
ENDBRANCH  35  36
BRANCH  35  38
HETATM   38  C13 UNL     1       6.108 -21.358  -0.564  1.00  0.00     0.207 C 
BRANCH  38  39
HETATM   39  N11 UNL     1       7.043 -20.487  -1.290  1.00  0.00    -0.251 N 
HETATM   40  N12 UNL     1       7.223 -19.198  -1.085  1.00  0.00    -0.238 N 
HETATM   41  N13 UNL     1       8.106 -18.698  -1.901  1.00  0.00    -0.281 N 
ATOM     42  H12 UNL     1       6.731 -18.657  -0.373  1.00  0.00     0.208 HD
HETATM   43  C14 UNL     1       8.539 -19.710  -2.696  1.00  0.00     0.112 A 
ATOM     44  H13 UNL     1       8.415 -17.727  -1.937  1.00  0.00     0.188 HD
HETATM   45  C21 UNL     1       7.859 -20.822  -2.294  1.00  0.00     0.188 A 
BRANCH  43  46
HETATM   46  C15 UNL     1       9.515 -19.606  -3.787  1.00  0.00    -0.004 A 
HETATM   47  C16 UNL     1       9.704 -18.437  -4.489  1.00  0.00     0.016 A 
HETATM   48  C17 UNL     1      10.631 -18.405  -5.533  1.00  0.00     0.037 A 
HETATM   49  C18 UNL     1      11.358 -19.505  -5.875  1.00  0.00     0.065 A 
HETATM   50  C19 UNL     1      11.173 -20.675  -5.176  1.00  0.00     0.037 A 
HETATM   51  C20 UNL     1      10.258 -20.704  -4.148  1.00  0.00     0.016 A 
BRANCH  49  52
HETATM   52  O5  UNL     1      12.272 -19.436  -6.920  1.00  0.00    -0.361 OA
ATOM     53  H5  UNL     1      12.772 -20.206  -7.166  1.00  0.00     0.217 HD
ENDBRANCH  49  52
ENDBRANCH  43  46
BRANCH  45  54
HETATM   54  O6  UNL     1       7.999 -22.090  -2.840  1.00  0.00    -0.343 OA
ATOM     55  H6  UNL     1       8.809 -22.580  -2.909  1.00  0.00     0.219 HD
ENDBRANCH  45  54
ENDBRANCH  38  39
ENDBRANCH  35  38
ENDBRANCH   1  35
TORSDOF 15
ENDMDL
MODEL 2
REMARK VINA RESULT: -9.658673232      2.577      8.301
REMARK  15 active torsions:
REMARK  status: ('A' for Active; 'I' for Inactive)
REMARK    1  A    between atoms: C2_2  and  N1_3 
REMARK    2  A    between atoms: C2_2  and  C3_7 
REMARK    3  A    between atoms: C3_7  and  N2_8 
REMARK    4  A    between atoms: N2_8  and  C4_9 
REMARK    5  A    between atoms: N2_8  and  C12_35 
REMARK    6  A    between atoms: C5_12  and  N4_13 
REMARK    7  A    between atoms: N7_19  and  C6_20 
REMARK    8  A    between atoms: N8_22  and  C8_23 
REMARK    9  A    between atoms: C8_23  and  O1_24 
REMARK   10  A    between atoms: C12_35  and  O4_36 
REMARK   11  A    between atoms: C12_35  and  C13_38 
REMARK   12  A    between atoms: C13_38  and  N11_39 
REMARK   13  A    between atoms: C14_44  and  C15_45 
REMARK   14  A    between atoms: C18_48  and  O5_49 
REMARK   15  A    between atoms: C21_53  and  O6_54 
ROOT
HETATM    1  N2  UNL     1       4.937 -22.675  -1.664  1.00  0.00    -0.165 N 
ENDROOT
BRANCH   1   2
HETATM    2  C3  UNL     1       4.569 -21.885  -0.564  1.00  0.00     0.117 C 
BRANCH   2   3
HETATM    3  C2  UNL     1       4.828 -22.395   0.816  1.00  0.00     0.218 C 
HETATM    4  C1  UNL     1       3.599 -22.908   1.530  1.00  0.00     0.045 C 
BRANCH   3   5
HETATM    5  N1  UNL     1       5.373 -21.284   1.580  1.00  0.00    -0.071 N 
ATOM      6  H13 UNL     1       4.739 -20.485   1.617  1.00  0.00     0.275 HD
ATOM      7  H12 UNL     1       5.411 -21.477   2.581  1.00  0.00     0.275 HD
ATOM      8  H11 UNL     1       6.286 -21.043   1.192  1.00  0.00     0.275 HD
ENDBRANCH   3   5
ENDBRANCH   2   3
ENDBRANCH   1   2
BRANCH   1   9
HETATM    9  C4  UNL     1       6.286 -22.853  -2.077  1.00  0.00     0.715 A 
HETATM   10  N3  UNL     1       6.967 -23.986  -2.147  1.00  0.00    -0.019 N 
HETATM   11  C5  UNL     1       8.217 -24.101  -2.592  1.00  0.00     0.728 A 
ATOM     12  H3  UNL     1       6.497 -24.837  -1.836  1.00  0.00     0.203 HD
HETATM   13  N5  UNL     1       8.880 -22.995  -3.017  1.00  0.00     0.108 N 
HETATM   14  N6  UNL     1       9.908 -22.326  -3.512  1.00  0.00    -0.184 N 
HETATM   15  C11 UNL     1       8.227 -21.819  -2.964  1.00  0.00     0.757 A 
HETATM   16  N7  UNL     1       9.311 -21.162  -3.478  1.00  0.00    -0.061 N 
ATOM     17  H6  UNL     1      10.838 -22.616  -3.815  1.00  0.00     0.211 HD
HETATM   18  N10 UNL     1       6.976 -21.740  -2.511  1.00  0.00    -0.017 N 
ATOM     19  H10 UNL     1       6.515 -20.830  -2.486  1.00  0.00     0.203 HD
BRANCH  11  20
HETATM   20  N4  UNL     1       8.802 -25.243  -2.624  1.00  0.00    -0.232 N 
ATOM     21  H42 UNL     1       8.430 -26.016  -2.072  1.00  0.00     0.174 HD
ATOM     22  H41 UNL     1       9.636 -25.388  -3.193  1.00  0.00     0.174 HD
ENDBRANCH  11  20
BRANCH  16  23
HETATM   23  C6  UNL     1       9.562 -19.791  -3.807  1.00  0.00     0.160 A 
HETATM   24  C7  UNL     1       9.023 -18.814  -3.010  1.00  0.00     0.136 A 
HETATM   25  N8  UNL     1       9.289 -17.531  -3.316  1.00  0.00    -0.286 N 
HETATM   26  C9  UNL     1      10.059 -17.204  -4.368  1.00  0.00     0.331 A 
HETATM   27  O2  UNL     1      10.308 -15.993  -4.651  1.00  0.00    -0.246 OA
HETATM   28  N9  UNL     1      10.588 -18.165  -5.150  1.00  0.00    -0.273 N 
HETATM   29  C10 UNL     1      10.344 -19.438  -4.875  1.00  0.00     0.280 A 
ATOM     30  H9  UNL     1      11.172 -17.914  -5.947  1.00  0.00     0.173 HD
HETATM   31  O3  UNL     1      10.836 -20.366  -5.605  1.00  0.00    -0.265 OA
BRANCH  25  32
HETATM   32  C8  UNL     1       8.728 -16.461  -2.473  1.00  0.00     0.299 C 
BRANCH  32  33
HETATM   33  O1  UNL     1       9.663 -16.098  -1.509  1.00  0.00    -0.382 OA
ATOM     34  H1  UNL     1       9.482 -15.213  -1.213  1.00  0.00     0.211 HD
ENDBRANCH  32  33
ENDBRANCH  25  32
ENDBRANCH  16  23
ENDBRANCH   1   9
BRANCH   1  35
HETATM   35  C12 UNL     1       3.971 -23.332  -2.553  1.00  0.00     0.262 C 
BRANCH  35  36
HETATM   36  O4  UNL     1       3.926 -24.699  -2.377  1.00  0.00    -0.374 OA
ATOM     37  H4  UNL     1       4.256 -25.178  -3.127  1.00  0.00     0.212 HD
ENDBRANCH  35  36
BRANCH  35  38
HETATM   38  C13 UNL     1       2.597 -22.755  -2.260  1.00  0.00     0.207 C 
BRANCH  38  39
HETATM   39  N11 UNL     1       2.146 -22.028  -3.455  1.00  0.00    -0.251 N 
HETATM   40  N12 UNL     1       2.559 -22.231  -4.690  1.00  0.00    -0.238 N 
HETATM   41  N13 UNL     1       1.989 -21.414  -5.529  1.00  0.00    -0.281 N 
ATOM     42  H12 UNL     1       3.241 -22.942  -4.956  1.00  0.00     0.208 HD
HETATM   43  C14 UNL     1       1.150 -20.622  -4.815  1.00  0.00     0.112 A 
ATOM     44  H13 UNL     1       2.145 -21.376  -6.536  1.00  0.00     0.188 HD
HETATM   45  C21 UNL     1       1.264 -21.026  -3.516  1.00  0.00     0.188 A 
BRANCH  43  46
HETATM   46  C15 UNL     1       0.320 -19.532  -5.340  1.00  0.00    -0.004 A 
HETATM   47  C16 UNL     1      -0.886 -19.766  -5.962  1.00  0.00     0.016 A 
HETATM   48  C17 UNL     1      -1.621 -18.690  -6.463  1.00  0.00     0.037 A 
HETATM   49  C18 UNL     1      -1.175 -17.409  -6.352  1.00  0.00     0.065 A 
HETATM   50  C19 UNL     1       0.030 -17.169  -5.732  1.00  0.00     0.037 A 
HETATM   51  C20 UNL     1       0.753 -18.232  -5.239  1.00  0.00     0.016 A 
BRANCH  49  52
HETATM   52  O5  UNL     1      -1.934 -16.362  -6.864  1.00  0.00    -0.361 OA
ATOM     53  H5  UNL     1      -2.879 -16.366  -6.762  1.00  0.00     0.217 HD
ENDBRANCH  49  52
ENDBRANCH  43  46
BRANCH  45  54
HETATM   54  O6  UNL     1       0.574 -20.482  -2.442  1.00  0.00    -0.343 OA
ATOM     55  H6  UNL     1      -0.132 -19.850  -2.497  1.00  0.00     0.219 HD
ENDBRANCH  45  54
ENDBRANCH  38  39
ENDBRANCH  35  38
ENDBRANCH   1  35
TORSDOF 15
ENDMDL
MODEL 3
REMARK VINA RESULT: -9.606425650      3.139      5.464
REMARK  15 active torsions:
REMARK  status: ('A' for Active; 'I' for Inactive)
REMARK    1  A    between atoms: C2_2  and  N1_3 
REMARK    2  A    between atoms: C2_2  and  C3_7 
REMARK    3  A    between atoms: C3_7  and  N2_8 
REMARK    4  A    between atoms: N2_8  and  C4_9 
REMARK    5  A    between atoms: N2_8  and  C12_35 
REMARK    6  A    between atoms: C5_12  and  N4_13 
REMARK    7  A    between atoms: N7_19  and  C6_20 
REMARK    8  A    between atoms: N8_22  and  C8_23 
REMARK    9  A    between atoms: C8_23  and  O1_24 
REMARK   10  A    between atoms: C12_35  and  O4_36 
REMARK   11  A    between atoms: C12_35  and  C13_38 
REMARK   12  A    between atoms: C13_38  and  N11_39 
REMARK   13  A    between atoms: C14_44  and  C15_45 
REMARK   14  A    between atoms: C18_48  and  O5_49 
REMARK   15  A    between atoms: C21_53  and  O6_54 
ROOT
HETATM    1  N2  UNL     1       8.521 -23.463  -5.078  1.00  0.00    -0.165 N 
ENDROOT
BRANCH   1   2
HETATM    2  C3  UNL     1       9.542 -23.670  -6.019  1.00  0.00     0.117 C 
BRANCH   2   3
HETATM    3  C2  UNL     1      10.695 -24.547  -5.659  1.00  0.00     0.218 C 
HETATM    4  C1  UNL     1      12.049 -23.955  -5.977  1.00  0.00     0.045 C 
BRANCH   3   5
HETATM    5  N1  UNL     1      10.542 -25.778  -6.419  1.00  0.00    -0.071 N 
ATOM      6  H13 UNL     1      11.279 -25.903  -7.114  1.00  0.00     0.275 HD
ATOM      7  H12 UNL     1      10.736 -26.610  -5.861  1.00  0.00     0.275 HD
ATOM      8  H11 UNL     1       9.608 -25.789  -6.829  1.00  0.00     0.275 HD
ENDBRANCH   3   5
ENDBRANCH   2   3
ENDBRANCH   1   2
BRANCH   1   9
HETATM    9  C4  UNL     1       7.331 -24.238  -5.038  1.00  0.00     0.715 A 
HETATM   10  N3  UNL     1       7.207 -25.541  -5.237  1.00  0.00    -0.019 N 
HETATM   11  C5  UNL     1       6.069 -26.226  -5.135  1.00  0.00     0.728 A 
ATOM     12  H3  UNL     1       8.049 -26.061  -5.486  1.00  0.00     0.203 HD
HETATM   13  N5  UNL     1       4.924 -25.575  -4.803  1.00  0.00     0.108 N 
HETATM   14  N6  UNL     1       3.633 -25.477  -4.533  1.00  0.00    -0.184 N 
HETATM   15  C11 UNL     1       5.001 -24.248  -4.592  1.00  0.00     0.757 A 
HETATM   16  N7  UNL     1       3.663 -24.186  -4.318  1.00  0.00    -0.061 N 
ATOM     17  H6  UNL     1       2.880 -26.164  -4.502  1.00  0.00     0.211 HD
HETATM   18  N10 UNL     1       6.157 -23.595  -4.703  1.00  0.00    -0.017 N 
ATOM     19  H10 UNL     1       6.175 -22.588  -4.536  1.00  0.00     0.203 HD
BRANCH  11  20
HETATM   20  N4  UNL     1       6.041 -27.491  -5.347  1.00  0.00    -0.232 N 
ATOM     21  H42 UNL     1       5.593 -27.852  -6.190  1.00  0.00     0.174 HD
ATOM     22  H41 UNL     1       6.461 -28.143  -4.684  1.00  0.00     0.174 HD
ENDBRANCH  11  20
BRANCH  16  23
HETATM   23  C6  UNL     1       2.785 -23.115  -3.953  1.00  0.00     0.160 A 
HETATM   24  C7  UNL     1       2.083 -22.473  -4.941  1.00  0.00     0.136 A 
HETATM   25  N8  UNL     1       1.242 -21.487  -4.580  1.00  0.00    -0.286 N 
HETATM   26  C9  UNL     1       1.086 -21.132  -3.293  1.00  0.00     0.331 A 
HETATM   27  O2  UNL     1       0.292 -20.202  -2.958  1.00  0.00    -0.246 OA
HETATM   28  N9  UNL     1       1.777 -21.762  -2.324  1.00  0.00    -0.273 N 
HETATM   29  C10 UNL     1       2.613 -22.738  -2.647  1.00  0.00     0.280 A 
ATOM     30  H9  UNL     1       1.656 -21.490  -1.348  1.00  0.00     0.173 HD
HETATM   31  O3  UNL     1       3.279 -23.350  -1.742  1.00  0.00    -0.265 OA
BRANCH  25  32
HETATM   32  C8  UNL     1       0.470 -20.786  -5.619  1.00  0.00     0.299 C 
BRANCH  32  33
HETATM   33  O1  UNL     1      -0.776 -21.390  -5.753  1.00  0.00    -0.382 OA
ATOM     34  H1  UNL     1      -0.902 -21.653  -6.657  1.00  0.00     0.211 HD
ENDBRANCH  32  33
ENDBRANCH  25  32
ENDBRANCH  16  23
ENDBRANCH   1   9
BRANCH   1  35
HETATM   35  C12 UNL     1       8.534 -22.376  -4.092  1.00  0.00     0.262 C 
BRANCH  35  36
HETATM   36  O4  UNL     1       8.725 -22.826  -2.803  1.00  0.00    -0.374 OA
ATOM     37  H4  UNL     1       9.643 -22.894  -2.569  1.00  0.00     0.212 HD
ENDBRANCH  35  36
BRANCH  35  38
HETATM   38  C13 UNL     1       9.666 -21.429  -4.451  1.00  0.00     0.207 C 
BRANCH  38  39
HETATM   39  N11 UNL     1       9.392 -20.133  -3.816  1.00  0.00    -0.251 N 
HETATM   40  N12 UNL     1       8.512 -19.905  -2.862  1.00  0.00    -0.238 N 
HETATM   41  N13 UNL     1       8.485 -18.649  -2.520  1.00  0.00    -0.281 N 
ATOM     42  H12 UNL     1       7.923 -20.625  -2.443  1.00  0.00     0.208 HD
HETATM   43  C14 UNL     1       9.398 -18.002  -3.288  1.00  0.00     0.112 A 
ATOM     44  H13 UNL     1       7.889 -18.229  -1.807  1.00  0.00     0.188 HD
HETATM   45  C21 UNL     1       9.956 -18.952  -4.093  1.00  0.00     0.188 A 
BRANCH  43  46
HETATM   46  C15 UNL     1       9.692 -16.564  -3.270  1.00  0.00    -0.004 A 
HETATM   47  C16 UNL     1       9.375 -15.741  -4.327  1.00  0.00     0.016 A 
HETATM   48  C17 UNL     1       9.699 -14.385  -4.263  1.00  0.00     0.037 A 
HETATM   49  C18 UNL     1      10.324 -13.851  -3.176  1.00  0.00     0.065 A 
HETATM   50  C19 UNL     1      10.642 -14.670  -2.117  1.00  0.00     0.037 A 
HETATM   51  C20 UNL     1      10.321 -16.007  -2.183  1.00  0.00     0.016 A 
BRANCH  49  52
HETATM   52  O5  UNL     1      10.632 -12.496  -3.147  1.00  0.00    -0.361 OA
ATOM     53  H5  UNL     1      11.288 -12.145  -3.739  1.00  0.00     0.217 HD
ENDBRANCH  49  52
ENDBRANCH  43  46
BRANCH  45  54
HETATM   54  O6  UNL     1      10.945 -18.725  -5.038  1.00  0.00    -0.343 OA
ATOM     55  H6  UNL     1      11.747 -18.236  -4.898  1.00  0.00     0.219 HD
ENDBRANCH  45  54
ENDBRANCH  38  39
ENDBRANCH  35  38
ENDBRANCH   1  35
TORSDOF 15
ENDMDL
MODEL 4
REMARK VINA RESULT: -9.428392787      3.912      8.641
REMARK  15 active torsions:
REMARK  status: ('A' for Active; 'I' for Inactive)
REMARK    1  A    between atoms: C2_2  and  N1_3 
REMARK    2  A    between atoms: C2_2  and  C3_7 
REMARK    3  A    between atoms: C3_7  and  N2_8 
REMARK    4  A    between atoms: N2_8  and  C4_9 
REMARK    5  A    between atoms: N2_8  and  C12_35 
REMARK    6  A    between atoms: C5_12  and  N4_13 
REMARK    7  A    between atoms: N7_19  and  C6_20 
REMARK    8  A    between atoms: N8_22  and  C8_23 
REMARK    9  A    between atoms: C8_23  and  O1_24 
REMARK   10  A    between atoms: C12_35  and  O4_36 
REMARK   11  A    between atoms: C12_35  and  C13_38 
REMARK   12  A    between atoms: C13_38  and  N11_39 
REMARK   13  A    between atoms: C14_44  and  C15_45 
REMARK   14  A    between atoms: C18_48  and  O5_49 
REMARK   15  A    between atoms: C21_53  and  O6_54 
ROOT
HETATM    1  N2  UNL     1      10.028 -22.509  -5.197  1.00  0.00    -0.165 N 
ENDROOT
BRANCH   1   2
HETATM    2  C3  UNL     1      11.203 -23.240  -4.964  1.00  0.00     0.117 C 
BRANCH   2   3
HETATM    3  C2  UNL     1      12.503 -22.704  -5.466  1.00  0.00     0.218 C 
HETATM    4  C1  UNL     1      13.183 -21.738  -4.522  1.00  0.00     0.045 C 
BRANCH   3   5
HETATM    5  N1  UNL     1      12.220 -22.007  -6.711  1.00  0.00    -0.071 N 
ATOM      6  H13 UNL     1      11.677 -21.155  -6.568  1.00  0.00     0.275 HD
ATOM      7  H12 UNL     1      13.051 -21.576  -7.117  1.00  0.00     0.275 HD
ATOM      8  H11 UNL     1      11.764 -22.660  -7.349  1.00  0.00     0.275 HD
ENDBRANCH   3   5
ENDBRANCH   2   3
ENDBRANCH   1   2
BRANCH   1   9
HETATM    9  C4  UNL     1       9.650 -21.376  -4.426  1.00  0.00     0.715 A 
HETATM   10  N3  UNL     1      10.030 -20.119  -4.595  1.00  0.00    -0.019 N 
HETATM   11  C5  UNL     1       9.602 -19.087  -3.871  1.00  0.00     0.728 A 
ATOM     12  H3  UNL     1      10.703 -19.928  -5.337  1.00  0.00     0.203 HD
HETATM   13  N5  UNL     1       8.704 -19.296  -2.874  1.00  0.00     0.108 N 
HETATM   14  N6  UNL     1       7.908 -18.939  -1.879  1.00  0.00    -0.184 N 
HETATM   15  C11 UNL     1       8.288 -20.559  -2.664  1.00  0.00     0.757 A 
HETATM   16  N7  UNL     1       7.477 -20.152  -1.642  1.00  0.00    -0.061 N 
ATOM     17  H6  UNL     1       7.703 -18.037  -1.449  1.00  0.00     0.211 HD
HETATM   18  N10 UNL     1       8.739 -21.569  -3.408  1.00  0.00    -0.017 N 
ATOM     19  H10 UNL     1       8.400 -22.513  -3.218  1.00  0.00     0.203 HD
BRANCH  11  20
HETATM   20  N4  UNL     1      10.027 -17.898  -4.103  1.00  0.00    -0.232 N 
ATOM     21  H42 UNL     1      11.028 -17.705  -4.074  1.00  0.00     0.174 HD
ATOM     22  H41 UNL     1       9.376 -17.142  -4.317  1.00  0.00     0.174 HD
ENDBRANCH  11  20
BRANCH  16  23
HETATM   23  C6  UNL     1       6.578 -20.844  -0.768  1.00  0.00     0.160 A 
HETATM   24  C7  UNL     1       6.782 -22.181  -0.537  1.00  0.00     0.136 A 
HETATM   25  N8  UNL     1       5.946 -22.811   0.306  1.00  0.00    -0.286 N 
HETATM   26  C9  UNL     1       4.935 -22.163   0.911  1.00  0.00     0.331 A 
HETATM   27  O2  UNL     1       4.150 -22.762   1.706  1.00  0.00    -0.246 OA
HETATM   28  N9  UNL     1       4.735 -20.851   0.684  1.00  0.00    -0.273 N 
HETATM   29  C10 UNL     1       5.543 -20.200  -0.143  1.00  0.00     0.280 A 
ATOM     30  H9  UNL     1       3.968 -20.361   1.144  1.00  0.00     0.173 HD
HETATM   31  O3  UNL     1       5.370 -18.955  -0.373  1.00  0.00    -0.265 OA
BRANCH  25  32
HETATM   32  C8  UNL     1       6.146 -24.245   0.578  1.00  0.00     0.299 C 
BRANCH  32  33
HETATM   33  O1  UNL     1       5.205 -24.984  -0.132  1.00  0.00    -0.382 OA
ATOM     34  H1  UNL     1       5.494 -25.888  -0.191  1.00  0.00     0.211 HD
ENDBRANCH  32  33
ENDBRANCH  25  32
ENDBRANCH  16  23
ENDBRANCH   1   9
BRANCH   1  35
HETATM   35  C12 UNL     1       9.025 -22.881  -6.203  1.00  0.00     0.262 C 
BRANCH  35  36
HETATM   36  O4  UNL     1       9.499 -22.775  -7.494  1.00  0.00    -0.374 OA
ATOM     37  H4  UNL     1       8.840 -22.982  -8.146  1.00  0.00     0.212 HD
ENDBRANCH  35  36
BRANCH  35  38
HETATM   38  C13 UNL     1       8.618 -24.322  -5.949  1.00  0.00     0.207 C 
BRANCH  38  39
HETATM   39  N11 UNL     1       7.563 -24.321  -4.926  1.00  0.00    -0.251 N 
HETATM   40  N12 UNL     1       7.665 -24.803  -3.704  1.00  0.00    -0.238 N 
HETATM   41  N13 UNL     1       6.552 -24.674  -3.040  1.00  0.00    -0.281 N 
ATOM     42  H12 UNL     1       8.512 -25.225  -3.324  1.00  0.00     0.208 HD
HETATM   43  C14 UNL     1       5.657 -24.072  -3.865  1.00  0.00     0.112 A 
ATOM     44  H13 UNL     1       6.383 -24.970  -2.079  1.00  0.00     0.188 HD
HETATM   45  C21 UNL     1       6.314 -23.859  -5.042  1.00  0.00     0.188 A 
BRANCH  43  46
HETATM   46  C15 UNL     1       4.259 -23.753  -3.553  1.00  0.00    -0.004 A 
HETATM   47  C16 UNL     1       3.209 -24.426  -4.135  1.00  0.00     0.016 A 
HETATM   48  C17 UNL     1       1.899 -24.063  -3.816  1.00  0.00     0.037 A 
HETATM   49  C18 UNL     1       1.632 -23.056  -2.939  1.00  0.00     0.065 A 
HETATM   50  C19 UNL     1       2.678 -22.382  -2.353  1.00  0.00     0.037 A 
HETATM   51  C20 UNL     1       3.969 -22.741  -2.670  1.00  0.00     0.016 A 
BRANCH  49  52
HETATM   52  O5  UNL     1       0.315 -22.722  -2.645  1.00  0.00    -0.361 OA
ATOM     53  H5  UNL     1      -0.230 -22.311  -3.307  1.00  0.00     0.217 HD
ENDBRANCH  49  52
ENDBRANCH  43  46
BRANCH  45  54
HETATM   54  O6  UNL     1       5.769 -23.260  -6.169  1.00  0.00    -0.343 OA
ATOM     55  H6  UNL     1       5.576 -23.694  -6.991  1.00  0.00     0.219 HD
ENDBRANCH  45  54
ENDBRANCH  38  39
ENDBRANCH  35  38
ENDBRANCH   1  35
TORSDOF 15
ENDMDL
MODEL 5
REMARK VINA RESULT: -9.418611868      2.357      8.311
REMARK  15 active torsions:
REMARK  status: ('A' for Active; 'I' for Inactive)
REMARK    1  A    between atoms: C2_2  and  N1_3 
REMARK    2  A    between atoms: C2_2  and  C3_7 
REMARK    3  A    between atoms: C3_7  and  N2_8 
REMARK    4  A    between atoms: N2_8  and  C4_9 
REMARK    5  A    between atoms: N2_8  and  C12_35 
REMARK    6  A    between atoms: C5_12  and  N4_13 
REMARK    7  A    between atoms: N7_19  and  C6_20 
REMARK    8  A    between atoms: N8_22  and  C8_23 
REMARK    9  A    between atoms: C8_23  and  O1_24 
REMARK   10  A    between atoms: C12_35  and  O4_36 
REMARK   11  A    between atoms: C12_35  and  C13_38 
REMARK   12  A    between atoms: C13_38  and  N11_39 
REMARK   13  A    between atoms: C14_44  and  C15_45 
REMARK   14  A    between atoms: C18_48  and  O5_49 
REMARK   15  A    between atoms: C21_53  and  O6_54 
ROOT
HETATM    1  N2  UNL     1       4.555 -22.872  -1.523  1.00  0.00    -0.165 N 
ENDROOT
BRANCH   1   2
HETATM    2  C3  UNL     1       4.120 -22.244  -0.346  1.00  0.00     0.117 C 
BRANCH   2   3
HETATM    3  C2  UNL     1       4.731 -22.641   0.957  1.00  0.00     0.218 C 
HETATM    4  C1  UNL     1       3.751 -23.215   1.954  1.00  0.00     0.045 C 
BRANCH   3   5
HETATM    5  N1  UNL     1       5.319 -21.440   1.530  1.00  0.00    -0.071 N 
ATOM      6  H13 UNL     1       4.729 -20.617   1.406  1.00  0.00     0.275 HD
ATOM      7  H12 UNL     1       5.324 -21.455   2.550  1.00  0.00     0.275 HD
ATOM      8  H11 UNL     1       6.252 -21.318   1.135  1.00  0.00     0.275 HD
ENDBRANCH   3   5
ENDBRANCH   2   3
ENDBRANCH   1   2
BRANCH   1   9
HETATM    9  C4  UNL     1       5.925 -23.114  -1.817  1.00  0.00     0.715 A 
HETATM   10  N3  UNL     1       6.588 -24.254  -1.702  1.00  0.00    -0.019 N 
HETATM   11  C5  UNL     1       7.863 -24.435  -2.041  1.00  0.00     0.728 A 
ATOM     12  H3  UNL     1       6.083 -25.055  -1.325  1.00  0.00     0.203 HD
HETATM   13  N5  UNL     1       8.574 -23.395  -2.550  1.00  0.00     0.108 N 
HETATM   14  N6  UNL     1       9.646 -22.802  -3.049  1.00  0.00    -0.184 N 
HETATM   15  C11 UNL     1       7.941 -22.214  -2.684  1.00  0.00     0.757 A 
HETATM   16  N7  UNL     1       9.069 -21.636  -3.197  1.00  0.00    -0.061 N 
ATOM     17  H6  UNL     1      10.589 -23.136  -3.248  1.00  0.00     0.211 HD
HETATM   18  N10 UNL     1       6.664 -22.069  -2.333  1.00  0.00    -0.017 N 
ATOM     19  H10 UNL     1       6.219 -21.158  -2.450  1.00  0.00     0.203 HD
BRANCH  11  20
HETATM   20  N4  UNL     1       8.428 -25.578  -1.894  1.00  0.00    -0.232 N 
ATOM     21  H42 UNL     1       9.438 -25.661  -2.015  1.00  0.00     0.174 HD
ATOM     22  H41 UNL     1       7.880 -26.406  -1.659  1.00  0.00     0.174 HD
ENDBRANCH  11  20
BRANCH  16  23
HETATM   23  C6  UNL     1       9.368 -20.318  -3.670  1.00  0.00     0.160 A 
HETATM   24  C7  UNL     1      10.100 -20.182  -4.822  1.00  0.00     0.136 A 
HETATM   25  N8  UNL     1      10.350 -18.939  -5.268  1.00  0.00    -0.286 N 
HETATM   26  C9  UNL     1       9.902 -17.853  -4.614  1.00  0.00     0.331 A 
HETATM   27  O2  UNL     1      10.140 -16.682  -5.040  1.00  0.00    -0.246 OA
HETATM   28  N9  UNL     1       9.183 -17.987  -3.484  1.00  0.00    -0.273 N 
HETATM   29  C10 UNL     1       8.919 -19.200  -3.018  1.00  0.00     0.280 A 
ATOM     30  H9  UNL     1       8.844 -17.162  -2.990  1.00  0.00     0.173 HD
HETATM   31  O3  UNL     1       8.239 -19.350  -1.946  1.00  0.00    -0.265 OA
BRANCH  25  32
HETATM   32  C8  UNL     1      11.129 -18.763  -6.506  1.00  0.00     0.299 C 
BRANCH  32  33
HETATM   33  O1  UNL     1      10.307 -18.229  -7.494  1.00  0.00    -0.382 OA
ATOM     34  H1  UNL     1      10.551 -17.324  -7.651  1.00  0.00     0.211 HD
ENDBRANCH  32  33
ENDBRANCH  25  32
ENDBRANCH  16  23
ENDBRANCH   1   9
BRANCH   1  35
HETATM   35  C12 UNL     1       3.654 -23.272  -2.612  1.00  0.00     0.262 C 
BRANCH  35  36
HETATM   36  O4  UNL     1       3.522 -24.640  -2.721  1.00  0.00    -0.374 OA
ATOM     37  H4  UNL     1       2.674 -24.902  -3.061  1.00  0.00     0.212 HD
ENDBRANCH  35  36
BRANCH  35  38
HETATM   38  C13 UNL     1       2.289 -22.669  -2.336  1.00  0.00     0.207 C 
BRANCH  38  39
HETATM   39  N11 UNL     1       1.873 -21.921  -3.531  1.00  0.00    -0.251 N 
HETATM   40  N12 UNL     1       2.274 -22.145  -4.766  1.00  0.00    -0.238 N 
HETATM   41  N13 UNL     1       1.744 -21.302  -5.605  1.00  0.00    -0.281 N 
ATOM     42  H12 UNL     1       2.922 -22.887  -5.032  1.00  0.00     0.208 HD
HETATM   43  C14 UNL     1       0.944 -20.470  -4.891  1.00  0.00     0.112 A 
ATOM     44  H13 UNL     1       1.901 -21.272  -6.613  1.00  0.00     0.188 HD
HETATM   45  C21 UNL     1       1.039 -20.878  -3.593  1.00  0.00     0.188 A 
BRANCH  43  46
HETATM   46  C15 UNL     1       0.167 -19.342  -5.417  1.00  0.00    -0.004 A 
HETATM   47  C16 UNL     1      -1.038 -19.520  -6.059  1.00  0.00     0.016 A 
HETATM   48  C17 UNL     1      -1.721 -18.411  -6.559  1.00  0.00     0.037 A 
HETATM   49  C18 UNL     1      -1.225 -17.149  -6.428  1.00  0.00     0.065 A 
HETATM   50  C19 UNL     1      -0.022 -16.965  -5.787  1.00  0.00     0.037 A 
HETATM   51  C20 UNL     1       0.651 -18.061  -5.295  1.00  0.00     0.016 A 
BRANCH  49  52
HETATM   52  O5  UNL     1      -1.933 -16.067  -6.940  1.00  0.00    -0.361 OA
ATOM     53  H5  UNL     1      -2.315 -16.117  -7.809  1.00  0.00     0.217 HD
ENDBRANCH  49  52
ENDBRANCH  43  46
BRANCH  45  54
HETATM   54  O6  UNL     1       0.377 -20.302  -2.519  1.00  0.00    -0.343 OA
ATOM     55  H6  UNL     1       0.099 -19.396  -2.457  1.00  0.00     0.219 HD
ENDBRANCH  45  54
ENDBRANCH  38  39
ENDBRANCH  35  38
ENDBRANCH   1  35
TORSDOF 15
ENDMDL
