MODEL 1
REMARK VINA RESULT: -8.293194537      0.000      0.000
REMARK  13 active torsions:
REMARK  status: ('A' for Active; 'I' for Inactive)
REMARK    1  A    between atoms: O1_2  and  C2_3 
REMARK    2  A    between atoms: C2_3  and  C3_5 
REMARK    3  A    between atoms: C3_5  and  O3_6 
REMARK    4  A    between atoms: C3_5  and  C4_8 
REMARK    5  A    between atoms: C4_8  and  C5_9 
REMARK    6  A    between atoms: C4_8  and  N9_32 
REMARK    7  A    between atoms: C5_9  and  C6_10 
REMARK    8  A    between atoms: C5_9  and  N4_19 
REMARK    9  A    between atoms: C6_10  and  C7_11 
REMARK   10  A    between atoms: C9_22  and  N6_23 
REMARK   11  A    between atoms: N7_26  and  N8_27 
REMARK   12  A    between atoms: C12_34  and  N10_35 
REMARK       I    between atoms: N10_35  and  C13_37 
REMARK   13  A    between atoms: C13_37  and  C14_39 
ROOT
HETATM    1  C14 UNL     1      -0.083 -19.577  -5.234  1.00  0.00     0.073 A 
HETATM    2  C15 UNL     1      -1.288 -19.778  -5.867  1.00  0.00     0.108 A 
HETATM    3  N11 UNL     1      -1.917 -18.742  -6.460  1.00  0.00    -0.352 N 
ATOM      4  H11 UNL     1      -2.810 -18.889  -6.931  1.00  0.00     0.166 HD
HETATM    5  C16 UNL     1      -1.371 -17.529  -6.432  1.00  0.00     0.139 A 
HETATM    6  N12 UNL     1      -2.053 -16.434  -7.068  1.00  0.00    -0.081 NA
HETATM    7  C17 UNL     1      -0.165 -17.278  -5.811  1.00  0.00     0.111 A 
HETATM    8  C18 UNL     1       0.413 -15.947  -5.792  1.00  0.00     0.105 C 
HETATM    9  N13 UNL     1       0.872 -14.885  -5.763  1.00  0.00    -0.191 NA
HETATM   10  C19 UNL     1       0.475 -18.310  -5.212  1.00  0.00     0.087 A 
HETATM   11  N14 UNL     1       1.711 -18.105  -4.563  1.00  0.00    -0.100 NA
ENDROOT
BRANCH   1  12
HETATM   12  C13 UNL     1       0.635 -20.667  -4.579  1.00  0.00     0.259 C 
HETATM   13  N10 UNL     1       1.554 -21.439  -5.275  1.00  0.00    -0.320 N 
ATOM     14  H10 UNL     1       1.719 -21.228  -6.259  1.00  0.00     0.169 HD
HETATM   15  O5  UNL     1       0.384 -20.871  -3.366  1.00  0.00    -0.267 OA
BRANCH  13  16
HETATM   16  C12 UNL     1       2.280 -22.514  -4.678  1.00  0.00     0.069 A 
HETATM   17  C11 UNL     1       3.641 -22.483  -4.369  1.00  0.00     0.141 A 
HETATM   18  N9  UNL     1       4.043 -23.631  -3.819  1.00  0.00    -0.292 N 
HETATM   19  N15 UNL     1       2.950 -24.405  -3.773  1.00  0.00    -0.307 N 
HETATM   20  C20 UNL     1       1.883 -23.757  -4.281  1.00  0.00     0.138 A 
ATOM     21  H15 UNL     1       2.927 -25.355  -3.403  1.00  0.00     0.186 HD
BRANCH  18  22
HETATM   22  C4  UNL     1       5.363 -24.047  -3.330  1.00  0.00     0.171 C 
BRANCH  22  23
HETATM   23  C3  UNL     1       5.368 -25.529  -3.056  1.00  0.00     0.244 C 
BRANCH  23  24
HETATM   24  C2  UNL     1       5.486 -26.409  -4.199  1.00  0.00     0.289 C 
HETATM   25  O2  UNL     1       4.506 -26.833  -4.831  1.00  0.00    -0.262 OA
BRANCH  24  26
HETATM   26  O1  UNL     1       6.748 -26.808  -4.622  1.00  0.00    -0.324 OA
HETATM   27  C1  UNL     1       7.481 -26.156  -5.628  1.00  0.00     0.213 C 
ENDBRANCH  24  26
ENDBRANCH  23  24
BRANCH  23  28
HETATM   28  O3  UNL     1       4.380 -25.945  -2.167  1.00  0.00    -0.383 OA
ATOM     29  H3  UNL     1       4.718 -26.527  -1.497  1.00  0.00     0.210 HD
ENDBRANCH  23  28
ENDBRANCH  22  23
BRANCH  22  30
HETATM   30  C5  UNL     1       5.851 -23.173  -2.261  1.00  0.00     0.148 C 
BRANCH  30  31
HETATM   31  C6  UNL     1       7.335 -23.148  -2.148  1.00  0.00     0.107 C 
BRANCH  31  32
HETATM   32  C7  UNL     1       8.006 -21.916  -2.573  1.00  0.00     0.098 A 
HETATM   33  N1  UNL     1       7.757 -20.672  -2.069  1.00  0.00    -0.340 N 
HETATM   34  C8  UNL     1       8.508 -19.752  -2.656  1.00  0.00     0.198 A 
ATOM     35  H1  UNL     1       7.078 -20.475  -1.333  1.00  0.00     0.168 HD
HETATM   36  N2  UNL     1       9.261 -20.404  -3.558  1.00  0.00    -0.295 N 
HETATM   37  N3  UNL     1       8.950 -21.709  -3.500  1.00  0.00    -0.288 N 
ATOM     38  H2  UNL     1       9.949 -19.980  -4.180  1.00  0.00     0.187 HD
ATOM     39  H3  UNL     1       9.371 -22.436  -4.078  1.00  0.00     0.188 HD
ENDBRANCH  31  32
ENDBRANCH  30  31
BRANCH  30  40
HETATM   40  N4  UNL     1       5.203 -23.328  -0.973  1.00  0.00    -0.219 N 
HETATM   41  N5  UNL     1       5.430 -24.237  -0.028  1.00  0.00    -0.124 N 
HETATM   42  C9  UNL     1       4.642 -24.053   1.031  1.00  0.00     0.716 A 
ATOM     43  H5  UNL     1       6.122 -24.982  -0.104  1.00  0.00     0.206 HD
HETATM   44  N7  UNL     1       3.869 -22.977   0.761  1.00  0.00    -0.036 N 
HETATM   45  C10 UNL     1       4.228 -22.555  -0.461  1.00  0.00     0.377 A 
HETATM   46  O4  UNL     1       3.708 -21.548  -1.052  1.00  0.00    -0.242 OA
BRANCH  42  47
HETATM   47  N6  UNL     1       4.566 -24.724   2.138  1.00  0.00    -0.231 N 
ATOM     48  H62 UNL     1       4.507 -25.742   2.173  1.00  0.00     0.174 HD
ATOM     49  H61 UNL     1       4.552 -24.394   3.103  1.00  0.00     0.174 HD
ENDBRANCH  42  47
BRANCH  44  50
HETATM   50  N8  UNL     1       2.892 -22.436   1.614  1.00  0.00    -0.320 N 
ATOM     51  H82 UNL     1       2.875 -21.511   2.045  1.00  0.00     0.178 HD
ATOM     52  H81 UNL     1       2.044 -22.911   1.923  1.00  0.00     0.178 HD
ENDBRANCH  44  50
ENDBRANCH  30  40
ENDBRANCH  22  30
ENDBRANCH  18  22
ENDBRANCH  13  16
ENDBRANCH   1  12
TORSDOF 13
ENDMDL
MODEL 2
REMARK VINA RESULT: -8.199776726      1.607      2.011
REMARK  13 active torsions:
REMARK  status: ('A' for Active; 'I' for Inactive)
REMARK    1  A    between atoms: O1_2  and  C2_3 
REMARK    2  A    between atoms: C2_3  and  C3_5 
REMARK    3  A    between atoms: C3_5  and  O3_6 
REMARK    4  A    between atoms: C3_5  and  C4_8 
REMARK    5  A    between atoms: C4_8  and  C5_9 
REMARK    6  A    between atoms: C4_8  and  N9_32 
REMARK    7  A    between atoms: C5_9  and  C6_10 
REMARK    8  A    between atoms: C5_9  and  N4_19 
REMARK    9  A    between atoms: C6_10  and  C7_11 
REMARK   10  A    between atoms: C9_22  and  N6_23 
REMARK   11  A    between atoms: N7_26  and  N8_27 
REMARK   12  A    between atoms: C12_34  and  N10_35 
REMARK       I    between atoms: N10_35  and  C13_37 
REMARK   13  A    between atoms: C13_37  and  C14_39 
ROOT
HETATM    1  C14 UNL     1      -0.052 -19.677  -5.332  1.00  0.00     0.073 A 
HETATM    2  C15 UNL     1      -1.276 -19.834  -5.938  1.00  0.00     0.108 A 
HETATM    3  N11 UNL     1      -1.908 -18.765  -6.466  1.00  0.00    -0.352 N 
ATOM      4  H11 UNL     1      -2.816 -18.879  -6.917  1.00  0.00     0.166 HD
HETATM    5  C16 UNL     1      -1.345 -17.561  -6.399  1.00  0.00     0.139 A 
HETATM    6  N12 UNL     1      -2.030 -16.430  -6.965  1.00  0.00    -0.081 NA
HETATM    7  C17 UNL     1      -0.119 -17.353  -5.802  1.00  0.00     0.111 A 
HETATM    8  C18 UNL     1       0.477 -16.031  -5.740  1.00  0.00     0.105 C 
HETATM    9  N13 UNL     1       0.951 -14.977  -5.677  1.00  0.00    -0.191 NA
HETATM   10  C19 UNL     1       0.524 -18.419  -5.269  1.00  0.00     0.087 A 
HETATM   11  N14 UNL     1       1.780 -18.258  -4.647  1.00  0.00    -0.100 NA
ENDROOT
BRANCH   1  12
HETATM   12  C13 UNL     1       0.669 -20.803  -4.747  1.00  0.00     0.259 C 
HETATM   13  N10 UNL     1       1.690 -21.438  -5.441  1.00  0.00    -0.320 N 
ATOM     14  H10 UNL     1       1.927 -21.100  -6.373  1.00  0.00     0.169 HD
HETATM   15  O5  UNL     1       0.326 -21.169  -3.596  1.00  0.00    -0.267 OA
BRANCH  13  16
HETATM   16  C12 UNL     1       2.423 -22.543  -4.912  1.00  0.00     0.069 A 
HETATM   17  C11 UNL     1       3.741 -22.860  -5.247  1.00  0.00     0.141 A 
HETATM   18  N9  UNL     1       4.163 -23.946  -4.594  1.00  0.00    -0.292 N 
HETATM   19  N15 UNL     1       3.125 -24.333  -3.841  1.00  0.00    -0.307 N 
HETATM   20  C20 UNL     1       2.073 -23.508  -4.014  1.00  0.00     0.138 A 
ATOM     21  H15 UNL     1       3.129 -25.143  -3.220  1.00  0.00     0.186 HD
BRANCH  18  22
HETATM   22  C4  UNL     1       5.459 -24.633  -4.620  1.00  0.00     0.171 C 
BRANCH  22  23
HETATM   23  C3  UNL     1       5.256 -26.110  -4.842  1.00  0.00     0.244 C 
BRANCH  23  24
HETATM   24  C2  UNL     1       6.381 -26.860  -5.358  1.00  0.00     0.289 C 
HETATM   25  O2  UNL     1       6.961 -27.743  -4.707  1.00  0.00    -0.262 OA
BRANCH  24  26
HETATM   26  O1  UNL     1       6.845 -26.593  -6.639  1.00  0.00    -0.324 OA
HETATM   27  C1  UNL     1       8.133 -26.109  -6.924  1.00  0.00     0.213 C 
ENDBRANCH  24  26
ENDBRANCH  23  24
BRANCH  23  28
HETATM   28  O3  UNL     1       4.065 -26.427  -5.492  1.00  0.00    -0.383 OA
ATOM     29  H3  UNL     1       3.454 -26.883  -4.925  1.00  0.00     0.210 HD
ENDBRANCH  23  28
ENDBRANCH  22  23
BRANCH  22  30
HETATM   30  C5  UNL     1       6.308 -24.242  -3.493  1.00  0.00     0.148 C 
BRANCH  30  31
HETATM   31  C6  UNL     1       7.669 -23.797  -3.902  1.00  0.00     0.107 C 
BRANCH  31  32
HETATM   32  C7  UNL     1       8.072 -22.450  -3.487  1.00  0.00     0.098 A 
HETATM   33  N1  UNL     1       7.577 -21.781  -2.405  1.00  0.00    -0.340 N 
HETATM   34  C8  UNL     1       8.121 -20.579  -2.288  1.00  0.00     0.198 A 
ATOM     35  H1  UNL     1       6.877 -22.159  -1.766  1.00  0.00     0.168 HD
HETATM   36  N2  UNL     1       8.986 -20.459  -3.310  1.00  0.00    -0.295 N 
HETATM   37  N3  UNL     1       8.947 -21.593  -4.028  1.00  0.00    -0.288 N 
ATOM     38  H2  UNL     1       9.570 -19.646  -3.507  1.00  0.00     0.187 HD
ATOM     39  H3  UNL     1       9.504 -21.776  -4.862  1.00  0.00     0.188 HD
ENDBRANCH  31  32
ENDBRANCH  30  31
BRANCH  30  40
HETATM   40  N4  UNL     1       6.345 -25.169  -2.377  1.00  0.00    -0.219 N 
HETATM   41  N5  UNL     1       7.216 -26.145  -2.131  1.00  0.00    -0.124 N 
HETATM   42  C9  UNL     1       6.932 -26.782  -0.996  1.00  0.00     0.716 A 
ATOM     43  H5  UNL     1       8.003 -26.377  -2.737  1.00  0.00     0.206 HD
HETATM   44  N7  UNL     1       5.828 -26.194  -0.483  1.00  0.00    -0.036 N 
HETATM   45  C10 UNL     1       5.491 -25.218  -1.340  1.00  0.00     0.377 A 
HETATM   46  O4  UNL     1       4.489 -24.441  -1.181  1.00  0.00    -0.242 OA
BRANCH  42  47
HETATM   47  N6  UNL     1       7.538 -27.776  -0.426  1.00  0.00    -0.231 N 
ATOM     48  H62 UNL     1       8.290 -28.303  -0.871  1.00  0.00     0.174 HD
ATOM     49  H61 UNL     1       7.396 -28.187   0.497  1.00  0.00     0.174 HD
ENDBRANCH  42  47
BRANCH  44  50
HETATM   50  N8  UNL     1       5.187 -26.559   0.713  1.00  0.00    -0.320 N 
ATOM     51  H82 UNL     1       4.259 -26.968   0.831  1.00  0.00     0.178 HD
ATOM     52  H81 UNL     1       5.577 -26.461   1.651  1.00  0.00     0.178 HD
ENDBRANCH  44  50
ENDBRANCH  30  40
ENDBRANCH  22  30
ENDBRANCH  18  22
ENDBRANCH  13  16
ENDBRANCH   1  12
TORSDOF 13
ENDMDL
MODEL 3
REMARK VINA RESULT: -8.175585592      2.420      3.072
REMARK  13 active torsions:
REMARK  status: ('A' for Active; 'I' for Inactive)
REMARK    1  A    between atoms: O1_2  and  C2_3 
REMARK    2  A    between atoms: C2_3  and  C3_5 
REMARK    3  A    between atoms: C3_5  and  O3_6 
REMARK    4  A    between atoms: C3_5  and  C4_8 
REMARK    5  A    between atoms: C4_8  and  C5_9 
REMARK    6  A    between atoms: C4_8  and  N9_32 
REMARK    7  A    between atoms: C5_9  and  C6_10 
REMARK    8  A    between atoms: C5_9  and  N4_19 
REMARK    9  A    between atoms: C6_10  and  C7_11 
REMARK   10  A    between atoms: C9_22  and  N6_23 
REMARK   11  A    between atoms: N7_26  and  N8_27 
REMARK   12  A    between atoms: C12_34  and  N10_35 
REMARK       I    between atoms: N10_35  and  C13_37 
REMARK   13  A    between atoms: C13_37  and  C14_39 
ROOT
HETATM    1  C14 UNL     1      -0.058 -19.664  -5.348  1.00  0.00     0.073 A 
HETATM    2  C15 UNL     1      -1.287 -19.823  -5.945  1.00  0.00     0.108 A 
HETATM    3  N11 UNL     1      -1.929 -18.754  -6.459  1.00  0.00    -0.352 N 
ATOM      4  H11 UNL     1      -2.840 -18.870  -6.903  1.00  0.00     0.166 HD
HETATM    5  C16 UNL     1      -1.373 -17.547  -6.386  1.00  0.00     0.139 A 
HETATM    6  N12 UNL     1      -2.070 -16.416  -6.938  1.00  0.00    -0.081 NA
HETATM    7  C17 UNL     1      -0.144 -17.336  -5.799  1.00  0.00     0.111 A 
HETATM    8  C18 UNL     1       0.445 -16.012  -5.730  1.00  0.00     0.105 C 
HETATM    9  N13 UNL     1       0.913 -14.955  -5.662  1.00  0.00    -0.191 NA
HETATM   10  C19 UNL     1       0.510 -18.403  -5.279  1.00  0.00     0.087 A 
HETATM   11  N14 UNL     1       1.771 -18.240  -4.667  1.00  0.00    -0.100 NA
ENDROOT
BRANCH   1  12
HETATM   12  C13 UNL     1       0.674 -20.791  -4.779  1.00  0.00     0.259 C 
HETATM   13  N10 UNL     1       1.702 -21.405  -5.481  1.00  0.00    -0.320 N 
ATOM     14  H10 UNL     1       1.936 -21.051  -6.408  1.00  0.00     0.169 HD
HETATM   15  O5  UNL     1       0.335 -21.176  -3.633  1.00  0.00    -0.267 OA
BRANCH  13  16
HETATM   16  C12 UNL     1       2.447 -22.509  -4.967  1.00  0.00     0.069 A 
HETATM   17  C11 UNL     1       3.727 -22.874  -5.388  1.00  0.00     0.141 A 
HETATM   18  N9  UNL     1       4.171 -23.946  -4.728  1.00  0.00    -0.292 N 
HETATM   19  N15 UNL     1       3.184 -24.278  -3.884  1.00  0.00    -0.307 N 
HETATM   20  C20 UNL     1       2.143 -23.432  -4.010  1.00  0.00     0.138 A 
ATOM     21  H15 UNL     1       3.217 -25.064  -3.235  1.00  0.00     0.186 HD
BRANCH  18  22
HETATM   22  C4  UNL     1       5.445 -24.668  -4.825  1.00  0.00     0.171 C 
BRANCH  22  23
HETATM   23  C3  UNL     1       5.193 -26.153  -4.886  1.00  0.00     0.244 C 
BRANCH  23  24
HETATM   24  C2  UNL     1       6.261 -26.981  -5.403  1.00  0.00     0.289 C 
HETATM   25  O2  UNL     1       6.745 -26.833  -6.536  1.00  0.00    -0.262 OA
BRANCH  24  26
HETATM   26  O1  UNL     1       6.781 -27.993  -4.607  1.00  0.00    -0.324 OA
HETATM   27  C1  UNL     1       6.010 -28.788  -3.741  1.00  0.00     0.213 C 
ENDBRANCH  24  26
ENDBRANCH  23  24
BRANCH  23  28
HETATM   28  O3  UNL     1       3.952 -26.495  -5.419  1.00  0.00    -0.383 OA
ATOM     29  H3  UNL     1       3.233 -26.079  -4.957  1.00  0.00     0.210 HD
ENDBRANCH  23  28
ENDBRANCH  22  23
BRANCH  22  30
HETATM   30  C5  UNL     1       6.416 -24.200  -3.833  1.00  0.00     0.148 C 
BRANCH  30  31
HETATM   31  C6  UNL     1       7.603 -23.533  -4.435  1.00  0.00     0.107 C 
BRANCH  31  32
HETATM   32  C7  UNL     1       7.942 -23.912  -5.810  1.00  0.00     0.098 A 
HETATM   33  N1  UNL     1       9.020 -24.669  -6.173  1.00  0.00    -0.340 N 
HETATM   34  C8  UNL     1       9.073 -24.837  -7.485  1.00  0.00     0.198 A 
ATOM     35  H1  UNL     1       9.698 -25.056  -5.516  1.00  0.00     0.168 HD
HETATM   36  N2  UNL     1       8.014 -24.181  -7.990  1.00  0.00    -0.295 N 
HETATM   37  N3  UNL     1       7.339 -23.626  -6.970  1.00  0.00    -0.288 N 
ATOM     38  H2  UNL     1       7.767 -24.115  -8.977  1.00  0.00     0.187 HD
ATOM     39  H3  UNL     1       6.491 -23.068  -7.065  1.00  0.00     0.188 HD
ENDBRANCH  31  32
ENDBRANCH  30  31
BRANCH  30  40
HETATM   40  N4  UNL     1       6.785 -25.159  -2.808  1.00  0.00    -0.219 N 
HETATM   41  N5  UNL     1       7.919 -25.841  -2.672  1.00  0.00    -0.124 N 
HETATM   42  C9  UNL     1       7.895 -26.623  -1.593  1.00  0.00     0.716 A 
ATOM     43  H5  UNL     1       8.708 -25.774  -3.314  1.00  0.00     0.206 HD
HETATM   44  N7  UNL     1       6.693 -26.440  -1.004  1.00  0.00    -0.036 N 
HETATM   45  C10 UNL     1       6.036 -25.547  -1.760  1.00  0.00     0.377 A 
HETATM   46  O4  UNL     1       4.857 -25.126  -1.508  1.00  0.00    -0.242 OA
BRANCH  42  47
HETATM   47  N6  UNL     1       8.800 -27.428  -1.130  1.00  0.00    -0.231 N 
ATOM     48  H62 UNL     1       8.947 -28.372  -1.489  1.00  0.00     0.174 HD
ATOM     49  H61 UNL     1       9.481 -27.287  -0.384  1.00  0.00     0.174 HD
ENDBRANCH  42  47
BRANCH  44  50
HETATM   50  N8  UNL     1       6.251 -27.077   0.169  1.00  0.00    -0.320 N 
ATOM     51  H82 UNL     1       6.744 -27.767   0.736  1.00  0.00     0.178 HD
ATOM     52  H81 UNL     1       5.349 -26.927   0.622  1.00  0.00     0.178 HD
ENDBRANCH  44  50
ENDBRANCH  30  40
ENDBRANCH  22  30
ENDBRANCH  18  22
ENDBRANCH  13  16
ENDBRANCH   1  12
TORSDOF 13
ENDMDL
MODEL 4
REMARK VINA RESULT: -8.167322007      0.963      1.196
REMARK  13 active torsions:
REMARK  status: ('A' for Active; 'I' for Inactive)
REMARK    1  A    between atoms: O1_2  and  C2_3 
REMARK    2  A    between atoms: C2_3  and  C3_5 
REMARK    3  A    between atoms: C3_5  and  O3_6 
REMARK    4  A    between atoms: C3_5  and  C4_8 
REMARK    5  A    between atoms: C4_8  and  C5_9 
REMARK    6  A    between atoms: C4_8  and  N9_32 
REMARK    7  A    between atoms: C5_9  and  C6_10 
REMARK    8  A    between atoms: C5_9  and  N4_19 
REMARK    9  A    between atoms: C6_10  and  C7_11 
REMARK   10  A    between atoms: C9_22  and  N6_23 
REMARK   11  A    between atoms: N7_26  and  N8_27 
REMARK   12  A    between atoms: C12_34  and  N10_35 
REMARK       I    between atoms: N10_35  and  C13_37 
REMARK   13  A    between atoms: C13_37  and  C14_39 
ROOT
HETATM    1  C14 UNL     1       0.246 -20.495  -5.549  1.00  0.00     0.073 A 
HETATM    2  C15 UNL     1      -0.942 -20.717  -6.204  1.00  0.00     0.108 A 
HETATM    3  N11 UNL     1      -1.677 -19.672  -6.639  1.00  0.00    -0.352 N 
ATOM      4  H11 UNL     1      -2.558 -19.835  -7.126  1.00  0.00     0.166 HD
HETATM    5  C16 UNL     1      -1.249 -18.429  -6.433  1.00  0.00     0.139 A 
HETATM    6  N12 UNL     1      -2.043 -17.325  -6.902  1.00  0.00    -0.081 NA
HETATM    7  C17 UNL     1      -0.065 -18.155  -5.782  1.00  0.00     0.111 A 
HETATM    8  C18 UNL     1       0.382 -16.791  -5.568  1.00  0.00     0.105 C 
HETATM    9  N13 UNL     1       0.737 -15.705  -5.383  1.00  0.00    -0.191 NA
HETATM   10  C19 UNL     1       0.680 -19.197  -5.341  1.00  0.00     0.087 A 
HETATM   11  N14 UNL     1       1.900 -18.968  -4.669  1.00  0.00    -0.100 NA
ENDROOT
BRANCH   1  12
HETATM   12  C13 UNL     1       1.075 -21.593  -5.061  1.00  0.00     0.259 C 
HETATM   13  N10 UNL     1       2.348 -21.810  -5.569  1.00  0.00    -0.320 N 
ATOM     14  H10 UNL     1       2.695 -21.183  -6.294  1.00  0.00     0.169 HD
HETATM   15  O5  UNL     1       0.586 -22.327  -4.166  1.00  0.00    -0.267 OA
BRANCH  13  16
HETATM   16  C12 UNL     1       3.195 -22.870  -5.123  1.00  0.00     0.069 A 
HETATM   17  C11 UNL     1       4.125 -22.766  -4.087  1.00  0.00     0.141 A 
HETATM   18  N9  UNL     1       4.772 -23.918  -3.895  1.00  0.00    -0.292 N 
HETATM   19  N15 UNL     1       4.266 -24.765  -4.802  1.00  0.00    -0.307 N 
HETATM   20  C20 UNL     1       3.321 -24.160  -5.547  1.00  0.00     0.138 A 
ATOM     21  H15 UNL     1       4.557 -25.737  -4.913  1.00  0.00     0.186 HD
BRANCH  18  22
HETATM   22  C4  UNL     1       5.812 -24.280  -2.925  1.00  0.00     0.171 C 
BRANCH  22  23
HETATM   23  C3  UNL     1       5.575 -25.678  -2.412  1.00  0.00     0.244 C 
BRANCH  23  24
HETATM   24  C2  UNL     1       6.367 -26.737  -2.998  1.00  0.00     0.289 C 
HETATM   25  O2  UNL     1       7.382 -27.203  -2.456  1.00  0.00    -0.262 OA
BRANCH  24  26
HETATM   26  O1  UNL     1       5.987 -27.272  -4.222  1.00  0.00    -0.324 OA
HETATM   27  C1  UNL     1       6.781 -27.225  -5.381  1.00  0.00     0.213 C 
ENDBRANCH  24  26
ENDBRANCH  23  24
BRANCH  23  28
HETATM   28  O3  UNL     1       4.229 -26.020  -2.302  1.00  0.00    -0.383 OA
ATOM     29  H3  UNL     1       4.107 -26.915  -2.007  1.00  0.00     0.210 HD
ENDBRANCH  23  28
ENDBRANCH  22  23
BRANCH  22  30
HETATM   30  C5  UNL     1       6.016 -23.231  -1.924  1.00  0.00     0.148 C 
BRANCH  30  31
HETATM   31  C6  UNL     1       7.450 -22.910  -1.686  1.00  0.00     0.107 C 
BRANCH  31  32
HETATM   32  C7  UNL     1       7.921 -21.609  -2.172  1.00  0.00     0.098 A 
HETATM   33  N1  UNL     1       8.807 -21.427  -3.195  1.00  0.00    -0.340 N 
HETATM   34  C8  UNL     1       9.051 -20.142  -3.401  1.00  0.00     0.198 A 
ATOM     35  H1  UNL     1       9.228 -22.185  -3.733  1.00  0.00     0.168 HD
HETATM   36  N2  UNL     1       8.314 -19.472  -2.499  1.00  0.00    -0.295 N 
HETATM   37  N3  UNL     1       7.636 -20.367  -1.763  1.00  0.00    -0.288 N 
ATOM     38  H2  UNL     1       8.276 -18.458  -2.392  1.00  0.00     0.187 HD
ATOM     39  H3  UNL     1       6.997 -20.135  -1.002  1.00  0.00     0.188 HD
ENDBRANCH  31  32
ENDBRANCH  30  31
BRANCH  30  40
HETATM   40  N4  UNL     1       5.274 -23.385  -0.686  1.00  0.00    -0.219 N 
HETATM   41  N5  UNL     1       5.412 -24.310   0.261  1.00  0.00    -0.124 N 
HETATM   42  C9  UNL     1       4.554 -24.119   1.263  1.00  0.00     0.716 A 
ATOM     43  H5  UNL     1       6.091 -25.070   0.224  1.00  0.00     0.206 HD
HETATM   44  N7  UNL     1       3.827 -23.024   0.951  1.00  0.00    -0.036 N 
HETATM   45  C10 UNL     1       4.282 -22.596  -0.236  1.00  0.00     0.377 A 
HETATM   46  O4  UNL     1       3.828 -21.571  -0.850  1.00  0.00    -0.242 OA
BRANCH  42  47
HETATM   47  N6  UNL     1       4.384 -24.801   2.352  1.00  0.00    -0.231 N 
ATOM     48  H62 UNL     1       4.485 -25.815   2.400  1.00  0.00     0.174 HD
ATOM     49  H61 UNL     1       4.140 -24.483   3.291  1.00  0.00     0.174 HD
ENDBRANCH  42  47
BRANCH  44  50
HETATM   50  N8  UNL     1       2.804 -22.469   1.740  1.00  0.00    -0.320 N 
ATOM     51  H82 UNL     1       2.800 -22.311   2.748  1.00  0.00     0.178 HD
ATOM     52  H81 UNL     1       1.901 -22.141   1.396  1.00  0.00     0.178 HD
ENDBRANCH  44  50
ENDBRANCH  30  40
ENDBRANCH  22  30
ENDBRANCH  18  22
ENDBRANCH  13  16
ENDBRANCH   1  12
TORSDOF 13
ENDMDL
MODEL 5
REMARK VINA RESULT: -8.145883474      2.273      3.628
REMARK  13 active torsions:
REMARK  status: ('A' for Active; 'I' for Inactive)
REMARK    1  A    between atoms: O1_2  and  C2_3 
REMARK    2  A    between atoms: C2_3  and  C3_5 
REMARK    3  A    between atoms: C3_5  and  O3_6 
REMARK    4  A    between atoms: C3_5  and  C4_8 
REMARK    5  A    between atoms: C4_8  and  C5_9 
REMARK    6  A    between atoms: C4_8  and  N9_32 
REMARK    7  A    between atoms: C5_9  and  C6_10 
REMARK    8  A    between atoms: C5_9  and  N4_19 
REMARK    9  A    between atoms: C6_10  and  C7_11 
REMARK   10  A    between atoms: C9_22  and  N6_23 
REMARK   11  A    between atoms: N7_26  and  N8_27 
REMARK   12  A    between atoms: C12_34  and  N10_35 
REMARK       I    between atoms: N10_35  and  C13_37 
REMARK   13  A    between atoms: C13_37  and  C14_39 
ROOT
HETATM    1  C14 UNL     1      -0.235 -19.609  -5.726  1.00  0.00     0.073 A 
HETATM    2  C15 UNL     1      -1.500 -19.611  -6.264  1.00  0.00     0.108 A 
HETATM    3  N11 UNL     1      -2.099 -18.444  -6.580  1.00  0.00    -0.352 N 
ATOM      4  H11 UNL     1      -3.037 -18.444  -6.980  1.00  0.00     0.166 HD
HETATM    5  C16 UNL     1      -1.463 -17.294  -6.370  1.00  0.00     0.139 A 
HETATM    6  N12 UNL     1      -2.113 -16.058  -6.712  1.00  0.00    -0.081 NA
HETATM    7  C17 UNL     1      -0.194 -17.240  -5.834  1.00  0.00     0.111 A 
HETATM    8  C18 UNL     1       0.481 -15.975  -5.614  1.00  0.00     0.105 C 
HETATM    9  N13 UNL     1       1.019 -14.968  -5.425  1.00  0.00    -0.191 NA
HETATM   10  C19 UNL     1       0.416 -18.406  -5.513  1.00  0.00     0.087 A 
HETATM   11  N14 UNL     1       1.715 -18.405  -4.961  1.00  0.00    -0.100 NA
ENDROOT
BRANCH   1  12
HETATM   12  C13 UNL     1       0.453 -20.847  -5.368  1.00  0.00     0.259 C 
HETATM   13  N10 UNL     1       0.946 -21.047  -4.086  1.00  0.00    -0.320 N 
ATOM     14  H10 UNL     1       0.817 -20.308  -3.396  1.00  0.00     0.169 HD
HETATM   15  O5  UNL     1       0.577 -21.715  -6.266  1.00  0.00    -0.267 OA
BRANCH  13  16
HETATM   16  C12 UNL     1       1.624 -22.239  -3.689  1.00  0.00     0.069 A 
HETATM   17  C11 UNL     1       2.996 -22.458  -3.823  1.00  0.00     0.141 A 
HETATM   18  N9  UNL     1       3.345 -23.663  -3.365  1.00  0.00    -0.292 N 
HETATM   19  N15 UNL     1       2.206 -24.224  -2.937  1.00  0.00    -0.307 N 
HETATM   20  C20 UNL     1       1.164 -23.390  -3.120  1.00  0.00     0.138 A 
ATOM     21  H15 UNL     1       2.137 -25.156  -2.527  1.00  0.00     0.186 HD
BRANCH  18  22
HETATM   22  C4  UNL     1       4.658 -24.314  -3.292  1.00  0.00     0.171 C 
BRANCH  22  23
HETATM   23  C3  UNL     1       4.754 -25.398  -4.335  1.00  0.00     0.244 C 
BRANCH  23  24
HETATM   24  C2  UNL     1       5.903 -25.366  -5.214  1.00  0.00     0.289 C 
HETATM   25  O2  UNL     1       6.871 -26.134  -5.093  1.00  0.00    -0.262 OA
BRANCH  24  26
HETATM   26  O1  UNL     1       5.941 -24.440  -6.249  1.00  0.00    -0.324 OA
HETATM   27  C1  UNL     1       7.108 -23.781  -6.672  1.00  0.00     0.213 C 
ENDBRANCH  24  26
ENDBRANCH  23  24
BRANCH  23  28
HETATM   28  O3  UNL     1       3.566 -25.628  -5.025  1.00  0.00    -0.383 OA
ATOM     29  H3  UNL     1       2.863 -25.908  -4.450  1.00  0.00     0.210 HD
ENDBRANCH  23  28
ENDBRANCH  22  23
BRANCH  22  30
HETATM   30  C5  UNL     1       5.012 -24.681  -1.919  1.00  0.00     0.148 C 
BRANCH  30  31
HETATM   31  C6  UNL     1       5.417 -23.519  -1.081  1.00  0.00     0.107 C 
BRANCH  31  32
HETATM   32  C7  UNL     1       4.462 -23.082  -0.058  1.00  0.00     0.098 A 
HETATM   33  N1  UNL     1       4.397 -23.570   1.215  1.00  0.00    -0.340 N 
HETATM   34  C8  UNL     1       3.426 -22.993   1.906  1.00  0.00     0.198 A 
ATOM     35  H1  UNL     1       5.018 -24.289   1.588  1.00  0.00     0.168 HD
HETATM   36  N2  UNL     1       2.845 -22.113   1.072  1.00  0.00    -0.295 N 
HETATM   37  N3  UNL     1       3.478 -22.175  -0.110  1.00  0.00    -0.288 N 
ATOM     38  H2  UNL     1       2.060 -21.503   1.299  1.00  0.00     0.187 HD
ATOM     39  H3  UNL     1       3.245 -21.614  -0.929  1.00  0.00     0.188 HD
ENDBRANCH  31  32
ENDBRANCH  30  31
BRANCH  30  40
HETATM   40  N4  UNL     1       5.920 -25.804  -1.779  1.00  0.00    -0.219 N 
HETATM   41  N5  UNL     1       7.238 -25.839  -1.953  1.00  0.00    -0.124 N 
HETATM   42  C9  UNL     1       7.733 -27.054  -1.720  1.00  0.00     0.716 A 
ATOM     43  H5  UNL     1       7.801 -25.035  -2.230  1.00  0.00     0.206 HD
HETATM   44  N7  UNL     1       6.689 -27.842  -1.381  1.00  0.00    -0.036 N 
HETATM   45  C10 UNL     1       5.599 -27.061  -1.423  1.00  0.00     0.377 A 
HETATM   46  O4  UNL     1       4.417 -27.467  -1.158  1.00  0.00    -0.242 OA
BRANCH  42  47
HETATM   47  N6  UNL     1       8.956 -27.480  -1.784  1.00  0.00    -0.231 N 
ATOM     48  H62 UNL     1       9.618 -27.401  -1.012  1.00  0.00     0.174 HD
ATOM     49  H61 UNL     1       9.449 -27.938  -2.551  1.00  0.00     0.174 HD
ENDBRANCH  42  47
BRANCH  44  50
HETATM   50  N8  UNL     1       6.766 -29.208  -1.054  1.00  0.00    -0.320 N 
ATOM     51  H82 UNL     1       7.146 -29.632  -0.207  1.00  0.00     0.178 HD
ATOM     52  H81 UNL     1       6.442 -29.978  -1.639  1.00  0.00     0.178 HD
ENDBRANCH  44  50
ENDBRANCH  30  40
ENDBRANCH  22  30
ENDBRANCH  18  22
ENDBRANCH  13  16
ENDBRANCH   1  12
TORSDOF 13
ENDMDL
