MODEL 1
REMARK VINA RESULT: -9.436177077      0.000      0.000
REMARK  15 active torsions:
REMARK  status: ('A' for Active; 'I' for Inactive)
REMARK       I    between atoms: N1_1  and  C1_4 
REMARK       I    between atoms: C1_4  and  N3_6 
REMARK    1  A    between atoms: N3_6  and  C2_8 
REMARK    2  A    between atoms: C4_17  and  C5_18 
REMARK    3  A    between atoms: N8_20  and  C7_21 
REMARK    4  A    between atoms: C7_21  and  C8_22 
REMARK    5  A    between atoms: C8_22  and  C9_23 
REMARK    6  A    between atoms: C13_31  and  C14_32 
REMARK       I    between atoms: C14_32  and  N12_34 
REMARK    7  A    between atoms: N12_34  and  C15_36 
REMARK    8  A    between atoms: C15_36  and  N13_37 
REMARK    9  A    between atoms: N13_37  and  C16_39 
REMARK   10  A    between atoms: C16_39  and  C17_40 
REMARK   11  A    between atoms: C17_40  and  O2_41 
REMARK   12  A    between atoms: N14_43  and  O3_44 
REMARK   13  A    between atoms: C18_46  and  C19_47 
REMARK   14  A    between atoms: C19_47  and  N15_48 
REMARK   15  A    between atoms: C19_47  and  O4_52 
ROOT
HETATM    1  C5  UNL     1       8.455 -21.910  -2.607  1.00  0.00     0.081 A 
HETATM    2  C6  UNL     1       8.010 -23.020  -1.941  1.00  0.00     0.124 A 
HETATM    3  N8  UNL     1       7.107 -22.653  -1.014  1.00  0.00    -0.340 N 
HETATM    4  C18 UNL     1       6.966 -21.327  -1.075  1.00  0.00     0.141 A 
HETATM    5  N16 UNL     1       7.806 -20.894  -2.064  1.00  0.00    -0.339 N 
ATOM      6  H16 UNL     1       7.917 -19.919  -2.344  1.00  0.00     0.167 HD
ENDROOT
BRANCH   3   7
HETATM    7  C7  UNL     1       6.479 -23.600  -0.165  1.00  0.00     0.136 C 
BRANCH   7   8
HETATM    8  C8  UNL     1       5.608 -24.559  -0.895  1.00  0.00     0.079 C 
BRANCH   8   9
HETATM    9  C9  UNL     1       4.580 -23.823  -1.703  1.00  0.00     0.030 A 
HETATM   10  C10 UNL     1       3.570 -23.077  -1.125  1.00  0.00     0.145 A 
HETATM   11  N9  UNL     1       2.855 -22.510  -2.094  1.00  0.00    -0.221 N 
HETATM   12  C11 UNL     1       3.390 -22.884  -3.243  1.00  0.00     0.156 A 
HETATM   13  N14 UNL     1       1.806 -21.688  -2.306  1.00  0.00    -0.148 N 
HETATM   14  N10 UNL     1       4.448 -23.689  -3.022  1.00  0.00    -0.341 N 
HETATM   15  C12 UNL     1       2.635 -22.262  -4.230  1.00  0.00     0.128 A 
ATOM     16  H10 UNL     1       5.040 -24.118  -3.734  1.00  0.00     0.167 HD
HETATM   17  N11 UNL     1       2.861 -22.387  -5.611  1.00  0.00    -0.096 NA
HETATM   18  C13 UNL     1       1.624 -21.495  -3.633  1.00  0.00     0.178 A 
BRANCH  18  19
HETATM   19  C14 UNL     1       0.653 -20.684  -4.313  1.00  0.00     0.286 C 
HETATM   20  O1  UNL     1      -0.192 -20.035  -3.660  1.00  0.00    -0.265 OA
HETATM   21  N12 UNL     1       0.545 -20.535  -5.756  1.00  0.00    -0.273 N 
ATOM     22  H12 UNL     1       1.206 -21.037  -6.347  1.00  0.00     0.180 HD
BRANCH  21  23
HETATM   23  C15 UNL     1      -0.358 -19.790  -6.327  1.00  0.00     0.050 C 
BRANCH  23  24
HETATM   24  N13 UNL     1      -1.226 -19.072  -6.876  1.00  0.00    -0.341 N 
ATOM     25  H13 UNL     1      -1.748 -19.455  -7.664  1.00  0.00     0.170 HD
BRANCH  24  26
HETATM   26  C16 UNL     1      -1.516 -17.745  -6.447  1.00  0.00     0.156 C 
BRANCH  26  27
HETATM   27  C17 UNL     1      -0.314 -16.864  -6.770  1.00  0.00     0.184 C 
BRANCH  27  28
HETATM   28  O2  UNL     1      -0.752 -15.750  -7.523  1.00  0.00    -0.399 OA
ATOM     29  H2  UNL     1      -0.259 -14.984  -7.255  1.00  0.00     0.209 HD
ENDBRANCH  27  28
ENDBRANCH  26  27
ENDBRANCH  24  26
ENDBRANCH  23  24
ENDBRANCH  21  23
ENDBRANCH  18  19
BRANCH  13  30
HETATM   30  O3  UNL     1       1.057 -21.154  -1.275  1.00  0.00    -0.267 OA
ATOM     31  H3  UNL     1       0.685 -20.281  -1.311  1.00  0.00     0.247 HD
ENDBRANCH  13  30
ENDBRANCH   8   9
ENDBRANCH   7   8
ENDBRANCH   3   7
BRANCH   4  32
HETATM   32  C19 UNL     1       6.136 -20.419  -0.293  1.00  0.00     0.385 C 
BRANCH  32  33
HETATM   33  N15 UNL     1       6.139 -20.555   1.121  1.00  0.00    -0.046 N 
ATOM     34 3H15 UNL     1       5.882 -21.512   1.363  1.00  0.00     0.277 HD
ATOM     35 2H15 UNL     1       7.101 -20.518   1.457  1.00  0.00     0.277 HD
ATOM     36 1H15 UNL     1       5.570 -19.910   1.668  1.00  0.00     0.277 HD
ENDBRANCH  32  33
BRANCH  32  37
HETATM   37  O4  UNL     1       6.391 -19.072  -0.585  1.00  0.00    -0.364 OA
ATOM     38  H4  UNL     1       5.599 -18.585  -0.781  1.00  0.00     0.212 HD
ENDBRANCH  32  37
ENDBRANCH   4  32
BRANCH   1  39
HETATM   39  C4  UNL     1       9.468 -21.880  -3.666  1.00  0.00     0.125 A 
HETATM   40  N7  UNL     1      10.167 -22.914  -4.159  1.00  0.00    -0.279 N 
HETATM   41  N6  UNL     1      11.014 -22.500  -5.081  1.00  0.00    -0.219 N 
ATOM     42  H7  UNL     1      10.059 -23.883  -3.863  1.00  0.00     0.189 HD
HETATM   43  N5  UNL     1      10.889 -21.184  -5.213  1.00  0.00    -0.163 N 
ATOM     44  H6  UNL     1      11.658 -23.092  -5.605  1.00  0.00     0.210 HD
HETATM   45  N4  UNL     1      11.555 -20.381  -6.006  1.00  0.00    -0.284 N 
HETATM   46  C20 UNL     1       9.935 -20.773  -4.346  1.00  0.00     0.179 A 
HETATM   47  C3  UNL     1      11.284 -19.041  -5.964  1.00  0.00     0.158 A 
ATOM     48  H4  UNL     1      12.262 -20.749  -6.643  1.00  0.00     0.188 HD
HETATM   49  C2  UNL     1      10.321 -18.605  -5.089  1.00  0.00     0.126 A 
HETATM   50  N17 UNL     1       9.654 -19.478  -4.289  1.00  0.00    -0.323 N 
ATOM     51  H17 UNL     1       8.939 -19.138  -3.646  1.00  0.00     0.169 HD
BRANCH  49  52
HETATM   52  N3  UNL     1      10.046 -17.350  -4.986  1.00  0.00    -0.316 N 
HETATM   53  C1  UNL     1      10.144 -16.742  -3.713  1.00  0.00     0.187 C 
HETATM   54  N1  UNL     1      11.164 -15.943  -3.509  1.00  0.00    -0.373 N 
HETATM   55  N2  UNL     1       9.160 -17.009  -2.731  1.00  0.00    -0.064 NA
ATOM     56  H12 UNL     1      11.235 -15.504  -2.590  1.00  0.00     0.158 HD
ATOM     57  H11 UNL     1      11.874 -15.750  -4.216  1.00  0.00     0.158 HD
ATOM     58  H3  UNL     1       9.764 -16.808  -5.803  1.00  0.00     0.170 HD
ENDBRANCH  49  52
ENDBRANCH   1  39
TORSDOF 15
ENDMDL
MODEL 2
REMARK VINA RESULT: -9.394506724      1.146      1.513
REMARK  15 active torsions:
REMARK  status: ('A' for Active; 'I' for Inactive)
REMARK       I    between atoms: N1_1  and  C1_4 
REMARK       I    between atoms: C1_4  and  N3_6 
REMARK    1  A    between atoms: N3_6  and  C2_8 
REMARK    2  A    between atoms: C4_17  and  C5_18 
REMARK    3  A    between atoms: N8_20  and  C7_21 
REMARK    4  A    between atoms: C7_21  and  C8_22 
REMARK    5  A    between atoms: C8_22  and  C9_23 
REMARK    6  A    between atoms: C13_31  and  C14_32 
REMARK       I    between atoms: C14_32  and  N12_34 
REMARK    7  A    between atoms: N12_34  and  C15_36 
REMARK    8  A    between atoms: C15_36  and  N13_37 
REMARK    9  A    between atoms: N13_37  and  C16_39 
REMARK   10  A    between atoms: C16_39  and  C17_40 
REMARK   11  A    between atoms: C17_40  and  O2_41 
REMARK   12  A    between atoms: N14_43  and  O3_44 
REMARK   13  A    between atoms: C18_46  and  C19_47 
REMARK   14  A    between atoms: C19_47  and  N15_48 
REMARK   15  A    between atoms: C19_47  and  O4_52 
ROOT
HETATM    1  C5  UNL     1       8.516 -22.047  -2.746  1.00  0.00     0.081 A 
HETATM    2  C6  UNL     1       7.960 -23.179  -2.214  1.00  0.00     0.124 A 
HETATM    3  N8  UNL     1       7.054 -22.837  -1.281  1.00  0.00    -0.340 N 
HETATM    4  C18 UNL     1       7.020 -21.504  -1.205  1.00  0.00     0.141 A 
HETATM    5  N16 UNL     1       7.929 -21.042  -2.118  1.00  0.00    -0.339 N 
ATOM      6  H16 UNL     1       8.127 -20.056  -2.291  1.00  0.00     0.167 HD
ENDROOT
BRANCH   3   7
HETATM    7  C7  UNL     1       6.322 -23.811  -0.554  1.00  0.00     0.136 C 
BRANCH   7   8
HETATM    8  C8  UNL     1       5.464 -24.665  -1.417  1.00  0.00     0.079 C 
BRANCH   8   9
HETATM    9  C9  UNL     1       4.447 -23.830  -2.138  1.00  0.00     0.030 A 
HETATM   10  C10 UNL     1       4.259 -23.896  -3.505  1.00  0.00     0.145 A 
HETATM   11  N9  UNL     1       3.262 -23.079  -3.836  1.00  0.00    -0.221 N 
HETATM   12  C11 UNL     1       2.835 -22.514  -2.721  1.00  0.00     0.156 A 
HETATM   13  N14 UNL     1       2.538 -22.650  -4.891  1.00  0.00    -0.148 N 
HETATM   14  N10 UNL     1       3.550 -22.962  -1.669  1.00  0.00    -0.341 N 
HETATM   15  C12 UNL     1       1.785 -21.686  -3.097  1.00  0.00     0.128 A 
ATOM     16  H10 UNL     1       3.428 -22.688  -0.694  1.00  0.00     0.167 HD
HETATM   17  N11 UNL     1       1.036 -20.888  -2.214  1.00  0.00    -0.096 NA
HETATM   18  C13 UNL     1       1.593 -21.773  -4.483  1.00  0.00     0.178 A 
BRANCH  18  19
HETATM   19  C14 UNL     1       0.590 -21.088  -5.251  1.00  0.00     0.286 C 
HETATM   20  O1  UNL     1      -0.462 -21.678  -5.577  1.00  0.00    -0.265 OA
HETATM   21  N12 UNL     1       0.678 -19.712  -5.713  1.00  0.00    -0.273 N 
ATOM     22  H12 UNL     1       1.512 -19.174  -5.479  1.00  0.00     0.180 HD
BRANCH  21  23
HETATM   23  C15 UNL     1      -0.257 -19.136  -6.413  1.00  0.00     0.050 C 
BRANCH  23  24
HETATM   24  N13 UNL     1      -1.157 -18.581  -7.085  1.00  0.00    -0.341 N 
ATOM     25  H13 UNL     1      -1.478 -19.035  -7.940  1.00  0.00     0.170 HD
BRANCH  24  26
HETATM   26  C16 UNL     1      -1.752 -17.342  -6.707  1.00  0.00     0.156 C 
BRANCH  26  27
HETATM   27  C17 UNL     1      -0.637 -16.351  -6.394  1.00  0.00     0.184 C 
BRANCH  27  28
HETATM   28  O2  UNL     1      -0.478 -15.479  -7.495  1.00  0.00    -0.399 OA
ATOM     29  H2  UNL     1       0.327 -14.986  -7.383  1.00  0.00     0.209 HD
ENDBRANCH  27  28
ENDBRANCH  26  27
ENDBRANCH  24  26
ENDBRANCH  23  24
ENDBRANCH  21  23
ENDBRANCH  18  19
BRANCH  13  30
HETATM   30  O3  UNL     1       2.778 -23.077  -6.183  1.00  0.00    -0.267 OA
ATOM     31  H3  UNL     1       2.604 -22.535  -6.943  1.00  0.00     0.247 HD
ENDBRANCH  13  30
ENDBRANCH   8   9
ENDBRANCH   7   8
ENDBRANCH   3   7
BRANCH   4  32
HETATM   32  C19 UNL     1       6.236 -20.615  -0.357  1.00  0.00     0.385 C 
BRANCH  32  33
HETATM   33  N15 UNL     1       6.562 -19.233  -0.348  1.00  0.00    -0.046 N 
ATOM     34 3H15 UNL     1       7.176 -19.042   0.445  1.00  0.00     0.277 HD
ATOM     35 2H15 UNL     1       7.185 -19.033  -1.130  1.00  0.00     0.277 HD
ATOM     36 1H15 UNL     1       5.799 -18.558  -0.349  1.00  0.00     0.277 HD
ENDBRANCH  32  33
BRANCH  32  37
HETATM   37  O4  UNL     1       4.859 -20.719  -0.598  1.00  0.00    -0.364 OA
ATOM     38  H4  UNL     1       4.497 -19.933  -0.991  1.00  0.00     0.212 HD
ENDBRANCH  32  37
ENDBRANCH   4  32
BRANCH   1  39
HETATM   39  C4  UNL     1       9.568 -21.993  -3.765  1.00  0.00     0.125 A 
HETATM   40  N7  UNL     1      10.312 -23.008  -4.228  1.00  0.00    -0.279 N 
HETATM   41  N6  UNL     1      11.183 -22.574  -5.118  1.00  0.00    -0.219 N 
ATOM     42  H7  UNL     1      10.218 -23.980  -3.934  1.00  0.00     0.189 HD
HETATM   43  N5  UNL     1      11.029 -21.262  -5.259  1.00  0.00    -0.163 N 
ATOM     44  H6  UNL     1      11.862 -23.149  -5.615  1.00  0.00     0.210 HD
HETATM   45  N4  UNL     1      11.703 -20.443  -6.027  1.00  0.00    -0.284 N 
HETATM   46  C20 UNL     1      10.031 -20.875  -4.429  1.00  0.00     0.179 A 
HETATM   47  C3  UNL     1      11.395 -19.111  -6.000  1.00  0.00     0.158 A 
ATOM     48  H4  UNL     1      12.443 -20.793  -6.636  1.00  0.00     0.188 HD
HETATM   49  C2  UNL     1      10.389 -18.699  -5.164  1.00  0.00     0.126 A 
HETATM   50  N17 UNL     1       9.714 -19.588  -4.386  1.00  0.00    -0.323 N 
ATOM     51  H17 UNL     1       8.966 -19.266  -3.772  1.00  0.00     0.169 HD
BRANCH  49  52
HETATM   52  N3  UNL     1      10.077 -17.451  -5.074  1.00  0.00    -0.316 N 
HETATM   53  C1  UNL     1      10.133 -16.833  -3.803  1.00  0.00     0.187 C 
HETATM   54  N1  UNL     1      11.126 -16.004  -3.585  1.00  0.00    -0.373 N 
HETATM   55  N2  UNL     1       9.138 -17.120  -2.839  1.00  0.00    -0.064 NA
ATOM     56  H12 UNL     1      11.167 -15.558  -2.669  1.00  0.00     0.158 HD
ATOM     57  H11 UNL     1      11.844 -15.796  -4.280  1.00  0.00     0.158 HD
ATOM     58  H3  UNL     1       9.796 -16.922  -5.900  1.00  0.00     0.170 HD
ENDBRANCH  49  52
ENDBRANCH   1  39
TORSDOF 15
ENDMDL
MODEL 3
REMARK VINA RESULT: -9.266683740      1.686      3.120
REMARK  15 active torsions:
REMARK  status: ('A' for Active; 'I' for Inactive)
REMARK       I    between atoms: N1_1  and  C1_4 
REMARK       I    between atoms: C1_4  and  N3_6 
REMARK    1  A    between atoms: N3_6  and  C2_8 
REMARK    2  A    between atoms: C4_17  and  C5_18 
REMARK    3  A    between atoms: N8_20  and  C7_21 
REMARK    4  A    between atoms: C7_21  and  C8_22 
REMARK    5  A    between atoms: C8_22  and  C9_23 
REMARK    6  A    between atoms: C13_31  and  C14_32 
REMARK       I    between atoms: C14_32  and  N12_34 
REMARK    7  A    between atoms: N12_34  and  C15_36 
REMARK    8  A    between atoms: C15_36  and  N13_37 
REMARK    9  A    between atoms: N13_37  and  C16_39 
REMARK   10  A    between atoms: C16_39  and  C17_40 
REMARK   11  A    between atoms: C17_40  and  O2_41 
REMARK   12  A    between atoms: N14_43  and  O3_44 
REMARK   13  A    between atoms: C18_46  and  C19_47 
REMARK   14  A    between atoms: C19_47  and  N15_48 
REMARK   15  A    between atoms: C19_47  and  O4_52 
ROOT
HETATM    1  C5  UNL     1       7.487 -20.649  -1.549  1.00  0.00     0.081 A 
HETATM    2  C6  UNL     1       7.376 -21.971  -1.889  1.00  0.00     0.124 A 
HETATM    3  N8  UNL     1       6.653 -22.614  -0.955  1.00  0.00    -0.340 N 
HETATM    4  C18 UNL     1       6.298 -21.727  -0.021  1.00  0.00     0.141 A 
HETATM    5  N16 UNL     1       6.824 -20.526  -0.411  1.00  0.00    -0.339 N 
ATOM      6  H16 UNL     1       6.718 -19.652   0.106  1.00  0.00     0.167 HD
ENDROOT
BRANCH   3   7
HETATM    7  C7  UNL     1       6.381 -24.004  -1.044  1.00  0.00     0.136 C 
BRANCH   7   8
HETATM    8  C8  UNL     1       4.950 -24.338  -0.817  1.00  0.00     0.079 C 
BRANCH   8   9
HETATM    9  C9  UNL     1       4.069 -23.495  -1.692  1.00  0.00     0.030 A 
HETATM   10  C10 UNL     1       4.133 -23.531  -3.072  1.00  0.00     0.145 A 
HETATM   11  N9  UNL     1       3.202 -22.716  -3.560  1.00  0.00    -0.221 N 
HETATM   12  C11 UNL     1       2.572 -22.181  -2.529  1.00  0.00     0.156 A 
HETATM   13  N14 UNL     1       2.675 -22.269  -4.720  1.00  0.00    -0.148 N 
HETATM   14  N10 UNL     1       3.092 -22.647  -1.376  1.00  0.00    -0.341 N 
HETATM   15  C12 UNL     1       1.597 -21.353  -3.072  1.00  0.00     0.128 A 
ATOM     16  H10 UNL     1       2.791 -22.396  -0.433  1.00  0.00     0.167 HD
HETATM   17  N11 UNL     1       0.691 -20.583  -2.323  1.00  0.00    -0.096 NA
HETATM   18  C13 UNL     1       1.660 -21.410  -4.472  1.00  0.00     0.178 A 
BRANCH  18  19
HETATM   19  C14 UNL     1       0.804 -20.716  -5.394  1.00  0.00     0.286 C 
HETATM   20  O1  UNL     1       0.267 -21.334  -6.338  1.00  0.00    -0.265 OA
HETATM   21  N12 UNL     1       0.483 -19.299  -5.340  1.00  0.00    -0.273 N 
ATOM     22  H12 UNL     1       0.888 -18.737  -4.591  1.00  0.00     0.180 HD
BRANCH  21  23
HETATM   23  C15 UNL     1      -0.296 -18.714  -6.204  1.00  0.00     0.050 C 
BRANCH  23  24
HETATM   24  N13 UNL     1      -1.046 -18.150  -7.036  1.00  0.00    -0.341 N 
ATOM     25  H13 UNL     1      -1.280 -18.646  -7.895  1.00  0.00     0.170 HD
BRANCH  24  26
HETATM   26  C16 UNL     1      -1.583 -16.846  -6.832  1.00  0.00     0.156 C 
BRANCH  26  27
HETATM   27  C17 UNL     1      -0.820 -16.186  -5.690  1.00  0.00     0.184 C 
BRANCH  27  28
HETATM   28  O2  UNL     1       0.153 -15.316  -6.233  1.00  0.00    -0.399 OA
ATOM     29  H2  UNL     1       0.669 -15.792  -6.873  1.00  0.00     0.209 HD
ENDBRANCH  27  28
ENDBRANCH  26  27
ENDBRANCH  24  26
ENDBRANCH  23  24
ENDBRANCH  21  23
ENDBRANCH  18  19
BRANCH  13  30
HETATM   30  O3  UNL     1       3.150 -22.663  -5.956  1.00  0.00    -0.267 OA
ATOM     31  H3  UNL     1       2.595 -23.059  -6.617  1.00  0.00     0.247 HD
ENDBRANCH  13  30
ENDBRANCH   8   9
ENDBRANCH   7   8
ENDBRANCH   3   7
BRANCH   4  32
HETATM   32  C19 UNL     1       5.531 -21.889   1.207  1.00  0.00     0.385 C 
BRANCH  32  33
HETATM   33  N15 UNL     1       5.992 -21.233   2.379  1.00  0.00    -0.046 N 
ATOM     34 3H15 UNL     1       5.683 -21.759   3.197  1.00  0.00     0.277 HD
ATOM     35 2H15 UNL     1       7.004 -21.344   2.446  1.00  0.00     0.277 HD
ATOM     36 1H15 UNL     1       5.755 -20.250   2.506  1.00  0.00     0.277 HD
ENDBRANCH  32  33
BRANCH  32  37
HETATM   37  O4  UNL     1       4.179 -21.556   1.044  1.00  0.00    -0.364 OA
ATOM     38  H4  UNL     1       3.861 -20.978   1.728  1.00  0.00     0.212 HD
ENDBRANCH  32  37
ENDBRANCH   4  32
BRANCH   1  39
HETATM   39  C4  UNL     1       8.225 -19.622  -2.288  1.00  0.00     0.125 A 
HETATM   40  N7  UNL     1       8.199 -18.295  -2.093  1.00  0.00    -0.279 N 
HETATM   41  N6  UNL     1       8.966 -17.684  -2.973  1.00  0.00    -0.219 N 
ATOM     42  H7  UNL     1       7.660 -17.825  -1.366  1.00  0.00     0.189 HD
HETATM   43  N5  UNL     1       9.515 -18.597  -3.766  1.00  0.00    -0.163 N 
ATOM     44  H6  UNL     1       9.114 -16.676  -3.034  1.00  0.00     0.210 HD
HETATM   45  N4  UNL     1      10.326 -18.411  -4.778  1.00  0.00    -0.284 N 
HETATM   46  C20 UNL     1       9.071 -19.810  -3.362  1.00  0.00     0.179 A 
HETATM   47  C3  UNL     1      10.757 -19.501  -5.485  1.00  0.00     0.158 A 
ATOM     48  H4  UNL     1      10.630 -17.472  -5.034  1.00  0.00     0.188 HD
HETATM   49  C2  UNL     1      10.316 -20.739  -5.092  1.00  0.00     0.126 A 
HETATM   50  N17 UNL     1       9.477 -20.881  -4.031  1.00  0.00    -0.323 N 
ATOM     51  H17 UNL     1       9.161 -21.809  -3.750  1.00  0.00     0.169 HD
BRANCH  49  52
HETATM   52  N3  UNL     1      10.665 -21.797  -5.739  1.00  0.00    -0.316 N 
HETATM   53  C1  UNL     1       9.681 -22.774  -6.015  1.00  0.00     0.187 C 
HETATM   54  N1  UNL     1       9.254 -22.861  -7.253  1.00  0.00    -0.373 N 
HETATM   55  N2  UNL     1       9.206 -23.605  -4.972  1.00  0.00    -0.064 NA
ATOM     56  H12 UNL     1       8.544 -23.565  -7.451  1.00  0.00     0.158 HD
ATOM     57  H11 UNL     1       9.596 -22.262  -8.005  1.00  0.00     0.158 HD
ATOM     58  H3  UNL     1      11.630 -21.928  -6.046  1.00  0.00     0.170 HD
ENDBRANCH  49  52
ENDBRANCH   1  39
TORSDOF 15
ENDMDL
MODEL 4
REMARK VINA RESULT: -9.228560254      2.003      3.417
REMARK  15 active torsions:
REMARK  status: ('A' for Active; 'I' for Inactive)
REMARK       I    between atoms: N1_1  and  C1_4 
REMARK       I    between atoms: C1_4  and  N3_6 
REMARK    1  A    between atoms: N3_6  and  C2_8 
REMARK    2  A    between atoms: C4_17  and  C5_18 
REMARK    3  A    between atoms: N8_20  and  C7_21 
REMARK    4  A    between atoms: C7_21  and  C8_22 
REMARK    5  A    between atoms: C8_22  and  C9_23 
REMARK    6  A    between atoms: C13_31  and  C14_32 
REMARK       I    between atoms: C14_32  and  N12_34 
REMARK    7  A    between atoms: N12_34  and  C15_36 
REMARK    8  A    between atoms: C15_36  and  N13_37 
REMARK    9  A    between atoms: N13_37  and  C16_39 
REMARK   10  A    between atoms: C16_39  and  C17_40 
REMARK   11  A    between atoms: C17_40  and  O2_41 
REMARK   12  A    between atoms: N14_43  and  O3_44 
REMARK   13  A    between atoms: C18_46  and  C19_47 
REMARK   14  A    between atoms: C19_47  and  N15_48 
REMARK   15  A    between atoms: C19_47  and  O4_52 
ROOT
HETATM    1  C5  UNL     1       8.066 -21.938  -3.034  1.00  0.00     0.081 A 
HETATM    2  C6  UNL     1       7.709 -23.131  -2.465  1.00  0.00     0.124 A 
HETATM    3  N8  UNL     1       7.904 -24.125  -3.349  1.00  0.00    -0.340 N 
HETATM    4  C18 UNL     1       8.381 -23.591  -4.476  1.00  0.00     0.141 A 
HETATM    5  N16 UNL     1       8.472 -22.243  -4.256  1.00  0.00    -0.339 N 
ATOM      6  H16 UNL     1       8.808 -21.565  -4.941  1.00  0.00     0.167 HD
ENDROOT
BRANCH   3   7
HETATM    7  C7  UNL     1       7.611 -25.477  -3.033  1.00  0.00     0.136 C 
BRANCH   7   8
HETATM    8  C8  UNL     1       6.455 -25.627  -2.110  1.00  0.00     0.079 C 
BRANCH   8   9
HETATM    9  C9  UNL     1       5.331 -24.723  -2.525  1.00  0.00     0.030 A 
HETATM   10  C10 UNL     1       4.740 -23.821  -1.661  1.00  0.00     0.145 A 
HETATM   11  N9  UNL     1       3.816 -23.136  -2.331  1.00  0.00    -0.221 N 
HETATM   12  C11 UNL     1       3.820 -23.587  -3.572  1.00  0.00     0.156 A 
HETATM   13  N14 UNL     1       2.909 -22.147  -2.189  1.00  0.00    -0.148 N 
HETATM   14  N10 UNL     1       4.742 -24.561  -3.710  1.00  0.00    -0.341 N 
HETATM   15  C12 UNL     1       2.863 -22.840  -4.247  1.00  0.00     0.128 A 
ATOM     16  H10 UNL     1       4.951 -25.079  -4.563  1.00  0.00     0.167 HD
HETATM   17  N11 UNL     1       2.537 -22.993  -5.606  1.00  0.00    -0.096 NA
HETATM   18  C13 UNL     1       2.281 -21.918  -3.365  1.00  0.00     0.178 A 
BRANCH  18  19
HETATM   19  C14 UNL     1       1.269 -20.950  -3.687  1.00  0.00     0.286 C 
HETATM   20  O1  UNL     1       0.535 -20.486  -2.788  1.00  0.00    -0.265 OA
HETATM   21  N12 UNL     1       0.995 -20.431  -5.018  1.00  0.00    -0.273 N 
ATOM     22  H12 UNL     1       1.560 -20.768  -5.797  1.00  0.00     0.180 HD
BRANCH  21  23
HETATM   23  C15 UNL     1       0.061 -19.557  -5.261  1.00  0.00     0.050 C 
BRANCH  23  24
HETATM   24  N13 UNL     1      -0.838 -18.715  -5.494  1.00  0.00    -0.341 N 
ATOM     25  H13 UNL     1      -1.579 -18.589  -4.805  1.00  0.00     0.170 HD
BRANCH  24  26
HETATM   26  C16 UNL     1      -0.869 -17.926  -6.680  1.00  0.00     0.156 C 
BRANCH  26  27
HETATM   27  C17 UNL     1      -0.871 -16.455  -6.278  1.00  0.00     0.184 C 
BRANCH  27  28
HETATM   28  O2  UNL     1      -0.714 -15.663  -7.438  1.00  0.00    -0.399 OA
ATOM     29  H2  UNL     1      -0.376 -14.812  -7.186  1.00  0.00     0.209 HD
ENDBRANCH  27  28
ENDBRANCH  26  27
ENDBRANCH  24  26
ENDBRANCH  23  24
ENDBRANCH  21  23
ENDBRANCH  18  19
BRANCH  13  30
HETATM   30  O3  UNL     1       2.691 -21.500  -0.987  1.00  0.00    -0.267 OA
ATOM     31  H3  UNL     1       2.104 -20.759  -0.903  1.00  0.00     0.247 HD
ENDBRANCH  13  30
ENDBRANCH   8   9
ENDBRANCH   7   8
ENDBRANCH   3   7
BRANCH   4  32
HETATM   32  C19 UNL     1       8.748 -24.207  -5.745  1.00  0.00     0.385 C 
BRANCH  32  33
HETATM   33  N15 UNL     1       8.389 -23.539  -6.945  1.00  0.00    -0.046 N 
ATOM     34 3H15 UNL     1       7.389 -23.658  -7.106  1.00  0.00     0.277 HD
ATOM     35 2H15 UNL     1       8.445 -22.532  -6.795  1.00  0.00     0.277 HD
ATOM     36 1H15 UNL     1       8.894 -23.776  -7.799  1.00  0.00     0.277 HD
ENDBRANCH  32  33
BRANCH  32  37
HETATM   37  O4  UNL     1      10.116 -24.504  -5.823  1.00  0.00    -0.364 OA
ATOM     38  H4  UNL     1      10.321 -25.088  -6.544  1.00  0.00     0.212 HD
ENDBRANCH  32  37
ENDBRANCH   4  32
BRANCH   1  39
HETATM   39  C4  UNL     1       7.970 -20.615  -2.412  1.00  0.00     0.125 A 
HETATM   40  N7  UNL     1       7.240 -20.265  -1.342  1.00  0.00    -0.279 N 
HETATM   41  N6  UNL     1       7.376 -18.978  -1.092  1.00  0.00    -0.219 N 
ATOM     42  H7  UNL     1       6.660 -20.904  -0.799  1.00  0.00     0.189 HD
HETATM   43  N5  UNL     1       8.200 -18.454  -1.993  1.00  0.00    -0.163 N 
ATOM     44  H6  UNL     1       6.924 -18.469  -0.333  1.00  0.00     0.210 HD
HETATM   45  N4  UNL     1       8.586 -17.208  -2.112  1.00  0.00    -0.284 N 
HETATM   46  C20 UNL     1       8.584 -19.450  -2.826  1.00  0.00     0.179 A 
HETATM   47  C3  UNL     1       9.427 -16.875  -3.138  1.00  0.00     0.158 A 
ATOM     48  H4  UNL     1       8.266 -16.500  -1.451  1.00  0.00     0.188 HD
HETATM   49  C2  UNL     1       9.825 -17.870  -3.994  1.00  0.00     0.126 A 
HETATM   50  N17 UNL     1       9.400 -19.151  -3.827  1.00  0.00    -0.323 N 
ATOM     51  H17 UNL     1       9.708 -19.880  -4.471  1.00  0.00     0.169 HD
BRANCH  49  52
HETATM   52  N3  UNL     1      10.592 -17.608  -4.996  1.00  0.00    -0.316 N 
HETATM   53  C1  UNL     1      10.637 -18.529  -6.069  1.00  0.00     0.187 C 
HETATM   54  N1  UNL     1      10.034 -18.182  -7.181  1.00  0.00    -0.373 N 
HETATM   55  N2  UNL     1      11.317 -19.759  -5.908  1.00  0.00    -0.064 NA
ATOM     56  H12 UNL     1      10.067 -18.846  -7.955  1.00  0.00     0.158 HD
ATOM     57  H11 UNL     1       9.544 -17.295  -7.298  1.00  0.00     0.158 HD
ATOM     58  H3  UNL     1      11.154 -16.757  -5.016  1.00  0.00     0.170 HD
ENDBRANCH  49  52
ENDBRANCH   1  39
TORSDOF 15
ENDMDL
MODEL 5
REMARK VINA RESULT: -9.200397544      1.559      3.015
REMARK  15 active torsions:
REMARK  status: ('A' for Active; 'I' for Inactive)
REMARK       I    between atoms: N1_1  and  C1_4 
REMARK       I    between atoms: C1_4  and  N3_6 
REMARK    1  A    between atoms: N3_6  and  C2_8 
REMARK    2  A    between atoms: C4_17  and  C5_18 
REMARK    3  A    between atoms: N8_20  and  C7_21 
REMARK    4  A    between atoms: C7_21  and  C8_22 
REMARK    5  A    between atoms: C8_22  and  C9_23 
REMARK    6  A    between atoms: C13_31  and  C14_32 
REMARK       I    between atoms: C14_32  and  N12_34 
REMARK    7  A    between atoms: N12_34  and  C15_36 
REMARK    8  A    between atoms: C15_36  and  N13_37 
REMARK    9  A    between atoms: N13_37  and  C16_39 
REMARK   10  A    between atoms: C16_39  and  C17_40 
REMARK   11  A    between atoms: C17_40  and  O2_41 
REMARK   12  A    between atoms: N14_43  and  O3_44 
REMARK   13  A    between atoms: C18_46  and  C19_47 
REMARK   14  A    between atoms: C19_47  and  N15_48 
REMARK   15  A    between atoms: C19_47  and  O4_52 
ROOT
HETATM    1  C5  UNL     1       7.909 -21.223  -2.029  1.00  0.00     0.081 A 
HETATM    2  C6  UNL     1       7.097 -21.789  -1.083  1.00  0.00     0.124 A 
HETATM    3  N8  UNL     1       7.080 -23.123  -1.248  1.00  0.00    -0.340 N 
HETATM    4  C18 UNL     1       7.868 -23.423  -2.283  1.00  0.00     0.141 A 
HETATM    5  N16 UNL     1       8.367 -22.236  -2.746  1.00  0.00    -0.339 N 
ATOM      6  H16 UNL     1       9.005 -22.144  -3.536  1.00  0.00     0.167 HD
ENDROOT
BRANCH   3   7
HETATM    7  C7  UNL     1       6.312 -23.971  -0.409  1.00  0.00     0.136 C 
BRANCH   7   8
HETATM    8  C8  UNL     1       5.396 -24.868  -1.162  1.00  0.00     0.079 C 
BRANCH   8   9
HETATM    9  C9  UNL     1       4.394 -24.064  -1.936  1.00  0.00     0.030 A 
HETATM   10  C10 UNL     1       3.449 -23.260  -1.327  1.00  0.00     0.145 A 
HETATM   11  N9  UNL     1       2.744 -22.644  -2.272  1.00  0.00    -0.221 N 
HETATM   12  C11 UNL     1       3.221 -23.043  -3.438  1.00  0.00     0.156 A 
HETATM   13  N14 UNL     1       1.743 -21.756  -2.449  1.00  0.00    -0.148 N 
HETATM   14  N10 UNL     1       4.233 -23.915  -3.251  1.00  0.00    -0.341 N 
HETATM   15  C12 UNL     1       2.480 -22.368  -4.399  1.00  0.00     0.128 A 
ATOM     16  H10 UNL     1       4.776 -24.375  -3.982  1.00  0.00     0.167 HD
HETATM   17  N11 UNL     1       2.657 -22.499  -5.787  1.00  0.00    -0.096 NA
HETATM   18  C13 UNL     1       1.536 -21.544  -3.769  1.00  0.00     0.178 A 
BRANCH  18  19
HETATM   19  C14 UNL     1       0.599 -20.668  -4.418  1.00  0.00     0.286 C 
HETATM   20  O1  UNL     1      -0.076 -19.860  -3.745  1.00  0.00    -0.265 OA
HETATM   21  N12 UNL     1       0.340 -20.626  -5.849  1.00  0.00    -0.273 N 
ATOM     22  H12 UNL     1       0.859 -21.259  -6.456  1.00  0.00     0.180 HD
BRANCH  21  23
HETATM   23  C15 UNL     1      -0.525 -19.817  -6.390  1.00  0.00     0.050 C 
BRANCH  23  24
HETATM   24  N13 UNL     1      -1.357 -19.037  -6.910  1.00  0.00    -0.341 N 
ATOM     25  H13 UNL     1      -1.904 -19.367  -7.705  1.00  0.00     0.170 HD
BRANCH  24  26
HETATM   26  C16 UNL     1      -1.572 -17.709  -6.439  1.00  0.00     0.156 C 
BRANCH  26  27
HETATM   27  C17 UNL     1      -0.356 -16.867  -6.810  1.00  0.00     0.184 C 
BRANCH  27  28
HETATM   28  O2  UNL     1      -0.787 -15.744  -7.553  1.00  0.00    -0.399 OA
ATOM     29  H2  UNL     1      -0.879 -15.995  -8.464  1.00  0.00     0.209 HD
ENDBRANCH  27  28
ENDBRANCH  26  27
ENDBRANCH  24  26
ENDBRANCH  23  24
ENDBRANCH  21  23
ENDBRANCH  18  19
BRANCH  13  30
HETATM   30  O3  UNL     1       1.060 -21.182  -1.395  1.00  0.00    -0.267 OA
ATOM     31  H3  UNL     1       0.919 -20.245  -1.324  1.00  0.00     0.247 HD
ENDBRANCH  13  30
ENDBRANCH   8   9
ENDBRANCH   7   8
ENDBRANCH   3   7
BRANCH   4  32
HETATM   32  C19 UNL     1       8.193 -24.705  -2.896  1.00  0.00     0.385 C 
BRANCH  32  33
HETATM   33  N15 UNL     1       7.589 -25.027  -4.140  1.00  0.00    -0.046 N 
ATOM     34 3H15 UNL     1       7.102 -24.205  -4.497  1.00  0.00     0.277 HD
ATOM     35 2H15 UNL     1       8.318 -25.143  -4.844  1.00  0.00     0.277 HD
ATOM     36 1H15 UNL     1       6.960 -25.829  -4.178  1.00  0.00     0.277 HD
ENDBRANCH  32  33
BRANCH  32  37
HETATM   37  O4  UNL     1       9.573 -24.900  -3.037  1.00  0.00    -0.364 OA
ATOM     38  H4  UNL     1       9.788 -25.767  -3.361  1.00  0.00     0.212 HD
ENDBRANCH  32  37
ENDBRANCH   4  32
BRANCH   1  39
HETATM   39  C4  UNL     1       8.166 -19.792  -2.209  1.00  0.00     0.125 A 
HETATM   40  N7  UNL     1       7.638 -18.771  -1.517  1.00  0.00    -0.279 N 
HETATM   41  N6  UNL     1       8.077 -17.620  -1.985  1.00  0.00    -0.219 N 
ATOM     42  H7  UNL     1       6.988 -18.872  -0.738  1.00  0.00     0.189 HD
HETATM   43  N5  UNL     1       8.904 -17.859  -2.996  1.00  0.00    -0.163 N 
ATOM     44  H6  UNL     1       7.823 -16.698  -1.630  1.00  0.00     0.210 HD
HETATM   45  N4  UNL     1       9.541 -16.994  -3.746  1.00  0.00    -0.284 N 
HETATM   46  C20 UNL     1       8.978 -19.201  -3.157  1.00  0.00     0.179 A 
HETATM   47  C3  UNL     1      10.331 -17.459  -4.762  1.00  0.00     0.158 A 
ATOM     48  H4  UNL     1       9.450 -15.993  -3.576  1.00  0.00     0.188 HD
HETATM   49  C2  UNL     1      10.416 -18.816  -4.942  1.00  0.00     0.126 A 
HETATM   50  N17 UNL     1       9.738 -19.675  -4.135  1.00  0.00    -0.323 N 
ATOM     51  H17 UNL     1       9.815 -20.682  -4.280  1.00  0.00     0.169 HD
BRANCH  49  52
HETATM   52  N3  UNL     1      11.121 -19.309  -5.902  1.00  0.00    -0.316 N 
HETATM   53  C1  UNL     1      11.849 -20.498  -5.661  1.00  0.00     0.187 C 
HETATM   54  N1  UNL     1      11.391 -21.600  -6.206  1.00  0.00    -0.373 N 
HETATM   55  N2  UNL     1      13.018 -20.454  -4.865  1.00  0.00    -0.064 NA
ATOM     56  H12 UNL     1      11.916 -22.457  -6.032  1.00  0.00     0.158 HD
ATOM     57  H11 UNL     1      10.549 -21.632  -6.780  1.00  0.00     0.158 HD
ATOM     58  H3  UNL     1      11.153 -18.854  -6.814  1.00  0.00     0.170 HD
ENDBRANCH  49  52
ENDBRANCH   1  39
TORSDOF 15
ENDMDL
