MODEL 1
REMARK VINA RESULT: -8.126880532      0.000      0.000
REMARK  5 active torsions:
REMARK  status: ('A' for Active; 'I' for Inactive)
REMARK    1  A    between atoms: C6_6  and  C7_7 
REMARK    2  A    between atoms: C7_7  and  C8_8 
REMARK    3  A    between atoms: C8_8  and  C9_9 
REMARK    4  A    between atoms: C19_22  and  C20_23 
REMARK    5  A    between atoms: C21_24  and  C22_25 
ROOT
HETATM    1  C1  UNL     1      64.687  11.353  33.082  1.00  0.00     0.020 C 
HETATM    2  C2  UNL     1      63.437  12.045  33.577  1.00  0.00    -0.016 C 
HETATM    3  C3  UNL     1      62.516  12.373  32.504  1.00  0.00     0.014 C 
HETATM    4  C4  UNL     1      61.040  12.284  32.871  1.00  0.00     0.002 C 
HETATM    5  C5  UNL     1      60.604  10.990  33.392  1.00  0.00     0.017 C 
HETATM    6  C6  UNL     1      61.812  10.247  34.127  1.00  0.00     0.061 C 
HETATM    7  C15 UNL     1      62.696  11.239  34.667  1.00  0.00     0.013 C 
HETATM    8  C16 UNL     1      63.852  10.930  35.523  1.00  0.00     0.011 C 
HETATM    9  C17 UNL     1      64.499  12.327  35.642  1.00  0.00     0.035 C 
HETATM   10  C18 UNL     1      63.863  13.126  34.501  1.00  0.00    -0.071 C 
HETATM   11  C19 UNL     1      63.754  14.424  34.512  1.00  0.00     0.003 C 
ENDROOT
BRANCH   6  12
HETATM   12  C7  UNL     1      61.664   9.031  34.118  1.00  0.00    -0.150 C 
BRANCH  12  13
HETATM   13  C8  UNL     1      61.484   7.588  34.114  1.00  0.00     0.058 C 
BRANCH  13  14
HETATM   14  C9  UNL     1      62.262   7.039  35.134  1.00  0.00    -0.053 C 
HETATM   15  C10 UNL     1      62.956   6.524  36.076  1.00  0.00     0.000 C 
HETATM   16  C11 UNL     1      63.559   7.528  37.142  1.00  0.00     0.150 C 
HETATM   17  N1  UNL     1      62.448   8.321  37.637  1.00  0.00    -0.358 N 
HETATM   18  C12 UNL     1      61.123   7.874  37.637  1.00  0.00     0.218 C 
ATOM     19  H1  UNL     1      62.644   9.252  38.005  1.00  0.00     0.162 HD
HETATM   20  O1  UNL     1      60.244   8.635  38.079  1.00  0.00    -0.274 OA
HETATM   21  C13 UNL     1      60.652   6.557  37.149  1.00  0.00     0.107 C 
HETATM   22  C14 UNL     1      60.549   6.503  35.705  1.00  0.00     0.048 C 
ENDBRANCH  13  14
ENDBRANCH  12  13
ENDBRANCH   6  12
BRANCH  11  23
HETATM   23  C20 UNL     1      64.309  15.158  35.616  1.00  0.00    -0.003 C 
HETATM   24  C21 UNL     1      63.581  15.896  36.442  1.00  0.00    -0.022 C 
BRANCH  24  25
HETATM   25  C22 UNL     1      64.215  16.626  37.585  1.00  0.00     0.008 A 
HETATM   26  C23 UNL     1      64.511  18.079  37.280  1.00  0.00     0.009 A 
HETATM   27  C24 UNL     1      65.631  17.125  37.460  1.00  0.00     0.009 A 
ENDBRANCH  24  25
ENDBRANCH  11  23
TORSDOF 5
ENDMDL
MODEL 2
REMARK VINA RESULT: -8.004777036      4.194      6.882
REMARK  5 active torsions:
REMARK  status: ('A' for Active; 'I' for Inactive)
REMARK    1  A    between atoms: C6_6  and  C7_7 
REMARK    2  A    between atoms: C7_7  and  C8_8 
REMARK    3  A    between atoms: C8_8  and  C9_9 
REMARK    4  A    between atoms: C19_22  and  C20_23 
REMARK    5  A    between atoms: C21_24  and  C22_25 
ROOT
HETATM    1  C1  UNL     1      67.576  12.250  35.045  1.00  0.00     0.020 C 
HETATM    2  C2  UNL     1      67.557  12.908  36.406  1.00  0.00    -0.016 C 
HETATM    3  C3  UNL     1      67.975  14.296  36.364  1.00  0.00     0.014 C 
HETATM    4  C4  UNL     1      67.269  15.214  37.355  1.00  0.00     0.002 C 
HETATM    5  C5  UNL     1      65.810  15.231  37.258  1.00  0.00     0.017 C 
HETATM    6  C6  UNL     1      65.270  13.833  36.706  1.00  0.00     0.061 C 
HETATM    7  C15 UNL     1      66.183  12.801  37.106  1.00  0.00     0.013 C 
HETATM    8  C16 UNL     1      65.946  11.366  36.888  1.00  0.00     0.011 C 
HETATM    9  C17 UNL     1      67.300  10.782  37.347  1.00  0.00     0.035 C 
HETATM   10  C18 UNL     1      68.240  11.990  37.352  1.00  0.00    -0.071 C 
HETATM   11  C19 UNL     1      69.307  12.062  38.096  1.00  0.00     0.003 C 
ENDROOT
BRANCH   6  12
HETATM   12  C7  UNL     1      64.188  13.959  36.145  1.00  0.00    -0.150 C 
BRANCH  12  13
HETATM   13  C8  UNL     1      62.906  14.103  35.474  1.00  0.00     0.058 C 
BRANCH  13  14
HETATM   14  C9  UNL     1      62.972  13.452  34.242  1.00  0.00    -0.053 C 
HETATM   15  C10 UNL     1      63.011  12.847  33.116  1.00  0.00     0.000 C 
HETATM   16  C11 UNL     1      64.105  11.713  32.958  1.00  0.00     0.150 C 
HETATM   17  N1  UNL     1      63.921  10.803  34.073  1.00  0.00    -0.358 N 
HETATM   18  C12 UNL     1      62.701  10.634  34.735  1.00  0.00     0.218 C 
ATOM     19  H1  UNL     1      64.723  10.258  34.391  1.00  0.00     0.162 HD
HETATM   20  O1  UNL     1      62.651   9.831  35.685  1.00  0.00    -0.274 OA
HETATM   21  C13 UNL     1      61.435  11.332  34.413  1.00  0.00     0.107 C 
HETATM   22  C14 UNL     1      61.397  12.684  34.933  1.00  0.00     0.048 C 
ENDBRANCH  13  14
ENDBRANCH  12  13
ENDBRANCH   6  12
BRANCH  11  23
HETATM   23  C20 UNL     1      69.663  10.933  38.912  1.00  0.00    -0.003 C 
HETATM   24  C21 UNL     1      70.542  10.013  38.542  1.00  0.00    -0.022 C 
BRANCH  24  25
HETATM   25  C22 UNL     1      70.883   8.867  39.443  1.00  0.00     0.008 A 
HETATM   26  C23 UNL     1      72.319   8.405  39.310  1.00  0.00     0.009 A 
HETATM   27  C24 UNL     1      71.219   7.525  38.848  1.00  0.00     0.009 A 
ENDBRANCH  24  25
ENDBRANCH  11  23
TORSDOF 5
ENDMDL
MODEL 3
REMARK VINA RESULT: -7.601951237      2.593      7.369
REMARK  5 active torsions:
REMARK  status: ('A' for Active; 'I' for Inactive)
REMARK    1  A    between atoms: C6_6  and  C7_7 
REMARK    2  A    between atoms: C7_7  and  C8_8 
REMARK    3  A    between atoms: C8_8  and  C9_9 
REMARK    4  A    between atoms: C19_22  and  C20_23 
REMARK    5  A    between atoms: C21_24  and  C22_25 
ROOT
HETATM    1  C1  UNL     1      61.612   8.116  34.756  1.00  0.00     0.020 C 
HETATM    2  C2  UNL     1      62.187   7.673  36.082  1.00  0.00    -0.016 C 
HETATM    3  C3  UNL     1      63.064   6.524  35.957  1.00  0.00     0.014 C 
HETATM    4  C4  UNL     1      64.243   6.504  36.921  1.00  0.00     0.002 C 
HETATM    5  C5  UNL     1      65.111   7.679  36.868  1.00  0.00     0.017 C 
HETATM    6  C6  UNL     1      64.285   8.965  36.404  1.00  0.00     0.061 C 
HETATM    7  C15 UNL     1      62.923   8.808  36.828  1.00  0.00     0.013 C 
HETATM    8  C16 UNL     1      61.896   9.852  36.690  1.00  0.00     0.011 C 
HETATM    9  C17 UNL     1      60.639   9.075  37.137  1.00  0.00     0.035 C 
HETATM   10  C18 UNL     1      61.065   7.606  37.053  1.00  0.00    -0.071 C 
HETATM   11  C19 UNL     1      60.514   6.661  37.759  1.00  0.00     0.003 C 
ENDROOT
BRANCH   6  12
HETATM   12  C7  UNL     1      65.010   9.796  35.870  1.00  0.00    -0.150 C 
BRANCH  12  13
HETATM   13  C8  UNL     1      65.864  10.787  35.236  1.00  0.00     0.058 C 
BRANCH  13  14
HETATM   14  C9  UNL     1      65.217  11.269  34.097  1.00  0.00    -0.053 C 
HETATM   15  C10 UNL     1      64.632  11.733  33.059  1.00  0.00     0.000 C 
HETATM   16  C11 UNL     1      63.053  11.621  33.026  1.00  0.00     0.150 C 
HETATM   17  N1  UNL     1      62.571  12.227  34.253  1.00  0.00    -0.358 N 
HETATM   18  C12 UNL     1      63.276  13.207  34.957  1.00  0.00     0.218 C 
ATOM     19  H1  UNL     1      61.669  11.922  34.621  1.00  0.00     0.162 HD
HETATM   20  O1  UNL     1      62.776  13.657  36.004  1.00  0.00    -0.274 OA
HETATM   21  C13 UNL     1      64.591  13.773  34.575  1.00  0.00     0.107 C 
HETATM   22  C14 UNL     1      65.695  12.897  34.916  1.00  0.00     0.048 C 
ENDBRANCH  13  14
ENDBRANCH  12  13
ENDBRANCH   6  12
BRANCH  11  23
HETATM   23  C20 UNL     1      59.410   6.990  38.620  1.00  0.00    -0.003 C 
HETATM   24  C21 UNL     1      59.552   7.591  39.792  1.00  0.00    -0.022 C 
BRANCH  24  25
HETATM   25  C22 UNL     1      58.361   7.923  40.637  1.00  0.00     0.008 A 
HETATM   26  C23 UNL     1      57.057   7.405  40.068  1.00  0.00     0.009 A 
HETATM   27  C24 UNL     1      57.311   8.866  40.111  1.00  0.00     0.009 A 
ENDBRANCH  24  25
ENDBRANCH  11  23
TORSDOF 5
ENDMDL
MODEL 4
REMARK VINA RESULT: -7.535620466      2.851      7.465
REMARK  5 active torsions:
REMARK  status: ('A' for Active; 'I' for Inactive)
REMARK    1  A    between atoms: C6_6  and  C7_7 
REMARK    2  A    between atoms: C7_7  and  C8_8 
REMARK    3  A    between atoms: C8_8  and  C9_9 
REMARK    4  A    between atoms: C19_22  and  C20_23 
REMARK    5  A    between atoms: C21_24  and  C22_25 
ROOT
HETATM    1  C1  UNL     1      61.604   8.061  34.721  1.00  0.00     0.020 C 
HETATM    2  C2  UNL     1      62.143   7.610  36.060  1.00  0.00    -0.016 C 
HETATM    3  C3  UNL     1      62.879   6.363  35.976  1.00  0.00     0.014 C 
HETATM    4  C4  UNL     1      64.062   6.246  36.930  1.00  0.00     0.002 C 
HETATM    5  C5  UNL     1      65.059   7.310  36.818  1.00  0.00     0.017 C 
HETATM    6  C6  UNL     1      64.381   8.662  36.306  1.00  0.00     0.061 C 
HETATM    7  C15 UNL     1      63.016   8.683  36.749  1.00  0.00     0.013 C 
HETATM    8  C16 UNL     1      62.114   9.832  36.576  1.00  0.00     0.011 C 
HETATM    9  C17 UNL     1      60.783   9.225  37.067  1.00  0.00     0.035 C 
HETATM   10  C18 UNL     1      61.034   7.715  37.042  1.00  0.00    -0.071 C 
HETATM   11  C19 UNL     1      60.388   6.870  37.794  1.00  0.00     0.003 C 
ENDROOT
BRANCH   6  12
HETATM   12  C7  UNL     1      65.189   9.380  35.730  1.00  0.00    -0.150 C 
BRANCH  12  13
HETATM   13  C8  UNL     1      66.153  10.231  35.052  1.00  0.00     0.058 C 
BRANCH  13  14
HETATM   14  C9  UNL     1      65.465  11.259  34.407  1.00  0.00    -0.053 C 
HETATM   15  C10 UNL     1      64.853  12.214  33.816  1.00  0.00     0.000 C 
HETATM   16  C11 UNL     1      63.624  12.852  34.585  1.00  0.00     0.150 C 
HETATM   17  N1  UNL     1      64.111  13.231  35.899  1.00  0.00    -0.358 N 
HETATM   18  C12 UNL     1      65.450  13.531  36.166  1.00  0.00     0.218 C 
ATOM     19  H1  UNL     1      63.441  13.280  36.667  1.00  0.00     0.162 HD
HETATM   20  O1  UNL     1      65.764  13.839  37.330  1.00  0.00    -0.274 OA
HETATM   21  C13 UNL     1      66.556  13.516  35.181  1.00  0.00     0.107 C 
HETATM   22  C14 UNL     1      67.033  12.177  34.900  1.00  0.00     0.048 C 
ENDBRANCH  13  14
ENDBRANCH  12  13
ENDBRANCH   6  12
BRANCH  11  23
HETATM   23  C20 UNL     1      59.342   7.361  38.650  1.00  0.00    -0.003 C 
HETATM   24  C21 UNL     1      59.557   7.833  39.869  1.00  0.00    -0.022 C 
BRANCH  24  25
HETATM   25  C22 UNL     1      58.427   8.345  40.707  1.00  0.00     0.008 A 
HETATM   26  C23 UNL     1      57.098   7.692  40.389  1.00  0.00     0.009 A 
HETATM   27  C24 UNL     1      57.310   9.123  40.061  1.00  0.00     0.009 A 
ENDBRANCH  24  25
ENDBRANCH  11  23
TORSDOF 5
ENDMDL
MODEL 5
REMARK VINA RESULT: -7.221937800      3.900      6.061
REMARK  5 active torsions:
REMARK  status: ('A' for Active; 'I' for Inactive)
REMARK    1  A    between atoms: C6_6  and  C7_7 
REMARK    2  A    between atoms: C7_7  and  C8_8 
REMARK    3  A    between atoms: C8_8  and  C9_9 
REMARK    4  A    between atoms: C19_22  and  C20_23 
REMARK    5  A    between atoms: C21_24  and  C22_25 
ROOT
HETATM    1  C1  UNL     1      67.772  12.764  34.398  1.00  0.00     0.020 C 
HETATM    2  C2  UNL     1      67.045  12.872  35.719  1.00  0.00    -0.016 C 
HETATM    3  C3  UNL     1      66.864  14.246  36.149  1.00  0.00     0.014 C 
HETATM    4  C4  UNL     1      65.568  14.522  36.901  1.00  0.00     0.002 C 
HETATM    5  C5  UNL     1      64.344  14.160  36.188  1.00  0.00     0.017 C 
HETATM    6  C6  UNL     1      64.620  12.950  35.181  1.00  0.00     0.061 C 
HETATM    7  C15 UNL     1      65.681  12.146  35.716  1.00  0.00     0.013 C 
HETATM    8  C16 UNL     1      66.122  10.872  35.127  1.00  0.00     0.011 C 
HETATM    9  C17 UNL     1      67.362  10.571  35.996  1.00  0.00     0.035 C 
HETATM   10  C18 UNL     1      67.684  11.914  36.657  1.00  0.00    -0.071 C 
HETATM   11  C19 UNL     1      68.323  12.020  37.787  1.00  0.00     0.003 C 
ENDROOT
BRANCH   6  12
HETATM   12  C7  UNL     1      63.829  12.955  34.247  1.00  0.00    -0.150 C 
BRANCH  12  13
HETATM   13  C8  UNL     1      62.895  12.961  33.132  1.00  0.00     0.058 C 
BRANCH  13  14
HETATM   14  C9  UNL     1      62.196  11.754  33.130  1.00  0.00    -0.053 C 
HETATM   15  C10 UNL     1      61.535  10.659  33.130  1.00  0.00     0.000 C 
HETATM   16  C11 UNL     1      61.841   9.647  34.309  1.00  0.00     0.150 C 
HETATM   17  N1  UNL     1      61.683  10.393  35.544  1.00  0.00    -0.358 N 
HETATM   18  C12 UNL     1      60.863  11.518  35.665  1.00  0.00     0.218 C 
ATOM     19  H1  UNL     1      62.198  10.079  36.367  1.00  0.00     0.162 HD
HETATM   20  O1  UNL     1      60.803  12.090  36.768  1.00  0.00    -0.274 OA
HETATM   21  C13 UNL     1      60.042  12.113  34.585  1.00  0.00     0.107 C 
HETATM   22  C14 UNL     1      60.824  12.924  33.673  1.00  0.00     0.048 C 
ENDBRANCH  13  14
ENDBRANCH  12  13
ENDBRANCH   6  12
BRANCH  11  23
HETATM   23  C20 UNL     1      68.809  10.826  38.424  1.00  0.00    -0.003 C 
HETATM   24  C21 UNL     1      70.093  10.507  38.495  1.00  0.00    -0.022 C 
BRANCH  24  25
HETATM   25  C22 UNL     1      70.539   9.256  39.187  1.00  0.00     0.008 A 
HETATM   26  C23 UNL     1      71.785   9.445  40.026  1.00  0.00     0.009 A 
HETATM   27  C24 UNL     1      71.846   8.614  38.800  1.00  0.00     0.009 A 
ENDBRANCH  24  25
ENDBRANCH  11  23
TORSDOF 5
ENDMDL
