MODEL 1
REMARK VINA RESULT: -8.951516454      0.000      0.000
REMARK  4 active torsions:
REMARK  status: ('A' for Active; 'I' for Inactive)
REMARK    1  A    between atoms: C2_2  and  C5_5 
REMARK    2  A    between atoms: C8_8  and  C10_10 
REMARK    3  A    between atoms: C12_12  and  N1_13 
REMARK    4  A    between atoms: N1_13  and  C13_16 
ROOT
HETATM    1  C10 UNL     1      62.563  11.469  33.217  1.00  0.00     0.026 A 
HETATM    2  C11 UNL     1      61.095  11.817  33.388  1.00  0.00     0.041 A 
HETATM    3  C12 UNL     1      61.675  10.422  33.626  1.00  0.00     0.191 A 
ENDROOT
BRANCH   3   4
HETATM    4  N1  UNL     1      61.490   9.946  34.970  1.00  0.00    -0.066 N 
ATOM      5  H12 UNL     1      61.759  10.651  35.655  1.00  0.00     0.278 HD
ATOM      6  H11 UNL     1      60.500   9.866  35.203  1.00  0.00     0.278 HD
BRANCH   4   7
HETATM    7  C13 UNL     1      62.187   8.700  35.195  1.00  0.00     0.194 C 
HETATM    8  C14 UNL     1      62.555   8.533  36.630  1.00  0.00     0.017 C 
HETATM    9  C15 UNL     1      61.397   8.081  37.491  1.00  0.00     0.011 C 
HETATM   10  C19 UNL     1      63.602   7.418  36.703  1.00  0.00     0.011 C 
HETATM   11  C16 UNL     1      60.871   6.769  36.975  1.00  0.00    -0.013 C 
HETATM   12  C17 UNL     1      61.910   5.686  36.948  1.00  0.00     0.009 C 
HETATM   13  C22 UNL     1      60.368   7.007  35.568  1.00  0.00     0.011 C 
HETATM   14  C18 UNL     1      63.064   6.170  36.077  1.00  0.00    -0.013 C 
HETATM   15  C20 UNL     1      62.530   6.362  34.691  1.00  0.00     0.011 C 
HETATM   16  C21 UNL     1      61.483   7.491  34.695  1.00  0.00     0.017 C 
ENDBRANCH   4   7
ENDBRANCH   3   4
BRANCH   1  17
HETATM   17  C8  UNL     1      63.558  12.212  34.021  1.00  0.00    -0.038 C 
HETATM   18  C7  UNL     1      64.724  11.295  34.317  1.00  0.00     0.010 C 
HETATM   19  C6  UNL     1      65.854  11.965  35.018  1.00  0.00     0.006 C 
HETATM   20  C5  UNL     1      65.359  12.803  36.162  1.00  0.00    -0.007 C 
HETATM   21  C24 UNL     1      64.241  13.748  35.761  1.00  0.00     0.006 C 
HETATM   22  C23 UNL     1      63.101  12.826  35.282  1.00  0.00     0.010 C 
HETATM   23  C9  UNL     1      64.085  13.345  33.125  1.00  0.00     0.015 C 
BRANCH  20  24
HETATM   24  C2  UNL     1      66.456  13.491  36.910  1.00  0.00    -0.048 C 
HETATM   25  C1  UNL     1      67.661  13.812  36.108  1.00  0.00     0.015 C 
HETATM   26  C3  UNL     1      66.884  12.553  38.039  1.00  0.00     0.015 C 
HETATM   27  C4  UNL     1      65.904  14.731  37.554  1.00  0.00     0.015 C 
ENDBRANCH  20  24
ENDBRANCH   1  17
TORSDOF 4
ENDMDL
MODEL 2
REMARK VINA RESULT: -8.794192734      2.124      7.322
REMARK  4 active torsions:
REMARK  status: ('A' for Active; 'I' for Inactive)
REMARK    1  A    between atoms: C2_2  and  C5_5 
REMARK    2  A    between atoms: C8_8  and  C10_10 
REMARK    3  A    between atoms: C12_12  and  N1_13 
REMARK    4  A    between atoms: N1_13  and  C13_16 
ROOT
HETATM    1  C10 UNL     1      62.587   8.107  35.925  1.00  0.00     0.026 A 
HETATM    2  C11 UNL     1      64.082   8.081  36.191  1.00  0.00     0.041 A 
HETATM    3  C12 UNL     1      63.387   9.134  35.328  1.00  0.00     0.191 A 
ENDROOT
BRANCH   3   4
HETATM    4  N1  UNL     1      63.548  10.476  35.821  1.00  0.00    -0.066 N 
ATOM      5  H12 UNL     1      62.783  10.737  36.443  1.00  0.00     0.278 HD
ATOM      6  H11 UNL     1      64.320  10.539  36.484  1.00  0.00     0.278 HD
BRANCH   4   7
HETATM    7  C13 UNL     1      63.698  11.427  34.743  1.00  0.00     0.194 C 
HETATM    8  C14 UNL     1      62.469  12.253  34.570  1.00  0.00     0.017 C 
HETATM    9  C15 UNL     1      62.357  13.369  35.584  1.00  0.00     0.011 C 
HETATM   10  C19 UNL     1      62.569  12.930  33.200  1.00  0.00     0.011 C 
HETATM   11  C16 UNL     1      63.559  14.267  35.476  1.00  0.00    -0.013 C 
HETATM   12  C17 UNL     1      63.728  14.866  34.111  1.00  0.00     0.009 C 
HETATM   13  C22 UNL     1      64.777  13.432  35.805  1.00  0.00     0.011 C 
HETATM   14  C18 UNL     1      63.836  13.720  33.110  1.00  0.00    -0.013 C 
HETATM   15  C20 UNL     1      65.068  12.941  33.453  1.00  0.00     0.011 C 
HETATM   16  C21 UNL     1      64.900  12.294  34.840  1.00  0.00     0.017 C 
ENDBRANCH   4   7
ENDBRANCH   3   4
BRANCH   1  17
HETATM   17  C8  UNL     1      61.670   8.196  37.082  1.00  0.00    -0.038 C 
HETATM   18  C7  UNL     1      60.801   6.958  37.108  1.00  0.00     0.010 C 
HETATM   19  C6  UNL     1      59.916   6.869  38.302  1.00  0.00     0.006 C 
HETATM   20  C5  UNL     1      59.220   8.176  38.559  1.00  0.00    -0.007 C 
HETATM   21  C24 UNL     1      60.175   9.355  38.591  1.00  0.00     0.006 C 
HETATM   22  C23 UNL     1      60.807   9.389  37.184  1.00  0.00     0.010 C 
HETATM   23  C9  UNL     1      62.552   8.161  38.342  1.00  0.00     0.015 C 
BRANCH  20  24
HETATM   24  C2  UNL     1      58.308   8.140  39.742  1.00  0.00    -0.048 C 
HETATM   25  C1  UNL     1      57.298   7.053  39.726  1.00  0.00     0.015 C 
HETATM   26  C3  UNL     1      57.557   9.472  39.769  1.00  0.00     0.015 C 
HETATM   27  C4  UNL     1      59.135   8.074  40.994  1.00  0.00     0.015 C 
ENDBRANCH  20  24
ENDBRANCH   1  17
TORSDOF 4
ENDMDL
MODEL 3
REMARK VINA RESULT: -8.342974185      1.880      7.077
REMARK  4 active torsions:
REMARK  status: ('A' for Active; 'I' for Inactive)
REMARK    1  A    between atoms: C2_2  and  C5_5 
REMARK    2  A    between atoms: C8_8  and  C10_10 
REMARK    3  A    between atoms: C12_12  and  N1_13 
REMARK    4  A    between atoms: N1_13  and  C13_16 
ROOT
HETATM    1  C10 UNL     1      63.704   7.515  36.335  1.00  0.00     0.026 A 
HETATM    2  C11 UNL     1      64.894   7.644  37.270  1.00  0.00     0.041 A 
HETATM    3  C12 UNL     1      64.687   8.510  36.027  1.00  0.00     0.191 A 
ENDROOT
BRANCH   3   4
HETATM    4  N1  UNL     1      64.589   9.915  36.317  1.00  0.00    -0.066 N 
ATOM      5  H12 UNL     1      63.756  10.124  36.866  1.00  0.00     0.278 HD
ATOM      6  H11 UNL     1      65.299  10.207  36.988  1.00  0.00     0.278 HD
BRANCH   4   7
HETATM    7  C13 UNL     1      64.641  10.713  35.113  1.00  0.00     0.194 C 
HETATM    8  C14 UNL     1      63.299  11.260  34.764  1.00  0.00     0.017 C 
HETATM    9  C15 UNL     1      62.917  12.468  35.590  1.00  0.00     0.011 C 
HETATM   10  C19 UNL     1      63.369  11.741  33.313  1.00  0.00     0.011 C 
HETATM   11  C16 UNL     1      63.943  13.552  35.397  1.00  0.00    -0.013 C 
HETATM   12  C17 UNL     1      64.096  13.971  33.963  1.00  0.00     0.009 C 
HETATM   13  C22 UNL     1      65.266  13.016  35.900  1.00  0.00     0.011 C 
HETATM   14  C18 UNL     1      64.477  12.735  33.155  1.00  0.00    -0.013 C 
HETATM   15  C20 UNL     1      65.803  12.258  33.664  1.00  0.00     0.011 C 
HETATM   16  C21 UNL     1      65.657  11.796  35.126  1.00  0.00     0.017 C 
ENDBRANCH   4   7
ENDBRANCH   3   4
BRANCH   1  17
HETATM   17  C8  UNL     1      62.348   7.689  36.899  1.00  0.00    -0.038 C 
HETATM   18  C7  UNL     1      62.428   8.641  38.071  1.00  0.00     0.010 C 
HETATM   19  C6  UNL     1      61.104   8.996  38.651  1.00  0.00     0.006 C 
HETATM   20  C5  UNL     1      60.252   7.773  38.843  1.00  0.00    -0.007 C 
HETATM   21  C24 UNL     1      60.163   6.914  37.595  1.00  0.00     0.006 C 
HETATM   22  C23 UNL     1      61.617   6.477  37.316  1.00  0.00     0.010 C 
HETATM   23  C9  UNL     1      61.508   8.377  35.810  1.00  0.00     0.015 C 
BRANCH  20  24
HETATM   24  C2  UNL     1      58.911   8.072  39.434  1.00  0.00    -0.048 C 
HETATM   25  C1  UNL     1      58.341   9.391  39.069  1.00  0.00     0.015 C 
HETATM   26  C3  UNL     1      59.076   8.040  40.954  1.00  0.00     0.015 C 
HETATM   27  C4  UNL     1      57.961   6.966  39.071  1.00  0.00     0.015 C 
ENDBRANCH  20  24
ENDBRANCH   1  17
TORSDOF 4
ENDMDL
MODEL 4
REMARK VINA RESULT: -8.242788970      1.017      1.928
REMARK  4 active torsions:
REMARK  status: ('A' for Active; 'I' for Inactive)
REMARK    1  A    between atoms: C2_2  and  C5_5 
REMARK    2  A    between atoms: C8_8  and  C10_10 
REMARK    3  A    between atoms: C12_12  and  N1_13 
REMARK    4  A    between atoms: N1_13  and  C13_16 
ROOT
HETATM    1  C10 UNL     1      62.307  11.739  34.065  1.00  0.00     0.026 A 
HETATM    2  C11 UNL     1      61.091  12.478  34.596  1.00  0.00     0.041 A 
HETATM    3  C12 UNL     1      61.286  10.966  34.707  1.00  0.00     0.191 A 
ENDROOT
BRANCH   3   4
HETATM    4  N1  UNL     1      61.314  10.489  36.063  1.00  0.00    -0.066 N 
ATOM      5  H12 UNL     1      62.204  10.698  36.513  1.00  0.00     0.278 HD
ATOM      6  H11 UNL     1      60.700  11.039  36.664  1.00  0.00     0.278 HD
BRANCH   4   7
HETATM    7  C13 UNL     1      61.002   9.080  36.141  1.00  0.00     0.194 C 
HETATM    8  C14 UNL     1      61.794   8.291  35.153  1.00  0.00     0.017 C 
HETATM    9  C15 UNL     1      63.216   8.037  35.601  1.00  0.00     0.011 C 
HETATM   10  C19 UNL     1      61.131   6.917  35.036  1.00  0.00     0.011 C 
HETATM   11  C16 UNL     1      63.203   7.294  36.910  1.00  0.00    -0.013 C 
HETATM   12  C17 UNL     1      62.474   5.984  36.839  1.00  0.00     0.009 C 
HETATM   13  C22 UNL     1      62.525   8.185  37.928  1.00  0.00     0.011 C 
HETATM   14  C18 UNL     1      61.047   6.271  36.383  1.00  0.00    -0.013 C 
HETATM   15  C20 UNL     1      60.405   7.127  37.431  1.00  0.00     0.011 C 
HETATM   16  C21 UNL     1      61.123   8.487  37.497  1.00  0.00     0.017 C 
ENDBRANCH   4   7
ENDBRANCH   3   4
BRANCH   1  17
HETATM   17  C8  UNL     1      63.641  12.125  34.573  1.00  0.00    -0.038 C 
HETATM   18  C7  UNL     1      64.340  10.888  35.092  1.00  0.00     0.010 C 
HETATM   19  C6  UNL     1      65.745  11.125  35.520  1.00  0.00     0.006 C 
HETATM   20  C5  UNL     1      65.850  12.356  36.376  1.00  0.00    -0.007 C 
HETATM   21  C24 UNL     1      65.189  13.569  35.747  1.00  0.00     0.006 C 
HETATM   22  C23 UNL     1      63.703  13.178  35.607  1.00  0.00     0.010 C 
HETATM   23  C9  UNL     1      64.442  12.628  33.361  1.00  0.00     0.015 C 
BRANCH  20  24
HETATM   24  C2  UNL     1      67.241  12.636  36.845  1.00  0.00    -0.048 C 
HETATM   25  C1  UNL     1      67.685  14.043  36.696  1.00  0.00     0.015 C 
HETATM   26  C3  UNL     1      68.179  11.762  36.011  1.00  0.00     0.015 C 
HETATM   27  C4  UNL     1      67.375  12.188  38.272  1.00  0.00     0.015 C 
ENDBRANCH  20  24
ENDBRANCH   1  17
TORSDOF 4
ENDMDL
MODEL 5
REMARK VINA RESULT: -7.762921438      2.150      6.945
REMARK  4 active torsions:
REMARK  status: ('A' for Active; 'I' for Inactive)
REMARK    1  A    between atoms: C2_2  and  C5_5 
REMARK    2  A    between atoms: C8_8  and  C10_10 
REMARK    3  A    between atoms: C12_12  and  N1_13 
REMARK    4  A    between atoms: N1_13  and  C13_16 
ROOT
HETATM    1  C10 UNL     1      63.387   7.682  36.294  1.00  0.00     0.026 A 
HETATM    2  C11 UNL     1      64.593   8.062  37.134  1.00  0.00     0.041 A 
HETATM    3  C12 UNL     1      64.220   8.745  35.819  1.00  0.00     0.191 A 
ENDROOT
BRANCH   3   4
HETATM    4  N1  UNL     1      63.959  10.152  35.957  1.00  0.00    -0.066 N 
ATOM      5  H12 UNL     1      63.699  10.390  36.914  1.00  0.00     0.278 HD
ATOM      6  H11 UNL     1      64.817  10.699  35.885  1.00  0.00     0.278 HD
BRANCH   4   7
HETATM    7  C13 UNL     1      62.963  10.606  35.013  1.00  0.00     0.194 C 
HETATM    8  C14 UNL     1      62.359  11.901  35.438  1.00  0.00     0.017 C 
HETATM    9  C15 UNL     1      63.239  13.094  35.135  1.00  0.00     0.011 C 
HETATM   10  C19 UNL     1      61.081  12.095  34.618  1.00  0.00     0.011 C 
HETATM   11  C16 UNL     1      63.512  13.153  33.657  1.00  0.00    -0.013 C 
HETATM   12  C17 UNL     1      62.263  13.247  32.830  1.00  0.00     0.009 C 
HETATM   13  C22 UNL     1      64.259  11.890  33.285  1.00  0.00     0.011 C 
HETATM   14  C18 UNL     1      61.396  12.036  33.156  1.00  0.00    -0.013 C 
HETATM   15  C20 UNL     1      62.159  10.814  32.744  1.00  0.00     0.011 C 
HETATM   16  C21 UNL     1      63.429  10.686  33.605  1.00  0.00     0.017 C 
ENDBRANCH   4   7
ENDBRANCH   3   4
BRANCH   1  17
HETATM   17  C8  UNL     1      62.046   7.757  36.916  1.00  0.00    -0.038 C 
HETATM   18  C7  UNL     1      62.090   8.765  38.042  1.00  0.00     0.010 C 
HETATM   19  C6  UNL     1      60.765   9.023  38.671  1.00  0.00     0.006 C 
HETATM   20  C5  UNL     1      60.042   7.737  38.956  1.00  0.00    -0.007 C 
HETATM   21  C24 UNL     1      59.979   6.816  37.751  1.00  0.00     0.006 C 
HETATM   22  C23 UNL     1      61.453   6.502  37.419  1.00  0.00     0.010 C 
HETATM   23  C9  UNL     1      61.097   8.313  35.842  1.00  0.00     0.015 C 
BRANCH  20  24
HETATM   24  C2  UNL     1      58.708   7.937  39.600  1.00  0.00    -0.048 C 
HETATM   25  C1  UNL     1      58.108   9.280  39.403  1.00  0.00     0.015 C 
HETATM   26  C3  UNL     1      58.900   7.730  41.102  1.00  0.00     0.015 C 
HETATM   27  C4  UNL     1      57.770   6.864  39.124  1.00  0.00     0.015 C 
ENDBRANCH  20  24
ENDBRANCH   1  17
TORSDOF 4
ENDMDL
