MODEL 1
REMARK VINA RESULT: -8.371733138      0.000      0.000
REMARK  5 active torsions:
REMARK  status: ('A' for Active; 'I' for Inactive)
REMARK    1  A    between atoms: C8_8  and  C9_9 
REMARK    2  A    between atoms: C9_9  and  C10_10 
REMARK    3  A    between atoms: C10_10  and  C11_11 
REMARK    4  A    between atoms: C11_11  and  C12_12 
REMARK    5  A    between atoms: C15_15  and  O1_16 
ROOT
HETATM    1  C12 UNL     1      60.424   6.490  37.200  1.00  0.00    -0.107 C 
HETATM    2  C13 UNL     1      59.776   6.836  38.158  1.00  0.00    -0.111 C 
HETATM    3  C14 UNL     1      58.999   7.261  39.334  1.00  0.00     0.112 C 
ENDROOT
BRANCH   1   4
HETATM    4  C11 UNL     1      61.190   6.073  36.021  1.00  0.00     0.094 C 
BRANCH   4   5
HETATM    5  C10 UNL     1      62.658   6.304  36.369  1.00  0.00     0.013 C 
BRANCH   5   6
HETATM    6  C9  UNL     1      62.804   7.715  36.801  1.00  0.00     0.012 C 
BRANCH   6   7
HETATM    7  C8  UNL     1      63.184   8.698  35.702  1.00  0.00     0.042 C 
HETATM    8  C7  UNL     1      61.873   9.369  35.384  1.00  0.00     0.016 C 
HETATM    9  C6  UNL     1      62.064  10.757  35.125  1.00  0.00    -0.005 C 
HETATM   10  C5  UNL     1      61.215  11.903  34.991  1.00  0.00    -0.005 C 
HETATM   11  C19 UNL     1      63.006  10.783  33.935  1.00  0.00    -0.005 C 
HETATM   12  C4  UNL     1      61.065  12.792  36.241  1.00  0.00     0.009 C 
HETATM   13  C22 UNL     1      61.801  12.944  34.006  1.00  0.00     0.003 C 
HETATM   14  C3  UNL     1      61.968  13.936  36.333  1.00  0.00     0.034 C 
HETATM   15  C2  UNL     1      63.174  13.980  35.514  1.00  0.00    -0.080 C 
HETATM   16  C1  UNL     1      64.162  14.777  35.842  1.00  0.00     0.015 C 
HETATM   17  C23 UNL     1      63.325  13.111  34.267  1.00  0.00    -0.013 C 
HETATM   18  C18 UNL     1      63.957  11.846  34.477  1.00  0.00     0.006 C 
HETATM   19  C24 UNL     1      63.936  13.895  33.173  1.00  0.00     0.021 C 
HETATM   20  C17 UNL     1      65.244  11.278  34.276  1.00  0.00     0.035 C 
HETATM   21  C16 UNL     1      65.307   9.910  34.881  1.00  0.00     0.006 C 
HETATM   22  C15 UNL     1      64.447   9.412  35.977  1.00  0.00     0.043 C 
HETATM   23  C21 UNL     1      61.556  12.396  32.641  1.00  0.00     0.006 C 
HETATM   24  C20 UNL     1      62.352  11.161  32.639  1.00  0.00     0.006 C 
BRANCH  22  25
HETATM   25  O1  UNL     1      64.569  10.042  37.209  1.00  0.00    -0.365 OA
ATOM     26  H1  UNL     1      65.448  10.224  37.520  1.00  0.00     0.217 HD
ENDBRANCH  22  25
ENDBRANCH   6   7
ENDBRANCH   5   6
ENDBRANCH   4   5
ENDBRANCH   1   4
TORSDOF 5
ENDMDL
MODEL 2
REMARK VINA RESULT: -8.276376619      1.917      3.120
REMARK  5 active torsions:
REMARK  status: ('A' for Active; 'I' for Inactive)
REMARK    1  A    between atoms: C8_8  and  C9_9 
REMARK    2  A    between atoms: C9_9  and  C10_10 
REMARK    3  A    between atoms: C10_10  and  C11_11 
REMARK    4  A    between atoms: C11_11  and  C12_12 
REMARK    5  A    between atoms: C15_15  and  O1_16 
ROOT
HETATM    1  C12 UNL     1      59.266   8.788  39.602  1.00  0.00    -0.107 C 
HETATM    2  C13 UNL     1      58.281   8.217  40.002  1.00  0.00    -0.111 C 
HETATM    3  C14 UNL     1      57.079   7.530  40.504  1.00  0.00     0.112 C 
ENDROOT
BRANCH   1   4
HETATM    4  C11 UNL     1      60.459   9.472  39.091  1.00  0.00     0.094 C 
BRANCH   4   5
HETATM    5  C10 UNL     1      60.311   9.498  37.572  1.00  0.00     0.013 C 
BRANCH   5   6
HETATM    6  C9  UNL     1      60.361  10.915  37.137  1.00  0.00     0.012 C 
BRANCH   6   7
HETATM    7  C8  UNL     1      61.085  11.170  35.823  1.00  0.00     0.042 C 
HETATM    8  C7  UNL     1      61.479  12.620  35.931  1.00  0.00     0.016 C 
HETATM    9  C6  UNL     1      62.773  12.837  35.377  1.00  0.00    -0.005 C 
HETATM   10  C5  UNL     1      63.729  13.903  35.387  1.00  0.00    -0.005 C 
HETATM   11  C19 UNL     1      62.631  12.405  33.929  1.00  0.00    -0.005 C 
HETATM   12  C4  UNL     1      64.870  13.788  36.417  1.00  0.00     0.009 C 
HETATM   13  C22 UNL     1      64.565  13.942  34.084  1.00  0.00     0.003 C 
HETATM   14  C3  UNL     1      66.111  13.181  35.944  1.00  0.00     0.034 C 
HETATM   15  C2  UNL     1      66.111  12.382  34.724  1.00  0.00    -0.080 C 
HETATM   16  C1  UNL     1      67.087  11.538  34.491  1.00  0.00     0.015 C 
HETATM   17  C23 UNL     1      64.991  12.498  33.692  1.00  0.00    -0.013 C 
HETATM   18  C18 UNL     1      63.911  11.576  33.857  1.00  0.00     0.006 C 
HETATM   19  C24 UNL     1      65.555  12.497  32.326  1.00  0.00     0.021 C 
HETATM   20  C17 UNL     1      63.485  10.354  33.271  1.00  0.00     0.035 C 
HETATM   21  C16 UNL     1      62.328   9.788  34.034  1.00  0.00     0.006 C 
HETATM   22  C15 UNL     1      62.005  10.077  35.449  1.00  0.00     0.043 C 
HETATM   23  C21 UNL     1      63.672  14.529  33.045  1.00  0.00     0.006 C 
HETATM   24  C20 UNL     1      62.590  13.540  32.949  1.00  0.00     0.006 C 
BRANCH  22  25
HETATM   25  O1  UNL     1      62.928   9.665  36.401  1.00  0.00    -0.365 OA
ATOM     26  H1  UNL     1      63.539  10.316  36.727  1.00  0.00     0.217 HD
ENDBRANCH  22  25
ENDBRANCH   6   7
ENDBRANCH   5   6
ENDBRANCH   4   5
ENDBRANCH   1   4
TORSDOF 5
ENDMDL
MODEL 3
REMARK VINA RESULT: -8.206292711      1.466      3.027
REMARK  5 active torsions:
REMARK  status: ('A' for Active; 'I' for Inactive)
REMARK    1  A    between atoms: C8_8  and  C9_9 
REMARK    2  A    between atoms: C9_9  and  C10_10 
REMARK    3  A    between atoms: C10_10  and  C11_11 
REMARK    4  A    between atoms: C11_11  and  C12_12 
REMARK    5  A    between atoms: C15_15  and  O1_16 
ROOT
HETATM    1  C12 UNL     1      60.362   7.752  37.701  1.00  0.00    -0.107 C 
HETATM    2  C13 UNL     1      60.737   6.815  37.039  1.00  0.00    -0.111 C 
HETATM    3  C14 UNL     1      61.192   5.662  36.243  1.00  0.00     0.112 C 
ENDROOT
BRANCH   1   4
HETATM    4  C11 UNL     1      59.903   8.904  38.484  1.00  0.00     0.094 C 
BRANCH   4   5
HETATM    5  C10 UNL     1      60.877  10.038  38.173  1.00  0.00     0.013 C 
BRANCH   5   6
HETATM    6  C9  UNL     1      60.225  10.938  37.191  1.00  0.00     0.012 C 
BRANCH   6   7
HETATM    7  C8  UNL     1      60.976  11.128  35.881  1.00  0.00     0.042 C 
HETATM    8  C7  UNL     1      61.336  12.591  35.908  1.00  0.00     0.016 C 
HETATM    9  C6  UNL     1      62.638  12.803  35.373  1.00  0.00    -0.005 C 
HETATM   10  C5  UNL     1      63.570  13.890  35.338  1.00  0.00    -0.005 C 
HETATM   11  C19 UNL     1      62.541  12.281  33.951  1.00  0.00    -0.005 C 
HETATM   12  C4  UNL     1      64.687  13.865  36.401  1.00  0.00     0.009 C 
HETATM   13  C22 UNL     1      64.437  13.868  34.055  1.00  0.00     0.003 C 
HETATM   14  C3  UNL     1      65.952  13.258  35.995  1.00  0.00     0.034 C 
HETATM   15  C2  UNL     1      66.000  12.386  34.827  1.00  0.00    -0.080 C 
HETATM   16  C1  UNL     1      66.999  11.552  34.670  1.00  0.00     0.015 C 
HETATM   17  C23 UNL     1      64.904  12.413  33.764  1.00  0.00    -0.013 C 
HETATM   18  C18 UNL     1      63.840  11.479  33.961  1.00  0.00     0.006 C 
HETATM   19  C24 UNL     1      65.502  12.341  32.414  1.00  0.00     0.021 C 
HETATM   20  C17 UNL     1      63.455  10.213  33.441  1.00  0.00     0.035 C 
HETATM   21  C16 UNL     1      62.292   9.668  34.211  1.00  0.00     0.006 C 
HETATM   22  C15 UNL     1      61.928  10.036  35.597  1.00  0.00     0.043 C 
HETATM   23  C21 UNL     1      63.558  14.369  32.962  1.00  0.00     0.006 C 
HETATM   24  C20 UNL     1      62.500  13.352  32.901  1.00  0.00     0.006 C 
BRANCH  22  25
HETATM   25  O1  UNL     1      62.836   9.705  36.594  1.00  0.00    -0.365 OA
ATOM     26  H1  UNL     1      62.544   9.102  37.268  1.00  0.00     0.217 HD
ENDBRANCH  22  25
ENDBRANCH   6   7
ENDBRANCH   5   6
ENDBRANCH   4   5
ENDBRANCH   1   4
TORSDOF 5
ENDMDL
MODEL 4
REMARK VINA RESULT: -7.819991946      1.500      2.020
REMARK  5 active torsions:
REMARK  status: ('A' for Active; 'I' for Inactive)
REMARK    1  A    between atoms: C8_8  and  C9_9 
REMARK    2  A    between atoms: C9_9  and  C10_10 
REMARK    3  A    between atoms: C10_10  and  C11_11 
REMARK    4  A    between atoms: C11_11  and  C12_12 
REMARK    5  A    between atoms: C15_15  and  O1_16 
ROOT
HETATM    1  C12 UNL     1      63.139   6.493  36.740  1.00  0.00    -0.107 C 
HETATM    2  C13 UNL     1      62.077   6.275  36.211  1.00  0.00    -0.111 C 
HETATM    3  C14 UNL     1      60.782   5.994  35.566  1.00  0.00     0.112 C 
ENDROOT
BRANCH   1   4
HETATM    4  C11 UNL     1      64.423   6.783  37.387  1.00  0.00     0.094 C 
BRANCH   4   5
HETATM    5  C10 UNL     1      64.391   8.267  37.740  1.00  0.00     0.013 C 
BRANCH   5   6
HETATM    6  C9  UNL     1      65.549   8.915  37.077  1.00  0.00     0.012 C 
BRANCH   6   7
HETATM    7  C8  UNL     1      65.232   9.654  35.784  1.00  0.00     0.042 C 
HETATM    8  C7  UNL     1      63.727   9.732  35.801  1.00  0.00     0.016 C 
HETATM    9  C6  UNL     1      63.279  10.986  35.297  1.00  0.00    -0.005 C 
HETATM   10  C5  UNL     1      62.036  11.698  35.273  1.00  0.00    -0.005 C 
HETATM   11  C19 UNL     1      63.822  11.029  33.881  1.00  0.00    -0.005 C 
HETATM   12  C4  UNL     1      61.842  12.769  36.364  1.00  0.00     0.009 C 
HETATM   13  C22 UNL     1      61.905  12.589  34.013  1.00  0.00     0.003 C 
HETATM   14  C3  UNL     1      62.203  14.137  36.000  1.00  0.00     0.034 C 
HETATM   15  C2  UNL     1      63.061  14.381  34.845  1.00  0.00    -0.080 C 
HETATM   16  C1  UNL     1      63.693  15.522  34.726  1.00  0.00     0.015 C 
HETATM   17  C23 UNL     1      63.249  13.329  33.754  1.00  0.00    -0.013 C 
HETATM   18  C18 UNL     1      64.365  12.454  33.935  1.00  0.00     0.006 C 
HETATM   19  C24 UNL     1      63.218  13.968  32.421  1.00  0.00     0.021 C 
HETATM   20  C17 UNL     1      65.685  12.329  33.423  1.00  0.00     0.035 C 
HETATM   21  C16 UNL     1      66.433  11.267  34.170  1.00  0.00     0.006 C 
HETATM   22  C15 UNL     1      66.128  10.802  35.540  1.00  0.00     0.043 C 
HETATM   23  C21 UNL     1      61.588  11.663  32.890  1.00  0.00     0.006 C 
HETATM   24  C20 UNL     1      62.787  10.817  32.816  1.00  0.00     0.006 C 
BRANCH  22  25
HETATM   25  O1  UNL     1      66.274  11.727  36.566  1.00  0.00    -0.365 OA
ATOM     26  H1  UNL     1      67.037  12.294  36.537  1.00  0.00     0.217 HD
ENDBRANCH  22  25
ENDBRANCH   6   7
ENDBRANCH   5   6
ENDBRANCH   4   5
ENDBRANCH   1   4
TORSDOF 5
ENDMDL
MODEL 5
REMARK VINA RESULT: -7.784745712      2.637      5.607
REMARK  5 active torsions:
REMARK  status: ('A' for Active; 'I' for Inactive)
REMARK    1  A    between atoms: C8_8  and  C9_9 
REMARK    2  A    between atoms: C9_9  and  C10_10 
REMARK    3  A    between atoms: C10_10  and  C11_11 
REMARK    4  A    between atoms: C11_11  and  C12_12 
REMARK    5  A    between atoms: C15_15  and  O1_16 
ROOT
HETATM    1  C12 UNL     1      69.103  11.329  38.017  1.00  0.00    -0.107 C 
HETATM    2  C13 UNL     1      69.891  10.543  38.484  1.00  0.00    -0.111 C 
HETATM    3  C14 UNL     1      70.848   9.573  39.042  1.00  0.00     0.112 C 
ENDROOT
BRANCH   1   4
HETATM    4  C11 UNL     1      68.157  12.304  37.463  1.00  0.00     0.094 C 
BRANCH   4   5
HETATM    5  C10 UNL     1      67.425  11.585  36.333  1.00  0.00     0.013 C 
BRANCH   5   6
HETATM    6  C9  UNL     1      67.334  12.522  35.186  1.00  0.00     0.012 C 
BRANCH   6   7
HETATM    7  C8  UNL     1      65.929  12.989  34.834  1.00  0.00     0.042 C 
HETATM    8  C7  UNL     1      65.397  11.857  33.995  1.00  0.00     0.016 C 
HETATM    9  C6  UNL     1      64.022  11.618  34.279  1.00  0.00    -0.005 C 
HETATM   10  C5  UNL     1      63.076  10.586  33.979  1.00  0.00    -0.005 C 
HETATM   11  C19 UNL     1      63.343  12.931  33.937  1.00  0.00    -0.005 C 
HETATM   12  C4  UNL     1      62.846   9.531  35.079  1.00  0.00     0.009 C 
HETATM   13  C22 UNL     1      61.636  11.141  33.852  1.00  0.00     0.003 C 
HETATM   14  C3  UNL     1      61.728   9.775  35.987  1.00  0.00     0.034 C 
HETATM   15  C2  UNL     1      61.151  11.111  36.088  1.00  0.00    -0.080 C 
HETATM   16  C1  UNL     1      60.431  11.439  37.133  1.00  0.00     0.015 C 
HETATM   17  C23 UNL     1      61.365  12.158  34.996  1.00  0.00    -0.013 C 
HETATM   18  C18 UNL     1      62.483  13.027  35.194  1.00  0.00     0.006 C 
HETATM   19  C24 UNL     1      60.103  12.882  34.732  1.00  0.00     0.021 C 
HETATM   20  C17 UNL     1      62.704  14.355  35.650  1.00  0.00     0.035 C 
HETATM   21  C16 UNL     1      64.171  14.619  35.786  1.00  0.00     0.006 C 
HETATM   22  C15 UNL     1      65.218  13.591  35.979  1.00  0.00     0.043 C 
HETATM   23  C21 UNL     1      61.575  11.812  32.523  1.00  0.00     0.006 C 
HETATM   24  C20 UNL     1      62.550  12.902  32.664  1.00  0.00     0.006 C 
BRANCH  22  25
HETATM   25  O1  UNL     1      65.168  12.857  37.157  1.00  0.00    -0.365 OA
ATOM     26  H1  UNL     1      65.007  13.334  37.963  1.00  0.00     0.217 HD
ENDBRANCH  22  25
ENDBRANCH   6   7
ENDBRANCH   5   6
ENDBRANCH   4   5
ENDBRANCH   1   4
TORSDOF 5
ENDMDL
