MODEL 1
REMARK VINA RESULT: -6.716136060      0.000      0.000
REMARK  4 active torsions:
REMARK  status: ('A' for Active; 'I' for Inactive)
REMARK    1  A    between atoms: C9_9  and  C10_10 
REMARK    2  A    between atoms: C10_10  and  N1_11 
REMARK    3  A    between atoms: N1_11  and  C11_14 
REMARK    4  A    between atoms: C11_14  and  C12_15 
ROOT
HETATM    1  C1  UNL     1       0.892 -16.342   9.445  1.00  0.00     0.021 C 
HETATM    2  C2  UNL     1       0.692 -14.843   9.718  1.00  0.00     0.001 A 
HETATM    3  C3  UNL     1       0.453 -14.631  11.176  1.00  0.00     0.015 C 
HETATM    4  C4  UNL     1      -0.873 -14.145  11.596  1.00  0.00     0.002 C 
HETATM    5  C5  UNL     1      -1.899 -14.081  10.502  1.00  0.00     0.011 C 
HETATM    6  C6  UNL     1      -1.260 -13.304   9.385  1.00  0.00    -0.024 A 
HETATM    7  C7  UNL     1      -1.199 -11.843   9.372  1.00  0.00     0.011 A 
HETATM    8  C8  UNL     1      -2.177 -12.580   8.476  1.00  0.00     0.011 A 
HETATM    9  C9  UNL     1      -0.184 -14.171   8.773  1.00  0.00     0.046 A 
HETATM   10  C16 UNL     1       0.994 -13.467   8.271  1.00  0.00     0.028 A 
HETATM   11  N3  UNL     1       1.491 -12.554   7.391  1.00  0.00    -0.366 N 
ATOM     12  H3  UNL     1       0.869 -12.082   6.734  1.00  0.00     0.165 HD
HETATM   13  C17 UNL     1       2.779 -12.284   7.393  1.00  0.00     0.112 A 
HETATM   14  C18 UNL     1       3.658 -12.897   8.259  1.00  0.00     0.050 A 
HETATM   15 CL1  UNL     1       5.377 -12.541   8.266  1.00  0.00    -0.083 Cl
HETATM   16  C19 UNL     1       3.191 -13.822   9.159  1.00  0.00     0.035 A 
HETATM   17  C20 UNL     1       1.818 -14.098   9.145  1.00  0.00    -0.024 A 
ENDROOT
BRANCH   9  18
HETATM   18  C10 UNL     1      -0.856 -15.096   7.775  1.00  0.00     0.250 C 
BRANCH  18  19
HETATM   19  N1  UNL     1      -0.369 -15.026   6.453  1.00  0.00    -0.071 N 
ATOM     20  H12 UNL     1      -0.498 -14.094   6.060  1.00  0.00     0.277 HD
ATOM     21  H11 UNL     1       0.650 -15.071   6.431  1.00  0.00     0.277 HD
BRANCH  19  22
HETATM   22  C11 UNL     1      -0.948 -16.026   5.613  1.00  0.00     0.266 C 
BRANCH  22  23
HETATM   23  C12 UNL     1      -0.619 -17.444   5.864  1.00  0.00     0.178 C 
HETATM   24  C13 UNL     1      -1.716 -18.353   5.269  1.00  0.00     0.041 C 
HETATM   25  C14 UNL     1      -1.648 -18.247   3.761  1.00  0.00     0.049 C 
HETATM   26  C15 UNL     1      -0.280 -18.544   3.285  1.00  0.00     0.087 C 
HETATM   27  N2  UNL     1       0.715 -18.385   4.047  1.00  0.00    -0.281 N 
HETATM   28  O1  UNL     1       0.562 -17.939   5.321  1.00  0.00    -0.274 OA
ATOM     29  H2  UNL     1       1.651 -18.595   3.699  1.00  0.00     0.193 HD
ENDBRANCH  22  23
ENDBRANCH  19  22
ENDBRANCH  18  19
ENDBRANCH   9  18
TORSDOF 4
ENDMDL
MODEL 2
REMARK VINA RESULT: -6.647752114      2.028      3.115
REMARK  4 active torsions:
REMARK  status: ('A' for Active; 'I' for Inactive)
REMARK    1  A    between atoms: C9_9  and  C10_10 
REMARK    2  A    between atoms: C10_10  and  N1_11 
REMARK    3  A    between atoms: N1_11  and  C11_14 
REMARK    4  A    between atoms: C11_14  and  C12_15 
ROOT
HETATM    1  C1  UNL     1       2.088 -13.706   7.723  1.00  0.00     0.021 C 
HETATM    2  C2  UNL     1       1.099 -13.778   8.896  1.00  0.00     0.001 A 
HETATM    3  C3  UNL     1       1.854 -13.870  10.180  1.00  0.00     0.015 C 
HETATM    4  C4  UNL     1       1.745 -15.118  10.957  1.00  0.00     0.002 C 
HETATM    5  C5  UNL     1       1.008 -16.229  10.269  1.00  0.00     0.011 C 
HETATM    6  C6  UNL     1      -0.301 -15.641   9.824  1.00  0.00    -0.024 A 
HETATM    7  C7  UNL     1      -1.443 -15.481  10.723  1.00  0.00     0.011 A 
HETATM    8  C8  UNL     1      -1.434 -16.583   9.680  1.00  0.00     0.011 A 
HETATM    9  C9  UNL     1      -0.017 -14.685   8.688  1.00  0.00     0.046 A 
HETATM   10  C16 UNL     1      -0.884 -13.512   8.609  1.00  0.00     0.028 A 
HETATM   11  N3  UNL     1      -2.148 -13.033   8.448  1.00  0.00    -0.366 N 
ATOM     12  H3  UNL     1      -2.927 -13.677   8.307  1.00  0.00     0.165 HD
HETATM   13  C17 UNL     1      -2.360 -11.735   8.474  1.00  0.00     0.112 A 
HETATM   14  C18 UNL     1      -1.341 -10.826   8.659  1.00  0.00     0.050 A 
HETATM   15 CL1  UNL     1      -1.617  -9.093   8.693  1.00  0.00    -0.083 Cl
HETATM   16  C19 UNL     1      -0.054 -11.274   8.824  1.00  0.00     0.035 A 
HETATM   17  C20 UNL     1       0.156 -12.658   8.795  1.00  0.00    -0.024 A 
ENDROOT
BRANCH   9  18
HETATM   18  C10 UNL     1       0.073 -15.506   7.414  1.00  0.00     0.250 C 
BRANCH  18  19
HETATM   19  N1  UNL     1      -0.873 -15.190   6.415  1.00  0.00    -0.071 N 
ATOM     20  H12 UNL     1      -1.807 -15.085   6.812  1.00  0.00     0.277 HD
ATOM     21  H11 UNL     1      -0.739 -14.242   6.065  1.00  0.00     0.277 HD
BRANCH  19  22
HETATM   22  C11 UNL     1      -0.867 -16.141   5.350  1.00  0.00     0.266 C 
BRANCH  22  23
HETATM   23  C12 UNL     1      -0.500 -17.541   5.646  1.00  0.00     0.178 C 
HETATM   24  C13 UNL     1      -1.771 -18.413   5.733  1.00  0.00     0.041 C 
HETATM   25  C14 UNL     1      -2.375 -18.503   4.348  1.00  0.00     0.049 C 
HETATM   26  C15 UNL     1      -1.368 -18.980   3.378  1.00  0.00     0.087 C 
HETATM   27  N2  UNL     1      -0.134 -18.819   3.598  1.00  0.00    -0.281 N 
HETATM   28  O1  UNL     1       0.305 -18.206   4.727  1.00  0.00    -0.274 OA
ATOM     29  H2  UNL     1       0.544 -19.156   2.915  1.00  0.00     0.193 HD
ENDBRANCH  22  23
ENDBRANCH  19  22
ENDBRANCH  18  19
ENDBRANCH   9  18
TORSDOF 4
ENDMDL
MODEL 3
REMARK VINA RESULT: -6.360164747      2.101      3.610
REMARK  4 active torsions:
REMARK  status: ('A' for Active; 'I' for Inactive)
REMARK    1  A    between atoms: C9_9  and  C10_10 
REMARK    2  A    between atoms: C10_10  and  N1_11 
REMARK    3  A    between atoms: N1_11  and  C11_14 
REMARK    4  A    between atoms: C11_14  and  C12_15 
ROOT
HETATM    1  C1  UNL     1       1.622 -12.796   7.027  1.00  0.00     0.021 C 
HETATM    2  C2  UNL     1       1.320 -13.114   8.500  1.00  0.00     0.001 A 
HETATM    3  C3  UNL     1       2.527 -12.825   9.329  1.00  0.00     0.015 C 
HETATM    4  C4  UNL     1       3.208 -13.959   9.977  1.00  0.00     0.002 C 
HETATM    5  C5  UNL     1       2.698 -15.314   9.581  1.00  0.00     0.011 C 
HETATM    6  C6  UNL     1       1.209 -15.267   9.782  1.00  0.00    -0.024 A 
HETATM    7  C7  UNL     1       0.582 -15.447  11.090  1.00  0.00     0.011 A 
HETATM    8  C8  UNL     1       0.540 -16.558  10.058  1.00  0.00     0.011 A 
HETATM    9  C9  UNL     1       0.625 -14.373   8.713  1.00  0.00     0.046 A 
HETATM   10  C16 UNL     1      -0.547 -13.593   9.103  1.00  0.00     0.028 A 
HETATM   11  N3  UNL     1      -1.840 -13.609   9.533  1.00  0.00    -0.366 N 
ATOM     12  H3  UNL     1      -2.319 -14.497   9.685  1.00  0.00     0.165 HD
HETATM   13  C17 UNL     1      -2.467 -12.473   9.750  1.00  0.00     0.112 A 
HETATM   14  C18 UNL     1      -1.862 -11.250   9.556  1.00  0.00     0.050 A 
HETATM   15 CL1  UNL     1      -2.694  -9.731   9.843  1.00  0.00    -0.083 Cl
HETATM   16  C19 UNL     1      -0.560 -11.197   9.124  1.00  0.00     0.035 A 
HETATM   17  C20 UNL     1       0.094 -12.414   8.898  1.00  0.00    -0.024 A 
ENDROOT
BRANCH   9  18
HETATM   18  C10 UNL     1       0.452 -15.212   7.460  1.00  0.00     0.250 C 
BRANCH  18  19
HETATM   19  N1  UNL     1      -0.839 -15.201   6.890  1.00  0.00    -0.071 N 
ATOM     20  H12 UNL     1      -1.552 -15.410   7.588  1.00  0.00     0.277 HD
ATOM     21  H11 UNL     1      -1.126 -14.254   6.644  1.00  0.00     0.277 HD
BRANCH  19  22
HETATM   22  C11 UNL     1      -0.938 -16.080   5.768  1.00  0.00     0.266 C 
BRANCH  22  23
HETATM   23  C12 UNL     1      -0.575 -17.501   5.942  1.00  0.00     0.178 C 
HETATM   24  C13 UNL     1      -1.695 -18.404   5.384  1.00  0.00     0.041 C 
HETATM   25  C14 UNL     1      -1.725 -18.239   3.879  1.00  0.00     0.049 C 
HETATM   26  C15 UNL     1      -0.387 -18.496   3.307  1.00  0.00     0.087 C 
HETATM   27  N2  UNL     1       0.653 -18.350   4.010  1.00  0.00    -0.281 N 
HETATM   28  O1  UNL     1       0.576 -17.955   5.307  1.00  0.00    -0.274 OA
ATOM     29  H2  UNL     1       1.567 -18.531   3.595  1.00  0.00     0.193 HD
ENDBRANCH  22  23
ENDBRANCH  19  22
ENDBRANCH  18  19
ENDBRANCH   9  18
TORSDOF 4
ENDMDL
MODEL 4
REMARK VINA RESULT: -6.277794014      2.035      2.603
REMARK  4 active torsions:
REMARK  status: ('A' for Active; 'I' for Inactive)
REMARK    1  A    between atoms: C9_9  and  C10_10 
REMARK    2  A    between atoms: C10_10  and  N1_11 
REMARK    3  A    between atoms: N1_11  and  C11_14 
REMARK    4  A    between atoms: C11_14  and  C12_15 
ROOT
HETATM    1  C1  UNL     1      -0.744 -16.054  10.551  1.00  0.00     0.021 C 
HETATM    2  C2  UNL     1       0.021 -14.883   9.916  1.00  0.00     0.001 A 
HETATM    3  C3  UNL     1      -0.529 -13.593  10.427  1.00  0.00     0.015 C 
HETATM    4  C4  UNL     1      -1.222 -12.711   9.473  1.00  0.00     0.002 C 
HETATM    5  C5  UNL     1      -1.444 -13.302   8.111  1.00  0.00     0.011 C 
HETATM    6  C6  UNL     1      -0.102 -13.802   7.656  1.00  0.00    -0.024 A 
HETATM    7  C7  UNL     1       0.914 -12.925   7.076  1.00  0.00     0.011 A 
HETATM    8  C8  UNL     1       0.117 -13.868   6.194  1.00  0.00     0.011 A 
HETATM    9  C9  UNL     1       0.246 -15.016   8.486  1.00  0.00     0.046 A 
HETATM   10  C16 UNL     1       1.665 -15.199   8.785  1.00  0.00     0.028 A 
HETATM   11  N3  UNL     1       2.919 -15.407   8.295  1.00  0.00    -0.366 N 
ATOM     12  H3  UNL     1       3.069 -15.494   7.290  1.00  0.00     0.165 HD
HETATM   13  C17 UNL     1       3.935 -15.494   9.126  1.00  0.00     0.112 A 
HETATM   14  C18 UNL     1       3.781 -15.385  10.491  1.00  0.00     0.050 A 
HETATM   15 CL1  UNL     1       5.133 -15.503  11.605  1.00  0.00    -0.083 Cl
HETATM   16  C19 UNL     1       2.531 -15.176  11.019  1.00  0.00     0.035 A 
HETATM   17  C20 UNL     1       1.460 -15.085  10.122  1.00  0.00    -0.024 A 
ENDROOT
BRANCH   9  18
HETATM   18  C10 UNL     1      -0.439 -16.213   7.854  1.00  0.00     0.250 C 
BRANCH  18  19
HETATM   19  N1  UNL     1       0.162 -16.711   6.678  1.00  0.00    -0.071 N 
ATOM     20  H12 UNL     1       0.393 -15.955   6.033  1.00  0.00     0.277 HD
ATOM     21  H11 UNL     1       1.103 -17.058   6.863  1.00  0.00     0.277 HD
BRANCH  19  22
HETATM   22  C11 UNL     1      -0.642 -17.707   6.044  1.00  0.00     0.266 C 
BRANCH  22  23
HETATM   23  C12 UNL     1      -1.364 -17.355   4.804  1.00  0.00     0.178 C 
HETATM   24  C13 UNL     1      -0.891 -18.257   3.644  1.00  0.00     0.041 C 
HETATM   25  C14 UNL     1      -1.358 -19.669   3.925  1.00  0.00     0.049 C 
HETATM   26  C15 UNL     1      -2.817 -19.690   4.163  1.00  0.00     0.087 C 
HETATM   27  N2  UNL     1      -3.418 -18.656   4.571  1.00  0.00    -0.281 N 
HETATM   28  O1  UNL     1      -2.747 -17.497   4.801  1.00  0.00    -0.274 OA
ATOM     29  H2  UNL     1      -4.425 -18.691   4.729  1.00  0.00     0.193 HD
ENDBRANCH  22  23
ENDBRANCH  19  22
ENDBRANCH  18  19
ENDBRANCH   9  18
TORSDOF 4
ENDMDL
MODEL 5
REMARK VINA RESULT: -6.244378066      3.056      5.377
REMARK  4 active torsions:
REMARK  status: ('A' for Active; 'I' for Inactive)
REMARK    1  A    between atoms: C9_9  and  C10_10 
REMARK    2  A    between atoms: C10_10  and  N1_11 
REMARK    3  A    between atoms: N1_11  and  C11_14 
REMARK    4  A    between atoms: C11_14  and  C12_15 
ROOT
HETATM    1  C1  UNL     1      -0.196 -11.579   8.173  1.00  0.00     0.021 C 
HETATM    2  C2  UNL     1      -1.254 -12.541   8.735  1.00  0.00     0.001 A 
HETATM    3  C3  UNL     1      -2.616 -11.984   8.485  1.00  0.00     0.015 C 
HETATM    4  C4  UNL     1      -3.419 -11.573   9.651  1.00  0.00     0.002 C 
HETATM    5  C5  UNL     1      -2.692 -11.609  10.964  1.00  0.00     0.011 C 
HETATM    6  C6  UNL     1      -2.084 -12.980  11.060  1.00  0.00    -0.024 A 
HETATM    7  C7  UNL     1      -2.845 -14.154  11.485  1.00  0.00     0.011 A 
HETATM    8  C8  UNL     1      -1.848 -13.502  12.425  1.00  0.00     0.011 A 
HETATM    9  C9  UNL     1      -0.954 -13.058  10.060  1.00  0.00     0.046 A 
HETATM   10  C16 UNL     1      -0.741 -14.363   9.440  1.00  0.00     0.028 A 
HETATM   11  N3  UNL     1      -0.423 -15.676   9.618  1.00  0.00    -0.366 N 
ATOM     12  H3  UNL     1      -0.219 -16.032  10.552  1.00  0.00     0.165 HD
HETATM   13  C17 UNL     1      -0.382 -16.482   8.579  1.00  0.00     0.112 A 
HETATM   14  C18 UNL     1      -0.647 -16.046   7.299  1.00  0.00     0.050 A 
HETATM   15 CL1  UNL     1      -0.591 -17.117   5.908  1.00  0.00    -0.083 Cl
HETATM   16  C19 UNL     1      -0.970 -14.730   7.082  1.00  0.00     0.035 A 
HETATM   17  C20 UNL     1      -1.011 -13.885   8.198  1.00  0.00    -0.024 A 
ENDROOT
BRANCH   9  18
HETATM   18  C10 UNL     1       0.273 -12.444  10.708  1.00  0.00     0.250 C 
BRANCH  18  19
HETATM   19  N1  UNL     1       1.332 -13.336  10.979  1.00  0.00    -0.071 N 
ATOM     20  H12 UNL     1       1.562 -13.344  11.973  1.00  0.00     0.277 HD
ATOM     21  H11 UNL     1       1.034 -14.305  10.875  1.00  0.00     0.277 HD
BRANCH  19  22
HETATM   22  C11 UNL     1       2.484 -13.060  10.182  1.00  0.00     0.266 C 
BRANCH  22  23
HETATM   23  C12 UNL     1       2.572 -13.648   8.830  1.00  0.00     0.178 C 
HETATM   24  C13 UNL     1       3.380 -12.716   7.901  1.00  0.00     0.041 C 
HETATM   25  C14 UNL     1       4.820 -12.719   8.370  1.00  0.00     0.049 C 
HETATM   26  C15 UNL     1       5.332 -14.103   8.449  1.00  0.00     0.087 C 
HETATM   27  N2  UNL     1       4.540 -15.075   8.604  1.00  0.00    -0.281 N 
HETATM   28  O1  UNL     1       3.200 -14.882   8.701  1.00  0.00    -0.274 OA
ATOM     29  H2  UNL     1       4.915 -16.023   8.656  1.00  0.00     0.193 HD
ENDBRANCH  22  23
ENDBRANCH  19  22
ENDBRANCH  18  19
ENDBRANCH   9  18
TORSDOF 4
ENDMDL
