MODEL 1
REMARK VINA RESULT: -7.599111880      0.000      0.000
REMARK  4 active torsions:
REMARK  status: ('A' for Active; 'I' for Inactive)
REMARK    1  A    between atoms: C1_2  and  C2_3 
REMARK       I    between atoms: C1_2  and  N1_11 
REMARK    2  A    between atoms: C2_3  and  C3_4 
REMARK    3  A    between atoms: C3_4  and  C4_5 
REMARK    4  A    between atoms: N1_11  and  C10_13 
ROOT
HETATM    1  O1  UNL     1      -1.633 -15.796   5.195  1.00  0.00    -0.273 OA
HETATM    2  C1  UNL     1      -0.905 -16.460   5.962  1.00  0.00     0.222 C 
HETATM    3  N1  UNL     1      -0.853 -17.852   5.951  1.00  0.00    -0.326 N 
ATOM      4  H1  UNL     1      -0.218 -18.281   6.624  1.00  0.00     0.169 HD
ENDROOT
BRANCH   3   5
HETATM    5  C10 UNL     1      -1.572 -18.741   5.123  1.00  0.00     0.055 A 
HETATM    6  C11 UNL     1      -2.735 -19.382   5.451  1.00  0.00     0.070 A 
HETATM    7  C12 UNL     1      -3.409 -20.254   4.593  1.00  0.00     0.107 A 
HETATM    8  C13 UNL     1      -2.911 -20.509   3.348  1.00  0.00     0.106 A 
HETATM    9  O3  UNL     1      -4.573 -21.002   4.699  1.00  0.00    -0.323 OA
HETATM   10  C14 UNL     1      -1.744 -19.882   2.987  1.00  0.00     0.061 A 
HETATM   11  O2  UNL     1      -3.756 -21.403   2.692  1.00  0.00    -0.323 OA
HETATM   12  C15 UNL     1      -1.083 -19.022   3.837  1.00  0.00     0.040 A 
HETATM   13 BR1  UNL     1       0.527 -18.175   3.299  1.00  0.00    -0.049 Br
HETATM   14  C16 UNL     1      -4.531 -22.031   3.703  1.00  0.00     0.352 C 
ENDBRANCH   3   5
BRANCH   2  15
HETATM   15  C2  UNL     1      -0.021 -15.739   6.962  1.00  0.00     0.103 C 
BRANCH  15  16
HETATM   16  C3  UNL     1      -0.871 -14.694   7.633  1.00  0.00     0.014 C 
BRANCH  16  17
HETATM   17  C4  UNL     1       0.085 -13.591   8.100  1.00  0.00    -0.014 C 
HETATM   18  C5  UNL     1       0.943 -13.115   6.931  1.00  0.00     0.004 C 
HETATM   19  C6  UNL     1       1.993 -12.197   7.523  1.00  0.00     0.000 C 
HETATM   20  C7  UNL     1       1.302 -10.976   8.042  1.00  0.00     0.000 C 
HETATM   21  C8  UNL     1      -0.176 -11.096   8.155  1.00  0.00     0.000 C 
HETATM   22  C9  UNL     1      -0.647 -12.424   8.687  1.00  0.00     0.004 C 
ENDBRANCH  16  17
ENDBRANCH  15  16
ENDBRANCH   2  15
TORSDOF 4
ENDMDL
MODEL 2
REMARK VINA RESULT: -7.433351744      0.217      1.105
REMARK  4 active torsions:
REMARK  status: ('A' for Active; 'I' for Inactive)
REMARK    1  A    between atoms: C1_2  and  C2_3 
REMARK       I    between atoms: C1_2  and  N1_11 
REMARK    2  A    between atoms: C2_3  and  C3_4 
REMARK    3  A    between atoms: C3_4  and  C4_5 
REMARK    4  A    between atoms: N1_11  and  C10_13 
ROOT
HETATM    1  O1  UNL     1      -1.625 -15.776   5.229  1.00  0.00    -0.273 OA
HETATM    2  C1  UNL     1      -0.872 -16.439   5.972  1.00  0.00     0.222 C 
HETATM    3  N1  UNL     1      -0.815 -17.831   5.952  1.00  0.00    -0.326 N 
ATOM      4  H1  UNL     1      -0.159 -18.261   6.605  1.00  0.00     0.169 HD
ENDROOT
BRANCH   3   5
HETATM    5  C10 UNL     1      -1.551 -18.720   5.139  1.00  0.00     0.055 A 
HETATM    6  C11 UNL     1      -2.713 -19.350   5.485  1.00  0.00     0.070 A 
HETATM    7  C12 UNL     1      -3.406 -20.223   4.642  1.00  0.00     0.107 A 
HETATM    8  C13 UNL     1      -2.926 -20.487   3.391  1.00  0.00     0.106 A 
HETATM    9  O3  UNL     1      -4.573 -20.962   4.768  1.00  0.00    -0.323 OA
HETATM   10  C14 UNL     1      -1.761 -19.870   3.011  1.00  0.00     0.061 A 
HETATM   11  O2  UNL     1      -3.787 -21.378   2.752  1.00  0.00    -0.323 OA
HETATM   12  C15 UNL     1      -1.081 -19.010   3.847  1.00  0.00     0.040 A 
HETATM   13 BR1  UNL     1       0.527 -18.177   3.282  1.00  0.00    -0.049 Br
HETATM   14  C16 UNL     1      -4.552 -21.996   3.777  1.00  0.00     0.352 C 
ENDBRANCH   3   5
BRANCH   2  15
HETATM   15  C2  UNL     1       0.034 -15.720   6.952  1.00  0.00     0.103 C 
BRANCH  15  16
HETATM   16  C3  UNL     1      -0.840 -14.832   7.796  1.00  0.00     0.014 C 
BRANCH  16  17
HETATM   17  C4  UNL     1      -0.385 -13.394   7.527  1.00  0.00    -0.014 C 
HETATM   18  C5  UNL     1      -0.388 -12.594   8.827  1.00  0.00     0.004 C 
HETATM   19  C6  UNL     1      -0.142 -11.151   8.436  1.00  0.00     0.000 C 
HETATM   20  C7  UNL     1       1.251 -11.046   7.902  1.00  0.00     0.000 C 
HETATM   21  C8  UNL     1       1.896 -12.348   7.583  1.00  0.00     0.000 C 
HETATM   22  C9  UNL     1       0.981 -13.341   6.916  1.00  0.00     0.004 C 
ENDBRANCH  16  17
ENDBRANCH  15  16
ENDBRANCH   2  15
TORSDOF 4
ENDMDL
MODEL 3
REMARK VINA RESULT: -7.306884080      2.627      8.280
REMARK  4 active torsions:
REMARK  status: ('A' for Active; 'I' for Inactive)
REMARK    1  A    between atoms: C1_2  and  C2_3 
REMARK       I    between atoms: C1_2  and  N1_11 
REMARK    2  A    between atoms: C2_3  and  C3_4 
REMARK    3  A    between atoms: C3_4  and  C4_5 
REMARK    4  A    between atoms: N1_11  and  C10_13 
ROOT
HETATM    1  O1  UNL     1      -3.085 -17.443   4.438  1.00  0.00    -0.273 OA
HETATM    2  C1  UNL     1      -2.598 -18.557   4.723  1.00  0.00     0.222 C 
HETATM    3  N1  UNL     1      -1.792 -18.775   5.838  1.00  0.00    -0.326 N 
ATOM      4  H1  UNL     1      -1.455 -19.729   5.966  1.00  0.00     0.169 HD
ENDROOT
BRANCH   3   5
HETATM    5  C10 UNL     1      -1.386 -17.839   6.813  1.00  0.00     0.055 A 
HETATM    6  C11 UNL     1      -0.594 -16.746   6.595  1.00  0.00     0.070 A 
HETATM    7  C12 UNL     1      -0.220 -15.846   7.597  1.00  0.00     0.107 A 
HETATM    8  C13 UNL     1      -0.648 -16.035   8.879  1.00  0.00     0.106 A 
HETATM    9  O3  UNL     1       0.555 -14.695   7.618  1.00  0.00    -0.323 OA
HETATM   10  C14 UNL     1      -1.445 -17.124   9.131  1.00  0.00     0.061 A 
HETATM   11  O2  UNL     1      -0.144 -15.014   9.683  1.00  0.00    -0.323 OA
HETATM   12  C15 UNL     1      -1.811 -18.008   8.141  1.00  0.00     0.040 A 
HETATM   13 BR1  UNL     1      -2.914 -19.500   8.532  1.00  0.00    -0.049 Br
HETATM   14  C16 UNL     1       0.951 -14.452   8.973  1.00  0.00     0.352 C 
ENDBRANCH   3   5
BRANCH   2  15
HETATM   15  C2  UNL     1      -2.884 -19.748   3.827  1.00  0.00     0.103 C 
BRANCH  15  16
HETATM   16  C3  UNL     1      -3.012 -20.954   4.720  1.00  0.00     0.014 C 
BRANCH  16  17
HETATM   17  C4  UNL     1      -4.450 -21.458   4.564  1.00  0.00    -0.014 C 
HETATM   18  C5  UNL     1      -5.287 -21.027   5.765  1.00  0.00     0.004 C 
HETATM   19  C6  UNL     1      -6.615 -21.745   5.634  1.00  0.00     0.000 C 
HETATM   20  C7  UNL     1      -7.321 -21.200   4.434  1.00  0.00     0.000 C 
HETATM   21  C8  UNL     1      -6.469 -20.389   3.524  1.00  0.00     0.000 C 
HETATM   22  C9  UNL     1      -5.089 -20.954   3.307  1.00  0.00     0.004 C 
ENDBRANCH  16  17
ENDBRANCH  15  16
ENDBRANCH   2  15
TORSDOF 4
ENDMDL
MODEL 4
REMARK VINA RESULT: -7.257845558      0.969      1.422
REMARK  4 active torsions:
REMARK  status: ('A' for Active; 'I' for Inactive)
REMARK    1  A    between atoms: C1_2  and  C2_3 
REMARK       I    between atoms: C1_2  and  N1_11 
REMARK    2  A    between atoms: C2_3  and  C3_4 
REMARK    3  A    between atoms: C3_4  and  C4_5 
REMARK    4  A    between atoms: N1_11  and  C10_13 
ROOT
HETATM    1  O1  UNL     1      -1.650 -15.865   5.318  1.00  0.00    -0.273 OA
HETATM    2  C1  UNL     1      -0.935 -16.549   6.078  1.00  0.00     0.222 C 
HETATM    3  N1  UNL     1      -0.892 -17.941   6.037  1.00  0.00    -0.326 N 
ATOM      4  H1  UNL     1      -0.268 -18.389   6.708  1.00  0.00     0.169 HD
ENDROOT
BRANCH   3   5
HETATM    5  C10 UNL     1      -1.605 -18.808   5.181  1.00  0.00     0.055 A 
HETATM    6  C11 UNL     1      -2.768 -19.460   5.485  1.00  0.00     0.070 A 
HETATM    7  C12 UNL     1      -3.437 -20.308   4.600  1.00  0.00     0.107 A 
HETATM    8  C13 UNL     1      -2.933 -20.526   3.350  1.00  0.00     0.106 A 
HETATM    9  O3  UNL     1      -4.599 -21.062   4.679  1.00  0.00    -0.323 OA
HETATM   10  C14 UNL     1      -1.766 -19.886   3.013  1.00  0.00     0.061 A 
HETATM   11  O2  UNL     1      -3.773 -21.402   2.665  1.00  0.00    -0.323 OA
HETATM   12  C15 UNL     1      -1.110 -19.050   3.889  1.00  0.00     0.040 A 
HETATM   13 BR1  UNL     1       0.500 -18.185   3.383  1.00  0.00    -0.049 Br
HETATM   14  C16 UNL     1      -4.552 -22.061   3.655  1.00  0.00     0.352 C 
ENDBRANCH   3   5
BRANCH   2  15
HETATM   15  C2  UNL     1      -0.060 -15.856   7.105  1.00  0.00     0.103 C 
BRANCH  15  16
HETATM   16  C3  UNL     1      -0.126 -14.380   6.820  1.00  0.00     0.014 C 
BRANCH  16  17
HETATM   17  C4  UNL     1       0.778 -13.698   7.853  1.00  0.00    -0.014 C 
HETATM   18  C5  UNL     1       1.791 -14.699   8.402  1.00  0.00     0.004 C 
HETATM   19  C6  UNL     1       2.486 -14.007   9.557  1.00  0.00     0.000 C 
HETATM   20  C7  UNL     1       3.295 -12.878   9.002  1.00  0.00     0.000 C 
HETATM   21  C8  UNL     1       2.978 -12.517   7.595  1.00  0.00     0.000 C 
HETATM   22  C9  UNL     1       1.506 -12.523   7.275  1.00  0.00     0.004 C 
ENDBRANCH  16  17
ENDBRANCH  15  16
ENDBRANCH   2  15
TORSDOF 4
ENDMDL
MODEL 5
REMARK VINA RESULT: -7.252339159      1.547      2.027
REMARK  4 active torsions:
REMARK  status: ('A' for Active; 'I' for Inactive)
REMARK    1  A    between atoms: C1_2  and  C2_3 
REMARK       I    between atoms: C1_2  and  N1_11 
REMARK    2  A    between atoms: C2_3  and  C3_4 
REMARK    3  A    between atoms: C3_4  and  C4_5 
REMARK    4  A    between atoms: N1_11  and  C10_13 
ROOT
HETATM    1  O1  UNL     1      -1.231 -15.699   5.396  1.00  0.00    -0.273 OA
HETATM    2  C1  UNL     1      -0.822 -16.330   6.393  1.00  0.00     0.222 C 
HETATM    3  N1  UNL     1      -0.966 -17.708   6.535  1.00  0.00    -0.326 N 
ATOM      4  H1  UNL     1      -0.589 -18.111   7.393  1.00  0.00     0.169 HD
ENDROOT
BRANCH   3   5
HETATM    5  C10 UNL     1      -1.567 -18.616   5.637  1.00  0.00     0.055 A 
HETATM    6  C11 UNL     1      -1.196 -18.825   4.337  1.00  0.00     0.070 A 
HETATM    7  C12 UNL     1      -1.826 -19.738   3.487  1.00  0.00     0.107 A 
HETATM    8  C13 UNL     1      -2.875 -20.483   3.942  1.00  0.00     0.106 A 
HETATM    9  O3  UNL     1      -1.634 -20.115   2.166  1.00  0.00    -0.323 OA
HETATM   10  C14 UNL     1      -3.273 -20.298   5.243  1.00  0.00     0.061 A 
HETATM   11  O2  UNL     1      -3.327 -21.311   2.915  1.00  0.00    -0.323 OA
HETATM   12  C15 UNL     1      -2.649 -19.396   6.077  1.00  0.00     0.040 A 
HETATM   13 BR1  UNL     1      -3.230 -19.170   7.869  1.00  0.00    -0.049 Br
HETATM   14  C16 UNL     1      -2.834 -20.749   1.707  1.00  0.00     0.352 C 
ENDBRANCH   3   5
BRANCH   2  15
HETATM   15  C2  UNL     1      -0.130 -15.583   7.517  1.00  0.00     0.103 C 
BRANCH  15  16
HETATM   16  C3  UNL     1      -0.906 -14.315   7.752  1.00  0.00     0.014 C 
BRANCH  16  17
HETATM   17  C4  UNL     1       0.116 -13.253   8.170  1.00  0.00    -0.014 C 
HETATM   18  C5  UNL     1       0.989 -12.870   6.978  1.00  0.00     0.004 C 
HETATM   19  C6  UNL     1       2.095 -11.993   7.528  1.00  0.00     0.000 C 
HETATM   20  C7  UNL     1       1.480 -10.715   8.004  1.00  0.00     0.000 C 
HETATM   21  C8  UNL     1      -0.001 -10.746   8.131  1.00  0.00     0.000 C 
HETATM   22  C9  UNL     1      -0.543 -12.024   8.717  1.00  0.00     0.004 C 
ENDBRANCH  16  17
ENDBRANCH  15  16
ENDBRANCH   2  15
TORSDOF 4
ENDMDL
