MODEL 1
REMARK VINA RESULT: -5.979169122      0.000      0.000
REMARK  5 active torsions:
REMARK  status: ('A' for Active; 'I' for Inactive)
REMARK    1  A    between atoms: C2_2  and  C4_4 
REMARK    2  A    between atoms: C4_4  and  N1_5 
REMARK    3  A    between atoms: C4_4  and  C11_14 
REMARK    4  A    between atoms: N1_5  and  C5_7 
REMARK    5  A    between atoms: C5_7  and  C8_10 
ROOT
HETATM    1  C11 UNL     1      -0.858 -16.786   7.754  1.00  0.00     0.048 A 
HETATM    2  C12 UNL     1      -0.480 -16.488   6.486  1.00  0.00     0.104 A 
HETATM    3  N2  UNL     1      -0.955 -17.276   5.469  1.00  0.00    -0.354 N 
ATOM      4  H2  UNL     1      -0.681 -17.067   4.509  1.00  0.00     0.166 HD
HETATM    5  C13 UNL     1      -1.770 -18.314   5.706  1.00  0.00     0.089 A 
HETATM    6  N3  UNL     1      -2.154 -18.631   6.930  1.00  0.00    -0.282 N 
HETATM    7  C14 UNL     1      -1.695 -17.863   7.939  1.00  0.00     0.262 A 
HETATM    8  O1  UNL     1      -2.041 -18.141   9.118  1.00  0.00    -0.267 OA
HETATM    9  C15 UNL     1      -2.957 -19.668   7.497  1.00  0.00     0.074 C 
HETATM   10  C16 UNL     1      -3.616 -20.655   6.669  1.00  0.00     0.045 C 
HETATM   11  C17 UNL     1      -3.076 -20.950   5.314  1.00  0.00     0.006 C 
HETATM   12  C18 UNL     1      -3.395 -19.725   4.449  1.00  0.00     0.008 C 
HETATM   13  C19 UNL     1      -2.104 -18.950   4.434  1.00  0.00     0.077 C 
ENDROOT
BRANCH   1  14
HETATM   14  C4  UNL     1      -0.467 -15.904   8.927  1.00  0.00     0.121 C 
BRANCH  14  15
HETATM   15  C2  UNL     1       0.820 -16.405   9.464  1.00  0.00     0.004 C 
HETATM   16  C1  UNL     1       0.797 -16.371  11.019  1.00  0.00     0.012 C 
HETATM   17  C3  UNL     1       2.114 -15.815   9.047  1.00  0.00     0.012 C 
ENDBRANCH  14  15
BRANCH  14  18
HETATM   18  N1  UNL     1      -0.446 -14.605   8.464  1.00  0.00    -0.403 N 
ATOM     19  H1  UNL     1      -0.205 -14.552   7.475  1.00  0.00     0.154 HD
BRANCH  18  20
HETATM   20  C5  UNL     1      -0.669 -13.375   9.008  1.00  0.00     0.039 C 
HETATM   21  C6  UNL     1      -2.056 -12.788   8.575  1.00  0.00     0.039 C 
HETATM   22  C7  UNL     1      -0.735 -13.148  10.509  1.00  0.00     0.039 C 
BRANCH  20  23
HETATM   23  C8  UNL     1       0.386 -12.401   8.429  1.00  0.00     0.054 C 
HETATM   24  C9  UNL     1      -0.105 -10.997   8.305  1.00  0.00     0.035 C 
HETATM   25  C10 UNL     1       0.989 -12.854   7.161  1.00  0.00     0.035 C 
HETATM   26 CL1  UNL     1       1.743 -12.313   9.631  1.00  0.00    -0.117 Cl
ENDBRANCH  20  23
ENDBRANCH  18  20
ENDBRANCH  14  18
ENDBRANCH   1  14
TORSDOF 5
ENDMDL
MODEL 2
REMARK VINA RESULT: -5.900315483      4.334      7.817
REMARK  5 active torsions:
REMARK  status: ('A' for Active; 'I' for Inactive)
REMARK    1  A    between atoms: C2_2  and  C4_4 
REMARK    2  A    between atoms: C4_4  and  N1_5 
REMARK    3  A    between atoms: C4_4  and  C11_14 
REMARK    4  A    between atoms: N1_5  and  C5_7 
REMARK    5  A    between atoms: C5_7  and  C8_10 
ROOT
HETATM    1  C11 UNL     1       3.470 -11.428   8.727  1.00  0.00     0.048 A 
HETATM    2  C12 UNL     1       3.724 -10.409   7.869  1.00  0.00     0.104 A 
HETATM    3  N2  UNL     1       4.782 -10.538   7.006  1.00  0.00    -0.354 N 
ATOM      4  H2  UNL     1       4.987  -9.781   6.354  1.00  0.00     0.166 HD
HETATM    5  C13 UNL     1       5.552 -11.635   6.999  1.00  0.00     0.089 A 
HETATM    6  N3  UNL     1       5.332 -12.644   7.824  1.00  0.00    -0.282 N 
HETATM    7  C14 UNL     1       4.295 -12.529   8.677  1.00  0.00     0.262 A 
HETATM    8  O1  UNL     1       4.061 -13.473   9.477  1.00  0.00    -0.267 OA
HETATM    9  C15 UNL     1       5.978 -13.893   8.082  1.00  0.00     0.074 C 
HETATM   10  C16 UNL     1       7.126 -14.326   7.315  1.00  0.00     0.045 C 
HETATM   11  C17 UNL     1       7.974 -13.311   6.633  1.00  0.00     0.006 C 
HETATM   12  C18 UNL     1       7.145 -12.778   5.459  1.00  0.00     0.008 C 
HETATM   13  C19 UNL     1       6.583 -11.480   5.976  1.00  0.00     0.077 C 
ENDROOT
BRANCH   1  14
HETATM   14  C4  UNL     1       2.258 -11.414   9.641  1.00  0.00     0.121 C 
BRANCH  14  15
HETATM   15  C2  UNL     1       1.998 -10.009  10.031  1.00  0.00     0.004 C 
HETATM   16  C1  UNL     1       2.228  -9.829  11.558  1.00  0.00     0.012 C 
HETATM   17  C3  UNL     1       0.710  -9.345   9.717  1.00  0.00     0.012 C 
ENDBRANCH  14  15
BRANCH  14  18
HETATM   18  N1  UNL     1       1.233 -12.035   8.958  1.00  0.00    -0.403 N 
ATOM     19  H1  UNL     1       1.104 -11.651   8.023  1.00  0.00     0.154 HD
BRANCH  18  20
HETATM   20  C5  UNL     1       0.351 -13.038   9.231  1.00  0.00     0.039 C 
HETATM   21  C6  UNL     1       0.766 -13.850  10.507  1.00  0.00     0.039 C 
HETATM   22  C7  UNL     1      -1.112 -12.774   9.542  1.00  0.00     0.039 C 
BRANCH  20  23
HETATM   23  C8  UNL     1       0.410 -14.053   8.064  1.00  0.00     0.054 C 
HETATM   24  C9  UNL     1      -0.930 -14.567   7.654  1.00  0.00     0.035 C 
HETATM   25  C10 UNL     1       1.348 -15.170   8.286  1.00  0.00     0.035 C 
HETATM   26 CL1  UNL     1       1.027 -13.156   6.612  1.00  0.00    -0.117 Cl
ENDBRANCH  20  23
ENDBRANCH  18  20
ENDBRANCH  14  18
ENDBRANCH   1  14
TORSDOF 5
ENDMDL
MODEL 3
REMARK VINA RESULT: -5.879263146      5.188      8.078
REMARK  5 active torsions:
REMARK  status: ('A' for Active; 'I' for Inactive)
REMARK    1  A    between atoms: C2_2  and  C4_4 
REMARK    2  A    between atoms: C4_4  and  N1_5 
REMARK    3  A    between atoms: C4_4  and  C11_14 
REMARK    4  A    between atoms: N1_5  and  C5_7 
REMARK    5  A    between atoms: C5_7  and  C8_10 
ROOT
HETATM    1  C11 UNL     1       3.771 -10.819   8.324  1.00  0.00     0.048 A 
HETATM    2  C12 UNL     1       4.263  -9.932   7.423  1.00  0.00     0.104 A 
HETATM    3  N2  UNL     1       5.330 -10.319   6.652  1.00  0.00    -0.354 N 
ATOM      4  H2  UNL     1       5.713  -9.665   5.970  1.00  0.00     0.166 HD
HETATM    5  C13 UNL     1       5.880 -11.535   6.775  1.00  0.00     0.089 A 
HETATM    6  N3  UNL     1       5.425 -12.420   7.644  1.00  0.00    -0.282 N 
HETATM    7  C14 UNL     1       4.376 -12.052   8.407  1.00  0.00     0.262 A 
HETATM    8  O1  UNL     1       3.921 -12.873   9.247  1.00  0.00    -0.267 OA
HETATM    9  C15 UNL     1       5.809 -13.742   8.030  1.00  0.00     0.074 C 
HETATM   10  C16 UNL     1       6.900 -14.435   7.381  1.00  0.00     0.045 C 
HETATM   11  C17 UNL     1       7.963 -13.647   6.700  1.00  0.00     0.006 C 
HETATM   12  C18 UNL     1       7.323 -13.065   5.435  1.00  0.00     0.008 C 
HETATM   13  C19 UNL     1       6.983 -11.650   5.824  1.00  0.00     0.077 C 
ENDROOT
BRANCH   1  14
HETATM   14  C4  UNL     1       2.528 -10.514   9.141  1.00  0.00     0.121 C 
BRANCH  14  15
HETATM   15  C2  UNL     1       2.455  -9.046   9.328  1.00  0.00     0.004 C 
HETATM   16  C1  UNL     1       2.780  -8.680  10.804  1.00  0.00     0.012 C 
HETATM   17  C3  UNL     1       1.241  -8.279   8.960  1.00  0.00     0.012 C 
ENDBRANCH  14  15
BRANCH  14  18
HETATM   18  N1  UNL     1       1.461 -11.076   8.474  1.00  0.00    -0.403 N 
ATOM     19  H1  UNL     1       1.560 -11.011   7.462  1.00  0.00     0.154 HD
BRANCH  18  20
HETATM   20  C5  UNL     1       0.304 -11.700   8.841  1.00  0.00     0.039 C 
HETATM   21  C6  UNL     1       0.196 -11.861  10.397  1.00  0.00     0.039 C 
HETATM   22  C7  UNL     1      -1.065 -11.121   8.532  1.00  0.00     0.039 C 
BRANCH  20  23
HETATM   23  C8  UNL     1       0.344 -13.142   8.282  1.00  0.00     0.054 C 
HETATM   24  C9  UNL     1       0.916 -14.135   9.238  1.00  0.00     0.035 C 
HETATM   25  C10 UNL     1       0.996 -13.258   6.963  1.00  0.00     0.035 C 
HETATM   26 CL1  UNL     1      -1.377 -13.667   8.043  1.00  0.00    -0.117 Cl
ENDBRANCH  20  23
ENDBRANCH  18  20
ENDBRANCH  14  18
ENDBRANCH   1  14
TORSDOF 5
ENDMDL
MODEL 4
REMARK VINA RESULT: -5.812778848      4.443      7.702
REMARK  5 active torsions:
REMARK  status: ('A' for Active; 'I' for Inactive)
REMARK    1  A    between atoms: C2_2  and  C4_4 
REMARK    2  A    between atoms: C4_4  and  N1_5 
REMARK    3  A    between atoms: C4_4  and  C11_14 
REMARK    4  A    between atoms: N1_5  and  C5_7 
REMARK    5  A    between atoms: C5_7  and  C8_10 
ROOT
HETATM    1  C11 UNL     1       3.839 -12.903   8.997  1.00  0.00     0.048 A 
HETATM    2  C12 UNL     1       3.614 -11.768   8.289  1.00  0.00     0.104 A 
HETATM    3  N2  UNL     1       4.531 -11.407   7.336  1.00  0.00    -0.354 N 
ATOM      4  H2  UNL     1       4.378 -10.556   6.795  1.00  0.00     0.166 HD
HETATM    5  C13 UNL     1       5.625 -12.146   7.099  1.00  0.00     0.089 A 
HETATM    6  N3  UNL     1       5.874 -13.256   7.772  1.00  0.00    -0.282 N 
HETATM    7  C14 UNL     1       4.978 -13.621   8.712  1.00  0.00     0.262 A 
HETATM    8  O1  UNL     1       5.189 -14.673   9.373  1.00  0.00    -0.267 OA
HETATM    9  C15 UNL     1       6.937 -14.210   7.783  1.00  0.00     0.074 C 
HETATM   10  C16 UNL     1       8.055 -14.110   6.870  1.00  0.00     0.045 C 
HETATM   11  C17 UNL     1       8.407 -12.786   6.288  1.00  0.00     0.006 C 
HETATM   12  C18 UNL     1       7.301 -12.453   5.280  1.00  0.00     0.008 C 
HETATM   13  C19 UNL     1       6.399 -11.512   6.035  1.00  0.00     0.077 C 
ENDROOT
BRANCH   1  14
HETATM   14  C4  UNL     1       2.824 -13.432   9.994  1.00  0.00     0.121 C 
BRANCH  14  15
HETATM   15  C2  UNL     1       2.730 -12.459  11.108  1.00  0.00     0.004 C 
HETATM   16  C1  UNL     1       3.457 -13.017  12.365  1.00  0.00     0.012 C 
HETATM   17  C3  UNL     1       1.422 -11.939  11.572  1.00  0.00     0.012 C 
ENDBRANCH  14  15
BRANCH  14  18
HETATM   18  N1  UNL     1       1.652 -13.647   9.300  1.00  0.00    -0.403 N 
ATOM     19  H1  UNL     1       1.263 -12.783   8.924  1.00  0.00     0.154 HD
BRANCH  18  20
HETATM   20  C5  UNL     1       0.888 -14.734   8.994  1.00  0.00     0.039 C 
HETATM   21  C6  UNL     1       1.746 -15.898   8.389  1.00  0.00     0.039 C 
HETATM   22  C7  UNL     1       0.099 -15.496  10.044  1.00  0.00     0.039 C 
BRANCH  20  23
HETATM   23  C8  UNL     1      -0.094 -14.324   7.870  1.00  0.00     0.054 C 
HETATM   24  C9  UNL     1      -1.224 -13.475   8.348  1.00  0.00     0.035 C 
HETATM   25  C10 UNL     1      -0.598 -15.456   7.069  1.00  0.00     0.035 C 
HETATM   26 CL1  UNL     1       0.828 -13.263   6.721  1.00  0.00    -0.117 Cl
ENDBRANCH  20  23
ENDBRANCH  18  20
ENDBRANCH  14  18
ENDBRANCH   1  14
TORSDOF 5
ENDMDL
MODEL 5
REMARK VINA RESULT: -5.788909144      1.193      1.390
REMARK  5 active torsions:
REMARK  status: ('A' for Active; 'I' for Inactive)
REMARK    1  A    between atoms: C2_2  and  C4_4 
REMARK    2  A    between atoms: C4_4  and  N1_5 
REMARK    3  A    between atoms: C4_4  and  C11_14 
REMARK    4  A    between atoms: N1_5  and  C5_7 
REMARK    5  A    between atoms: C5_7  and  C8_10 
ROOT
HETATM    1  C11 UNL     1      -0.732 -16.608   8.341  1.00  0.00     0.048 A 
HETATM    2  C12 UNL     1      -0.177 -16.141   7.195  1.00  0.00     0.104 A 
HETATM    3  N2  UNL     1      -0.514 -16.755   6.016  1.00  0.00    -0.354 N 
ATOM      4  H2  UNL     1      -0.105 -16.417   5.145  1.00  0.00     0.166 HD
HETATM    5  C13 UNL     1      -1.367 -17.789   5.982  1.00  0.00     0.089 A 
HETATM    6  N3  UNL     1      -1.923 -18.268   7.081  1.00  0.00    -0.282 N 
HETATM    7  C14 UNL     1      -1.600 -17.673   8.246  1.00  0.00     0.262 A 
HETATM    8  O1  UNL     1      -2.112 -18.108   9.311  1.00  0.00    -0.267 OA
HETATM    9  C15 UNL     1      -2.810 -19.350   7.370  1.00  0.00     0.074 C 
HETATM   10  C16 UNL     1      -3.359 -20.183   6.322  1.00  0.00     0.045 C 
HETATM   11  C17 UNL     1      -2.638 -20.294   5.025  1.00  0.00     0.006 C 
HETATM   12  C18 UNL     1      -2.818 -18.946   4.317  1.00  0.00     0.008 C 
HETATM   13  C19 UNL     1      -1.528 -18.220   4.596  1.00  0.00     0.077 C 
ENDROOT
BRANCH   1  14
HETATM   14  C4  UNL     1      -0.498 -15.921   9.674  1.00  0.00     0.121 C 
BRANCH  14  15
HETATM   15  C2  UNL     1       0.822 -16.357  10.186  1.00  0.00     0.004 C 
HETATM   16  C1  UNL     1       0.718 -16.713  11.696  1.00  0.00     0.012 C 
HETATM   17  C3  UNL     1       2.029 -15.509  10.034  1.00  0.00     0.012 C 
ENDBRANCH  14  15
BRANCH  14  18
HETATM   18  N1  UNL     1      -0.627 -14.566   9.457  1.00  0.00    -0.403 N 
ATOM     19  H1  UNL     1      -0.312 -14.293   8.526  1.00  0.00     0.154 HD
BRANCH  18  20
HETATM   20  C5  UNL     1      -1.074 -13.502  10.184  1.00  0.00     0.039 C 
HETATM   21  C6  UNL     1      -2.491 -13.770  10.799  1.00  0.00     0.039 C 
HETATM   22  C7  UNL     1      -0.339 -12.986  11.408  1.00  0.00     0.039 C 
BRANCH  20  23
HETATM   23  C8  UNL     1      -1.269 -12.312   9.213  1.00  0.00     0.054 C 
HETATM   24  C9  UNL     1      -0.922 -10.991   9.814  1.00  0.00     0.035 C 
HETATM   25  C10 UNL     1      -2.603 -12.262   8.585  1.00  0.00     0.035 C 
HETATM   26 CL1  UNL     1      -0.080 -12.531   7.859  1.00  0.00    -0.117 Cl
ENDBRANCH  20  23
ENDBRANCH  18  20
ENDBRANCH  14  18
ENDBRANCH   1  14
TORSDOF 5
ENDMDL
