MODEL 1
REMARK VINA RESULT: -6.152951613      0.000      0.000
REMARK  5 active torsions:
REMARK  status: ('A' for Active; 'I' for Inactive)
REMARK    1  A    between atoms: C2_2  and  C3_3 
REMARK    2  A    between atoms: C3_3  and  C4_4 
REMARK    3  A    between atoms: C12_14  and  C13_15 
REMARK    4  A    between atoms: C13_15  and  C14_16 
REMARK    5  A    between atoms: C17_21  and  O4_22 
ROOT
HETATM    1  C4  UNL     1       2.633 -12.905   8.071  1.00  0.00     0.021 C 
HETATM    2  C5  UNL     1       2.118 -11.732   7.343  1.00  0.00     0.012 C 
HETATM    3  C6  UNL     1       1.689 -10.550   8.169  1.00  0.00    -0.018 C 
HETATM    4  C7  UNL     1       0.161 -10.547   8.339  1.00  0.00     0.010 C 
HETATM    5  C8  UNL     1       2.343 -10.423   9.500  1.00  0.00     0.007 C 
HETATM    6  C9  UNL     1       2.502 -11.758  10.202  1.00  0.00     0.039 C 
HETATM    7  C10 UNL     1       3.460 -12.542   9.286  1.00  0.00     0.073 C 
HETATM    8  O1  UNL     1       4.461 -11.685   8.989  1.00  0.00    -0.349 OA
HETATM    9  C11 UNL     1       5.603 -12.147   8.403  1.00  0.00     0.267 C 
HETATM   10  O2  UNL     1       5.576 -12.138   7.027  1.00  0.00    -0.355 OA
HETATM   11  C12 UNL     1       6.444 -13.092   6.537  1.00  0.00     0.133 C 
HETATM   12  C15 UNL     1       6.754 -14.058   7.621  1.00  0.00     0.044 C 
HETATM   13  C16 UNL     1       6.139 -13.447   8.867  1.00  0.00     0.072 C 
HETATM   14  C17 UNL     1       5.163 -14.391   9.456  1.00  0.00     0.133 C 
HETATM   15  C18 UNL     1       3.970 -13.681  10.069  1.00  0.00     0.046 C 
HETATM   16  C19 UNL     1       4.503 -13.106  11.398  1.00  0.00     0.016 C 
ENDROOT
BRANCH   1  17
HETATM   17  C3  UNL     1       1.598 -13.928   8.314  1.00  0.00     0.007 C 
BRANCH  17  18
HETATM   18  C2  UNL     1       0.569 -13.945   7.220  1.00  0.00    -0.004 C 
HETATM   19  C1  UNL     1      -0.831 -14.180   7.781  1.00  0.00     0.005 C 
ENDBRANCH  17  18
ENDBRANCH   1  17
BRANCH  14  20
HETATM   20  O4  UNL     1       4.746 -15.416   8.585  1.00  0.00    -0.395 OA
ATOM     21  H4  UNL     1       3.958 -15.869   8.860  1.00  0.00     0.210 HD
ENDBRANCH  14  20
BRANCH  11  22
HETATM   22  C13 UNL     1       7.682 -12.536   5.924  1.00  0.00     0.128 C 
BRANCH  22  23
HETATM   23  C14 UNL     1       8.876 -12.483   6.750  1.00  0.00     0.221 C 
HETATM   24  O3  UNL     1       9.062 -11.605   7.568  1.00  0.00    -0.280 OA
HETATM   25 CL1  UNL     1      10.118 -13.712   6.591  1.00  0.00    -0.044 Cl
ENDBRANCH  22  23
ENDBRANCH  11  22
TORSDOF 5
ENDMDL
MODEL 2
REMARK VINA RESULT: -5.976802342      1.179      1.230
REMARK  5 active torsions:
REMARK  status: ('A' for Active; 'I' for Inactive)
REMARK    1  A    between atoms: C2_2  and  C3_3 
REMARK    2  A    between atoms: C3_3  and  C4_4 
REMARK    3  A    between atoms: C12_14  and  C13_15 
REMARK    4  A    between atoms: C13_15  and  C14_16 
REMARK    5  A    between atoms: C17_21  and  O4_22 
ROOT
HETATM    1  C4  UNL     1       1.962 -13.249   8.192  1.00  0.00     0.021 C 
HETATM    2  C5  UNL     1       1.464 -12.024   7.542  1.00  0.00     0.012 C 
HETATM    3  C6  UNL     1       0.837 -10.985   8.431  1.00  0.00    -0.018 C 
HETATM    4  C7  UNL     1      -0.696 -11.093   8.374  1.00  0.00     0.010 C 
HETATM    5  C8  UNL     1       1.289 -10.992   9.848  1.00  0.00     0.007 C 
HETATM    6  C9  UNL     1       1.451 -12.395  10.402  1.00  0.00     0.039 C 
HETATM    7  C10 UNL     1       2.583 -12.997   9.549  1.00  0.00     0.073 C 
HETATM    8  O1  UNL     1       3.547 -12.052   9.506  1.00  0.00    -0.349 OA
HETATM    9  C11 UNL     1       4.792 -12.367   9.044  1.00  0.00     0.267 C 
HETATM   10  O2  UNL     1       4.954 -12.182   7.689  1.00  0.00    -0.355 OA
HETATM   11  C12 UNL     1       5.952 -13.013   7.222  1.00  0.00     0.133 C 
HETATM   12  C15 UNL     1       6.181 -14.090   8.216  1.00  0.00     0.044 C 
HETATM   13  C16 UNL     1       5.356 -13.682   9.423  1.00  0.00     0.072 C 
HETATM   14  C17 UNL     1       4.383 -14.750   9.746  1.00  0.00     0.133 C 
HETATM   15  C18 UNL     1       3.065 -14.196  10.258  1.00  0.00     0.046 C 
HETATM   16  C19 UNL     1       3.365 -13.767  11.709  1.00  0.00     0.016 C 
ENDROOT
BRANCH   1  17
HETATM   17  C3  UNL     1       0.984 -14.353   8.158  1.00  0.00     0.007 C 
BRANCH  17  18
HETATM   18  C2  UNL     1       0.137 -14.303   6.918  1.00  0.00    -0.004 C 
HETATM   19  C1  UNL     1      -0.623 -15.611   6.714  1.00  0.00     0.005 C 
ENDBRANCH  17  18
ENDBRANCH   1  17
BRANCH  14  20
HETATM   20  O4  UNL     1       4.170 -15.676   8.707  1.00  0.00    -0.395 OA
ATOM     21  H4  UNL     1       3.399 -16.221   8.818  1.00  0.00     0.210 HD
ENDBRANCH  14  20
BRANCH  11  22
HETATM   22  C13 UNL     1       7.216 -12.311   6.867  1.00  0.00     0.128 C 
BRANCH  22  23
HETATM   23  C14 UNL     1       8.114 -12.972   5.935  1.00  0.00     0.221 C 
HETATM   24  O3  UNL     1       7.764 -13.299   4.819  1.00  0.00    -0.280 OA
HETATM   25 CL1  UNL     1       9.767 -13.328   6.398  1.00  0.00    -0.044 Cl
ENDBRANCH  22  23
ENDBRANCH  11  22
TORSDOF 5
ENDMDL
MODEL 3
REMARK VINA RESULT: -5.844949537      1.927      2.606
REMARK  5 active torsions:
REMARK  status: ('A' for Active; 'I' for Inactive)
REMARK    1  A    between atoms: C2_2  and  C3_3 
REMARK    2  A    between atoms: C3_3  and  C4_4 
REMARK    3  A    between atoms: C12_14  and  C13_15 
REMARK    4  A    between atoms: C13_15  and  C14_16 
REMARK    5  A    between atoms: C17_21  and  O4_22 
ROOT
HETATM    1  C4  UNL     1       0.823 -14.021   8.298  1.00  0.00     0.021 C 
HETATM    2  C5  UNL     1       0.194 -12.784   7.802  1.00  0.00     0.012 C 
HETATM    3  C6  UNL     1      -0.664 -12.018   8.772  1.00  0.00    -0.018 C 
HETATM    4  C7  UNL     1      -2.150 -12.332   8.529  1.00  0.00     0.010 C 
HETATM    5  C8  UNL     1      -0.339 -12.209  10.211  1.00  0.00     0.007 C 
HETATM    6  C9  UNL     1      -0.003 -13.650  10.546  1.00  0.00     0.039 C 
HETATM    7  C10 UNL     1       1.279 -13.925   9.739  1.00  0.00     0.073 C 
HETATM    8  O1  UNL     1       2.080 -12.860   9.955  1.00  0.00    -0.349 OA
HETATM    9  C11 UNL     1       3.394 -12.908   9.588  1.00  0.00     0.267 C 
HETATM   10  O2  UNL     1       3.638 -12.467   8.307  1.00  0.00    -0.355 OA
HETATM   11  C12 UNL     1       4.792 -13.052   7.825  1.00  0.00     0.133 C 
HETATM   12  C15 UNL     1       5.105 -14.243   8.653  1.00  0.00     0.044 C 
HETATM   13  C16 UNL     1       4.126 -14.175   9.811  1.00  0.00     0.072 C 
HETATM   14  C17 UNL     1       3.311 -15.411   9.849  1.00  0.00     0.133 C 
HETATM   15  C18 UNL     1       1.884 -15.149  10.294  1.00  0.00     0.046 C 
HETATM   16  C19 UNL     1       1.987 -14.943  11.820  1.00  0.00     0.016 C 
ENDROOT
BRANCH   1  17
HETATM   17  C3  UNL     1       0.040 -15.230   7.979  1.00  0.00     0.007 C 
BRANCH  17  18
HETATM   18  C2  UNL     1      -0.564 -15.151   6.606  1.00  0.00    -0.004 C 
HETATM   19  C1  UNL     1      -0.840 -16.543   6.042  1.00  0.00     0.005 C 
ENDBRANCH  17  18
ENDBRANCH   1  17
BRANCH  14  20
HETATM   20  O4  UNL     1       3.338 -16.161   8.658  1.00  0.00    -0.395 OA
ATOM     21  H4  UNL     1       3.695 -15.697   7.910  1.00  0.00     0.210 HD
ENDBRANCH  14  20
BRANCH  11  22
HETATM   22  C13 UNL     1       5.954 -12.125   7.730  1.00  0.00     0.128 C 
BRANCH  22  23
HETATM   23  C14 UNL     1       6.387 -11.724   6.402  1.00  0.00     0.221 C 
HETATM   24  O3  UNL     1       6.090 -10.651   5.920  1.00  0.00    -0.280 OA
HETATM   25 CL1  UNL     1       7.373 -12.800   5.430  1.00  0.00    -0.044 Cl
ENDBRANCH  22  23
ENDBRANCH  11  22
TORSDOF 5
ENDMDL
MODEL 4
REMARK VINA RESULT: -5.758159218      4.579      6.224
REMARK  5 active torsions:
REMARK  status: ('A' for Active; 'I' for Inactive)
REMARK    1  A    between atoms: C2_2  and  C3_3 
REMARK    2  A    between atoms: C3_3  and  C4_4 
REMARK    3  A    between atoms: C12_14  and  C13_15 
REMARK    4  A    between atoms: C13_15  and  C14_16 
REMARK    5  A    between atoms: C17_21  and  O4_22 
ROOT
HETATM    1  C4  UNL     1      -1.106 -12.252   9.377  1.00  0.00     0.021 C 
HETATM    2  C5  UNL     1      -1.865 -11.322   8.521  1.00  0.00     0.012 C 
HETATM    3  C6  UNL     1      -1.203 -10.016   8.178  1.00  0.00    -0.018 C 
HETATM    4  C7  UNL     1      -1.736  -8.896   9.086  1.00  0.00     0.010 C 
HETATM    5  C8  UNL     1       0.285 -10.020   8.205  1.00  0.00     0.007 C 
HETATM    6  C9  UNL     1       0.844 -10.814   9.370  1.00  0.00     0.039 C 
HETATM    7  C10 UNL     1       0.380 -12.255   9.089  1.00  0.00     0.073 C 
HETATM    8  O1  UNL     1       0.650 -12.476   7.784  1.00  0.00    -0.349 OA
HETATM    9  C11 UNL     1       0.595 -13.743   7.281  1.00  0.00     0.267 C 
HETATM   10  O2  UNL     1      -0.640 -14.100   6.787  1.00  0.00    -0.355 OA
HETATM   11  C12 UNL     1      -0.783 -15.472   6.839  1.00  0.00     0.133 C 
HETATM   12  C15 UNL     1       0.221 -16.022   7.784  1.00  0.00     0.044 C 
HETATM   13  C16 UNL     1       1.115 -14.843   8.123  1.00  0.00     0.072 C 
HETATM   14  C17 UNL     1       1.106 -14.616   9.587  1.00  0.00     0.133 C 
HETATM   15  C18 UNL     1       1.189 -13.143   9.943  1.00  0.00     0.046 C 
HETATM   16  C19 UNL     1       2.666 -12.769   9.702  1.00  0.00     0.016 C 
ENDROOT
BRANCH   1  17
HETATM   17  C3  UNL     1      -1.457 -12.131  10.805  1.00  0.00     0.007 C 
BRANCH  17  18
HETATM   18  C2  UNL     1      -2.936 -11.952  10.998  1.00  0.00    -0.004 C 
HETATM   19  C1  UNL     1      -3.233 -10.821  11.980  1.00  0.00     0.005 C 
ENDBRANCH  17  18
ENDBRANCH   1  17
BRANCH  14  20
HETATM   20  O4  UNL     1       0.042 -15.239  10.265  1.00  0.00    -0.395 OA
ATOM     21  H4  UNL     1      -0.739 -15.366   9.739  1.00  0.00     0.210 HD
ENDBRANCH  14  20
BRANCH  11  22
HETATM   22  C13 UNL     1      -0.717 -16.144   5.511  1.00  0.00     0.128 C 
BRANCH  22  23
HETATM   23  C14 UNL     1      -0.677 -17.596   5.495  1.00  0.00     0.221 C 
HETATM   24  O3  UNL     1       0.240 -18.214   4.992  1.00  0.00    -0.280 OA
HETATM   25 CL1  UNL     1      -1.977 -18.527   6.215  1.00  0.00    -0.044 Cl
ENDBRANCH  22  23
ENDBRANCH  11  22
TORSDOF 5
ENDMDL
MODEL 5
REMARK VINA RESULT: -5.634537544      2.162      4.012
REMARK  5 active torsions:
REMARK  status: ('A' for Active; 'I' for Inactive)
REMARK    1  A    between atoms: C2_2  and  C3_3 
REMARK    2  A    between atoms: C3_3  and  C4_4 
REMARK    3  A    between atoms: C12_14  and  C13_15 
REMARK    4  A    between atoms: C13_15  and  C14_16 
REMARK    5  A    between atoms: C17_21  and  O4_22 
ROOT
HETATM    1  C4  UNL     1       1.271 -14.386   9.482  1.00  0.00     0.021 C 
HETATM    2  C5  UNL     1       1.296 -15.630   8.693  1.00  0.00     0.012 C 
HETATM    3  C6  UNL     1       0.196 -15.820   7.684  1.00  0.00    -0.018 C 
HETATM    4  C7  UNL     1      -0.895 -16.741   8.256  1.00  0.00     0.010 C 
HETATM    5  C8  UNL     1      -0.422 -14.573   7.161  1.00  0.00     0.007 C 
HETATM    6  C9  UNL     1      -0.623 -13.525   8.240  1.00  0.00     0.039 C 
HETATM    7  C10 UNL     1       0.809 -13.182   8.689  1.00  0.00     0.073 C 
HETATM    8  O1  UNL     1       1.517 -13.013   7.551  1.00  0.00    -0.349 OA
HETATM    9  C11 UNL     1       2.759 -12.451   7.597  1.00  0.00     0.267 C 
HETATM   10  O2  UNL     1       3.783 -13.358   7.757  1.00  0.00    -0.355 OA
HETATM   11  C12 UNL     1       4.865 -12.739   8.348  1.00  0.00     0.133 C 
HETATM   12  C15 UNL     1       4.406 -11.480   8.986  1.00  0.00     0.044 C 
HETATM   13  C16 UNL     1       2.970 -11.317   8.523  1.00  0.00     0.072 C 
HETATM   14  C17 UNL     1       2.071 -11.248   9.699  1.00  0.00     0.133 C 
HETATM   15  C18 UNL     1       0.733 -11.918   9.443  1.00  0.00     0.046 C 
HETATM   16  C19 UNL     1      -0.037 -10.916   8.557  1.00  0.00     0.016 C 
ENDROOT
BRANCH   1  17
HETATM   17  C3  UNL     1       0.611 -14.550  10.792  1.00  0.00     0.007 C 
BRANCH  17  18
HETATM   18  C2  UNL     1       0.977 -15.858  11.434  1.00  0.00    -0.004 C 
HETATM   19  C1  UNL     1      -0.258 -16.571  11.979  1.00  0.00     0.005 C 
ENDBRANCH  17  18
ENDBRANCH   1  17
BRANCH  14  20
HETATM   20  O4  UNL     1       2.646 -11.713  10.897  1.00  0.00    -0.395 OA
ATOM     21  H4  UNL     1       2.312 -11.293  11.681  1.00  0.00     0.210 HD
ENDBRANCH  14  20
BRANCH  11  22
HETATM   22  C13 UNL     1       6.013 -12.504   7.428  1.00  0.00     0.128 C 
BRANCH  22  23
HETATM   23  C14 UNL     1       6.739 -13.668   6.950  1.00  0.00     0.221 C 
HETATM   24  O3  UNL     1       6.759 -14.717   7.561  1.00  0.00    -0.280 OA
HETATM   25 CL1  UNL     1       7.632 -13.597   5.442  1.00  0.00    -0.044 Cl
ENDBRANCH  22  23
ENDBRANCH  11  22
TORSDOF 5
ENDMDL
