MODEL 1
REMARK VINA RESULT: -6.832338053      0.000      0.000
REMARK  5 active torsions:
REMARK  status: ('A' for Active; 'I' for Inactive)
REMARK    1  A    between atoms: C4_4  and  C5_5 
REMARK    2  A    between atoms: N2_12  and  C11_13 
REMARK    3  A    between atoms: N3_16  and  C14_17 
REMARK    4  A    between atoms: C14_17  and  C16_19 
REMARK    5  A    between atoms: C16_19  and  O1_20 
ROOT
HETATM    1  C1  UNL     1      -7.744 -21.662   4.442  1.00  0.00     0.049 C 
HETATM    2  C2  UNL     1      -6.393 -21.342   4.994  1.00  0.00    -0.044 A 
HETATM    3  C3  UNL     1      -5.327 -20.808   4.300  1.00  0.00     0.033 A 
HETATM    4  C4  UNL     1      -4.278 -20.672   5.183  1.00  0.00     0.016 A 
HETATM    5  N2  UNL     1      -4.658 -21.103   6.402  1.00  0.00    -0.354 N 
HETATM    6  C19 UNL     1      -5.936 -21.505   6.275  1.00  0.00     0.098 A 
ENDROOT
BRANCH   5   7
HETATM    7  C11 UNL     1      -3.823 -21.115   7.589  1.00  0.00     0.094 C 
HETATM    8  C12 UNL     1      -3.827 -19.720   8.149  1.00  0.00     0.056 C 
HETATM    9  C13 UNL     1      -3.109 -19.613   9.468  1.00  0.00     0.277 C 
HETATM   10  N3  UNL     1      -3.843 -20.445  10.413  1.00  0.00     0.113 N 
HETATM   11  C17 UNL     1      -3.712 -21.799   9.973  1.00  0.00     0.320 C 
HETATM   12 CL1  UNL     1      -1.952 -22.137   9.822  1.00  0.00    -0.092 Cl
HETATM   13  C18 UNL     1      -4.333 -22.082   8.637  1.00  0.00     0.077 C 
BRANCH  10  14
HETATM   14  C14 UNL     1      -3.288 -20.335  11.733  1.00  0.00     0.244 C 
HETATM   15  C15 UNL     1      -4.213 -21.010  12.715  1.00  0.00     0.045 C 
BRANCH  14  16
HETATM   16  C16 UNL     1      -3.028 -18.901  12.149  1.00  0.00     0.199 C 
BRANCH  16  17
HETATM   17  O1  UNL     1      -2.627 -18.858  13.475  1.00  0.00    -0.399 OA
ATOM     18  H1  UNL     1      -2.908 -18.042  13.872  1.00  0.00     0.209 HD
ENDBRANCH  16  17
ENDBRANCH  14  16
ENDBRANCH  10  14
ENDBRANCH   5   7
BRANCH   4  19
HETATM   19  C5  UNL     1      -2.963 -20.122   4.764  1.00  0.00     0.039 C 
HETATM   20  C6  UNL     1      -2.676 -20.455   3.310  1.00  0.00     0.041 C 
HETATM   21  C7  UNL     1      -1.222 -20.043   3.094  1.00  0.00     0.272 C 
HETATM   22  N1  UNL     1      -1.055 -18.635   3.259  1.00  0.00     0.084 N 
HETATM   23  C8  UNL     1       0.370 -18.350   3.247  1.00  0.00     0.309 C 
HETATM   24  C9  UNL     1      -1.607 -18.092   4.453  1.00  0.00     0.272 C 
HETATM   25  C10 UNL     1      -2.978 -18.585   4.791  1.00  0.00     0.041 C 
ENDBRANCH   4  19
TORSDOF 5
ENDMDL
MODEL 2
REMARK VINA RESULT: -5.967985558      9.688     12.630
REMARK  5 active torsions:
REMARK  status: ('A' for Active; 'I' for Inactive)
REMARK    1  A    between atoms: C4_4  and  C5_5 
REMARK    2  A    between atoms: N2_12  and  C11_13 
REMARK    3  A    between atoms: N3_16  and  C14_17 
REMARK    4  A    between atoms: C14_17  and  C16_19 
REMARK    5  A    between atoms: C16_19  and  O1_20 
ROOT
HETATM    1  C1  UNL     1       1.905  -8.181   9.087  1.00  0.00     0.049 C 
HETATM    2  C2  UNL     1       2.357  -9.534   8.642  1.00  0.00    -0.044 A 
HETATM    3  C3  UNL     1       1.555 -10.631   8.403  1.00  0.00     0.033 A 
HETATM    4  C4  UNL     1       2.373 -11.670   8.014  1.00  0.00     0.016 A 
HETATM    5  N2  UNL     1       3.654 -11.253   8.003  1.00  0.00    -0.354 N 
HETATM    6  C19 UNL     1       3.631  -9.963   8.385  1.00  0.00     0.098 A 
ENDROOT
BRANCH   5   7
HETATM    7  C11 UNL     1       4.801 -12.067   7.645  1.00  0.00     0.094 C 
HETATM    8  C12 UNL     1       5.738 -11.193   6.859  1.00  0.00     0.056 C 
HETATM    9  C13 UNL     1       7.044 -11.871   6.537  1.00  0.00     0.277 C 
HETATM   10  N3  UNL     1       7.698 -12.147   7.810  1.00  0.00     0.113 N 
HETATM   11  C17 UNL     1       6.889 -13.102   8.501  1.00  0.00     0.320 C 
HETATM   12 CL1  UNL     1       6.676 -14.508   7.400  1.00  0.00    -0.092 Cl
HETATM   13  C18 UNL     1       5.518 -12.612   8.862  1.00  0.00     0.077 C 
BRANCH  10  14
HETATM   14  C14 UNL     1       9.003 -12.711   7.604  1.00  0.00     0.244 C 
HETATM   15  C15 UNL     1       9.943 -12.171   8.653  1.00  0.00     0.045 C 
BRANCH  14  16
HETATM   16  C16 UNL     1       9.550 -12.450   6.216  1.00  0.00     0.199 C 
BRANCH  16  17
HETATM   17  O1  UNL     1      10.854 -12.909   6.126  1.00  0.00    -0.399 OA
ATOM     18  H1  UNL     1      11.436 -12.192   5.907  1.00  0.00     0.209 HD
ENDBRANCH  16  17
ENDBRANCH  14  16
ENDBRANCH  10  14
ENDBRANCH   5   7
BRANCH   4  19
HETATM   19  C5  UNL     1       1.832 -13.011   7.675  1.00  0.00     0.039 C 
HETATM   20  C6  UNL     1       1.960 -13.959   8.856  1.00  0.00     0.041 C 
HETATM   21  C7  UNL     1       1.593 -15.331   8.297  1.00  0.00     0.272 C 
HETATM   22  N1  UNL     1       0.235 -15.364   7.858  1.00  0.00     0.084 N 
HETATM   23  C8  UNL     1       0.022 -16.617   7.155  1.00  0.00     0.309 C 
HETATM   24  C9  UNL     1      -0.152 -14.299   6.997  1.00  0.00     0.272 C 
HETATM   25  C10 UNL     1       0.317 -12.944   7.423  1.00  0.00     0.041 C 
ENDBRANCH   4  19
TORSDOF 5
ENDMDL
MODEL 3
REMARK VINA RESULT: -5.701591453      9.108     11.548
REMARK  5 active torsions:
REMARK  status: ('A' for Active; 'I' for Inactive)
REMARK    1  A    between atoms: C4_4  and  C5_5 
REMARK    2  A    between atoms: N2_12  and  C11_13 
REMARK    3  A    between atoms: N3_16  and  C14_17 
REMARK    4  A    between atoms: C14_17  and  C16_19 
REMARK    5  A    between atoms: C16_19  and  O1_20 
ROOT
HETATM    1  C1  UNL     1      -0.854 -16.229   7.729  1.00  0.00     0.049 C 
HETATM    2  C2  UNL     1      -0.101 -14.971   8.017  1.00  0.00    -0.044 A 
HETATM    3  C3  UNL     1      -0.641 -13.717   8.215  1.00  0.00     0.033 A 
HETATM    4  C4  UNL     1       0.400 -12.845   8.451  1.00  0.00     0.016 A 
HETATM    5  N2  UNL     1       1.567 -13.516   8.405  1.00  0.00    -0.354 N 
HETATM    6  C19 UNL     1       1.252 -14.798   8.142  1.00  0.00     0.098 A 
ENDROOT
BRANCH   5   7
HETATM    7  C11 UNL     1       2.882 -12.935   8.605  1.00  0.00     0.094 C 
HETATM    8  C12 UNL     1       3.874 -14.064   8.594  1.00  0.00     0.056 C 
HETATM    9  C13 UNL     1       5.303 -13.593   8.654  1.00  0.00     0.277 C 
HETATM   10  N3  UNL     1       5.539 -12.818   7.442  1.00  0.00     0.113 N 
HETATM   11  C17 UNL     1       4.710 -11.655   7.517  1.00  0.00     0.320 C 
HETATM   12 CL1  UNL     1       5.095 -10.833   9.070  1.00  0.00    -0.092 Cl
HETATM   13  C18 UNL     1       3.238 -11.939   7.520  1.00  0.00     0.077 C 
BRANCH  10  14
HETATM   14  C14 UNL     1       6.911 -12.401   7.359  1.00  0.00     0.244 C 
HETATM   15  C15 UNL     1       7.380 -12.534   5.931  1.00  0.00     0.045 C 
BRANCH  14  16
HETATM   16  C16 UNL     1       7.823 -13.172   8.291  1.00  0.00     0.199 C 
BRANCH  16  17
HETATM   17  O1  UNL     1       8.885 -13.707   7.579  1.00  0.00    -0.399 OA
ATOM     18  H1  UNL     1       9.573 -13.976   8.177  1.00  0.00     0.209 HD
ENDBRANCH  16  17
ENDBRANCH  14  16
ENDBRANCH  10  14
ENDBRANCH   5   7
BRANCH   4  19
HETATM   19  C5  UNL     1       0.173 -11.399   8.707  1.00  0.00     0.039 C 
HETATM   20  C6  UNL     1      -1.243 -10.999   8.327  1.00  0.00     0.041 C 
HETATM   21  C7  UNL     1      -1.255  -9.475   8.417  1.00  0.00     0.272 C 
HETATM   22  N1  UNL     1      -1.022  -9.036   9.756  1.00  0.00     0.084 N 
HETATM   23  C8  UNL     1      -0.841  -7.594   9.727  1.00  0.00     0.309 C 
HETATM   24  C9  UNL     1       0.108  -9.614  10.399  1.00  0.00     0.272 C 
HETATM   25  C10 UNL     1       0.250 -11.091  10.211  1.00  0.00     0.041 C 
ENDBRANCH   4  19
TORSDOF 5
ENDMDL
MODEL 4
REMARK VINA RESULT: -5.643504541      9.352     11.660
REMARK  5 active torsions:
REMARK  status: ('A' for Active; 'I' for Inactive)
REMARK    1  A    between atoms: C4_4  and  C5_5 
REMARK    2  A    between atoms: N2_12  and  C11_13 
REMARK    3  A    between atoms: N3_16  and  C14_17 
REMARK    4  A    between atoms: C14_17  and  C16_19 
REMARK    5  A    between atoms: C16_19  and  O1_20 
ROOT
HETATM    1  C1  UNL     1       5.864 -10.697   7.876  1.00  0.00     0.049 C 
HETATM    2  C2  UNL     1       4.404 -10.979   8.023  1.00  0.00    -0.044 A 
HETATM    3  C3  UNL     1       3.803 -12.221   8.026  1.00  0.00     0.033 A 
HETATM    4  C4  UNL     1       2.447 -12.030   8.185  1.00  0.00     0.016 A 
HETATM    5  N2  UNL     1       2.188 -10.711   8.279  1.00  0.00    -0.354 N 
HETATM    6  C19 UNL     1       3.376 -10.087   8.180  1.00  0.00     0.098 A 
ENDROOT
BRANCH   5   7
HETATM    7  C11 UNL     1       0.873 -10.122   8.453  1.00  0.00     0.094 C 
HETATM    8  C12 UNL     1       0.328 -10.629   9.760  1.00  0.00     0.056 C 
HETATM    9  C13 UNL     1      -0.981  -9.989  10.140  1.00  0.00     0.277 C 
HETATM   10  N3  UNL     1      -0.715  -8.567  10.321  1.00  0.00     0.113 N 
HETATM   11  C17 UNL     1      -0.346  -8.041   9.044  1.00  0.00     0.320 C 
HETATM   12 CL1  UNL     1      -1.668  -8.458   7.899  1.00  0.00    -0.092 Cl
HETATM   13  C18 UNL     1       0.923  -8.609   8.480  1.00  0.00     0.077 C 
BRANCH  10  14
HETATM   14  C14 UNL     1      -1.890  -7.880  10.780  1.00  0.00     0.244 C 
HETATM   15  C15 UNL     1      -1.529  -7.033  11.975  1.00  0.00     0.045 C 
BRANCH  14  16
HETATM   16  C16 UNL     1      -3.030  -8.817  11.119  1.00  0.00     0.199 C 
BRANCH  16  17
HETATM   17  O1  UNL     1      -4.233  -8.130  11.090  1.00  0.00    -0.399 OA
ATOM     18  H1  UNL     1      -4.958  -8.743  11.119  1.00  0.00     0.209 HD
ENDBRANCH  16  17
ENDBRANCH  14  16
ENDBRANCH  10  14
ENDBRANCH   5   7
BRANCH   4  19
HETATM   19  C5  UNL     1       1.493 -13.167   8.233  1.00  0.00     0.039 C 
HETATM   20  C6  UNL     1       0.854 -13.394   6.873  1.00  0.00     0.041 C 
HETATM   21  C7  UNL     1      -0.254 -14.413   7.127  1.00  0.00     0.272 C 
HETATM   22  N1  UNL     1       0.284 -15.660   7.569  1.00  0.00     0.084 N 
HETATM   23  C8  UNL     1      -0.824 -16.502   7.988  1.00  0.00     0.309 C 
HETATM   24  C9  UNL     1       1.211 -15.576   8.647  1.00  0.00     0.272 C 
HETATM   25  C10 UNL     1       2.227 -14.487   8.517  1.00  0.00     0.041 C 
ENDBRANCH   4  19
TORSDOF 5
ENDMDL
MODEL 5
REMARK VINA RESULT: -5.616674823      8.662     11.496
REMARK  5 active torsions:
REMARK  status: ('A' for Active; 'I' for Inactive)
REMARK    1  A    between atoms: C4_4  and  C5_5 
REMARK    2  A    between atoms: N2_12  and  C11_13 
REMARK    3  A    between atoms: N3_16  and  C14_17 
REMARK    4  A    between atoms: C14_17  and  C16_19 
REMARK    5  A    between atoms: C16_19  and  O1_20 
ROOT
HETATM    1  C1  UNL     1      -1.554  -8.532   8.051  1.00  0.00     0.049 C 
HETATM    2  C2  UNL     1      -0.671  -9.700   8.350  1.00  0.00    -0.044 A 
HETATM    3  C3  UNL     1      -1.079 -10.992   8.608  1.00  0.00     0.033 A 
HETATM    4  C4  UNL     1       0.051 -11.750   8.831  1.00  0.00     0.016 A 
HETATM    5  N2  UNL     1       1.144 -10.970   8.720  1.00  0.00    -0.354 N 
HETATM    6  C19 UNL     1       0.695  -9.735   8.430  1.00  0.00     0.098 A 
ENDROOT
BRANCH   5   7
HETATM    7  C11 UNL     1       2.516 -11.414   8.888  1.00  0.00     0.094 C 
HETATM    8  C12 UNL     1       2.719 -12.586   7.967  1.00  0.00     0.056 C 
HETATM    9  C13 UNL     1       4.146 -13.067   7.934  1.00  0.00     0.277 C 
HETATM   10  N3  UNL     1       4.945 -11.971   7.399  1.00  0.00     0.113 N 
HETATM   11  C17 UNL     1       4.884 -10.902   8.347  1.00  0.00     0.320 C 
HETATM   12 CL1  UNL     1       5.418 -11.571   9.929  1.00  0.00    -0.092 Cl
HETATM   13  C18 UNL     1       3.514 -10.327   8.550  1.00  0.00     0.077 C 
BRANCH  10  14
HETATM   14  C14 UNL     1       6.316 -12.367   7.237  1.00  0.00     0.244 C 
HETATM   15  C15 UNL     1       6.800 -11.922   5.879  1.00  0.00     0.045 C 
BRANCH  14  16
HETATM   16  C16 UNL     1       6.528 -13.856   7.415  1.00  0.00     0.199 C 
BRANCH  16  17
HETATM   17  O1  UNL     1       7.842 -14.108   7.774  1.00  0.00    -0.399 OA
ATOM     18  H1  UNL     1       7.939 -15.017   8.033  1.00  0.00     0.209 HD
ENDBRANCH  16  17
ENDBRANCH  14  16
ENDBRANCH  10  14
ENDBRANCH   5   7
BRANCH   4  19
HETATM   19  C5  UNL     1      -0.024 -13.201   9.141  1.00  0.00     0.039 C 
HETATM   20  C6  UNL     1      -0.892 -13.449  10.363  1.00  0.00     0.041 C 
HETATM   21  C7  UNL     1      -0.687 -14.925  10.696  1.00  0.00     0.272 C 
HETATM   22  N1  UNL     1      -1.166 -15.762   9.643  1.00  0.00     0.084 N 
HETATM   23  C8  UNL     1      -0.751 -17.124   9.933  1.00  0.00     0.309 C 
HETATM   24  C9  UNL     1      -0.707 -15.425   8.339  1.00  0.00     0.272 C 
HETATM   25  C10 UNL     1      -0.745 -13.965   8.019  1.00  0.00     0.041 C 
ENDBRANCH   4  19
TORSDOF 5
ENDMDL
