MODEL 1
REMARK VINA RESULT: -4.822238935      0.000      0.000
REMARK  3 active torsions:
REMARK  status: ('A' for Active; 'I' for Inactive)
REMARK    1  A    between atoms: C1_4  and  C2_5 
REMARK    2  A    between atoms: C4_11  and  O1_12 
REMARK    3  A    between atoms: C5_14  and  O2_15 
ROOT
HETATM    1  C2  UNL     1     -79.943  85.467  91.942  1.00  0.00     0.168 C 
HETATM    2  N2  UNL     1     -78.939  84.728  91.246  1.00  0.00    -0.328 N 
ATOM      3  H2  UNL     1     -79.051  84.517  90.255  1.00  0.00     0.180 HD
HETATM    4  N3  UNL     1     -77.933  84.345  91.852  1.00  0.00    -0.337 N 
ATOM      5  H3  UNL     1     -77.204  83.815  91.376  1.00  0.00     0.179 HD
HETATM    6  C3  UNL     1     -77.819  84.664  93.239  1.00  0.00     0.173 C 
HETATM    7  C4  UNL     1     -78.024  86.158  93.390  1.00  0.00     0.168 C 
HETATM    8  C5  UNL     1     -79.331  86.590  92.753  1.00  0.00     0.177 C 
ENDROOT
BRANCH   1   9
HETATM    9  C1  UNL     1     -80.886  86.012  90.945  1.00  0.00     0.082 C 
HETATM   10  N1  UNL     1     -80.877  87.241  90.639  1.00  0.00    -0.409 N 
ATOM     11  H12 UNL     1     -80.201  87.851  91.099  1.00  0.00     0.155 HD
ATOM     12  H11 UNL     1     -81.528  87.618  89.950  1.00  0.00     0.155 HD
ENDBRANCH   1   9
BRANCH   8  13
HETATM   13  O2  UNL     1     -80.216  86.897  93.784  1.00  0.00    -0.390 OA
ATOM     14  H2  UNL     1     -80.184  86.184  94.412  1.00  0.00     0.210 HD
ENDBRANCH   8  13
BRANCH   7  15
HETATM   15  O1  UNL     1     -78.001  86.516  94.719  1.00  0.00    -0.391 OA
ATOM     16  H1  UNL     1     -77.168  86.282  95.112  1.00  0.00     0.210 HD
ENDBRANCH   7  15
TORSDOF 3
ENDMDL
MODEL 2
REMARK VINA RESULT: -4.444316082      2.476      3.782
REMARK  3 active torsions:
REMARK  status: ('A' for Active; 'I' for Inactive)
REMARK    1  A    between atoms: C1_4  and  C2_5 
REMARK    2  A    between atoms: C4_11  and  O1_12 
REMARK    3  A    between atoms: C5_14  and  O2_15 
ROOT
HETATM    1  C2  UNL     1     -78.496  86.027  93.684  1.00  0.00     0.168 C 
HETATM    2  N2  UNL     1     -79.252  86.969  92.922  1.00  0.00    -0.328 N 
ATOM      3  H2  UNL     1     -79.155  87.969  93.099  1.00  0.00     0.180 HD
HETATM    4  N3  UNL     1     -80.024  86.565  92.047  1.00  0.00    -0.337 N 
ATOM      5  H3  UNL     1     -80.574  87.220  91.491  1.00  0.00     0.179 HD
HETATM    6  C3  UNL     1     -80.126  85.157  91.834  1.00  0.00     0.173 C 
HETATM    7  C4  UNL     1     -78.725  84.615  91.632  1.00  0.00     0.168 C 
HETATM    8  C5  UNL     1     -77.823  85.011  92.784  1.00  0.00     0.177 C 
ENDROOT
BRANCH   1   9
HETATM    9  C1  UNL     1     -77.484  86.771  94.461  1.00  0.00     0.082 C 
HETATM   10  N1  UNL     1     -76.626  86.165  95.168  1.00  0.00    -0.409 N 
ATOM     11  H12 UNL     1     -76.649  85.146  95.192  1.00  0.00     0.155 HD
ATOM     12  H11 UNL     1     -75.927  86.679  95.705  1.00  0.00     0.155 HD
ENDBRANCH   1   9
BRANCH   8  13
HETATM   13  O2  UNL     1     -77.588  83.866  93.543  1.00  0.00    -0.390 OA
ATOM     14  H2  UNL     1     -77.042  83.286  93.025  1.00  0.00     0.210 HD
ENDBRANCH   8  13
BRANCH   7  15
HETATM   15  O1  UNL     1     -78.753  83.246  91.497  1.00  0.00    -0.391 OA
ATOM     16  H1  UNL     1     -78.410  82.827  92.278  1.00  0.00     0.210 HD
ENDBRANCH   7  15
TORSDOF 3
ENDMDL
MODEL 3
REMARK VINA RESULT: -4.371972956      2.248      2.489
REMARK  3 active torsions:
REMARK  status: ('A' for Active; 'I' for Inactive)
REMARK    1  A    between atoms: C1_4  and  C2_5 
REMARK    2  A    between atoms: C4_11  and  O1_12 
REMARK    3  A    between atoms: C5_14  and  O2_15 
ROOT
HETATM    1  C2  UNL     1     -79.127  85.989  92.248  1.00  0.00     0.168 C 
HETATM    2  N2  UNL     1     -79.412  86.847  93.354  1.00  0.00    -0.328 N 
ATOM      3  H2  UNL     1     -80.322  87.300  93.431  1.00  0.00     0.180 HD
HETATM    4  N3  UNL     1     -78.549  87.035  94.217  1.00  0.00    -0.337 N 
ATOM      5  H3  UNL     1     -78.731  87.644  95.015  1.00  0.00     0.179 HD
HETATM    6  C3  UNL     1     -77.290  86.379  94.067  1.00  0.00     0.173 C 
HETATM    7  C4  UNL     1     -77.558  84.901  93.864  1.00  0.00     0.168 C 
HETATM    8  C5  UNL     1     -78.520  84.682  92.712  1.00  0.00     0.177 C 
ENDROOT
BRANCH   1   9
HETATM    9  C1  UNL     1     -80.389  85.738  91.524  1.00  0.00     0.082 C 
HETATM   10  N1  UNL     1     -80.727  86.449  90.531  1.00  0.00    -0.409 N 
ATOM     11  H12 UNL     1     -80.106  87.203  90.241  1.00  0.00     0.155 HD
ATOM     12  H11 UNL     1     -81.600  86.275  90.031  1.00  0.00     0.155 HD
ENDBRANCH   1   9
BRANCH   8  13
HETATM   13  O2  UNL     1     -77.786  84.157  91.651  1.00  0.00    -0.390 OA
ATOM     14  H2  UNL     1     -76.873  84.144  91.911  1.00  0.00     0.210 HD
ENDBRANCH   8  13
BRANCH   7  15
HETATM   15  O1  UNL     1     -76.381  84.224  93.637  1.00  0.00    -0.391 OA
ATOM     16  H1  UNL     1     -76.298  84.000  92.718  1.00  0.00     0.210 HD
ENDBRANCH   7  15
TORSDOF 3
ENDMDL
MODEL 4
REMARK VINA RESULT: -4.072472444      1.934      2.748
REMARK  3 active torsions:
REMARK  status: ('A' for Active; 'I' for Inactive)
REMARK    1  A    between atoms: C1_4  and  C2_5 
REMARK    2  A    between atoms: C4_11  and  O1_12 
REMARK    3  A    between atoms: C5_14  and  O2_15 
ROOT
HETATM    1  C2  UNL     1     -78.055  85.194  93.578  1.00  0.00     0.168 C 
HETATM    2  N2  UNL     1     -76.712  85.156  94.063  1.00  0.00    -0.328 N 
ATOM      3  H2  UNL     1     -76.013  84.579  93.595  1.00  0.00     0.180 HD
HETATM    4  N3  UNL     1     -76.403  85.826  95.053  1.00  0.00    -0.337 N 
ATOM      5  H3  UNL     1     -75.450  85.814  95.417  1.00  0.00     0.179 HD
HETATM    6  C3  UNL     1     -77.415  86.618  95.674  1.00  0.00     0.173 C 
HETATM    7  C4  UNL     1     -78.058  87.475  94.602  1.00  0.00     0.168 C 
HETATM    8  C5  UNL     1     -78.551  86.619  93.452  1.00  0.00     0.177 C 
ENDROOT
BRANCH   1   9
HETATM    9  C1  UNL     1     -78.087  84.524  92.262  1.00  0.00     0.082 C 
HETATM   10  N1  UNL     1     -79.105  84.602  91.512  1.00  0.00    -0.409 N 
ATOM     11  H12 UNL     1     -79.908  85.140  91.839  1.00  0.00     0.155 HD
ATOM     12  H11 UNL     1     -79.128  84.139  90.603  1.00  0.00     0.155 HD
ENDBRANCH   1   9
BRANCH   8  13
HETATM   13  O2  UNL     1     -79.942  86.590  93.521  1.00  0.00    -0.390 OA
ATOM     14  H2  UNL     1     -80.182  86.005  94.230  1.00  0.00     0.210 HD
ENDBRANCH   8  13
BRANCH   7  15
HETATM   15  O1  UNL     1     -79.096  88.209  95.130  1.00  0.00    -0.391 OA
ATOM     16  H1  UNL     1     -79.888  88.079  94.621  1.00  0.00     0.210 HD
ENDBRANCH   7  15
TORSDOF 3
ENDMDL
MODEL 5
REMARK VINA RESULT: -4.001176608      2.198      3.099
REMARK  3 active torsions:
REMARK  status: ('A' for Active; 'I' for Inactive)
REMARK    1  A    between atoms: C1_4  and  C2_5 
REMARK    2  A    between atoms: C4_11  and  O1_12 
REMARK    3  A    between atoms: C5_14  and  O2_15 
ROOT
HETATM    1  C2  UNL     1     -78.094  86.307  93.435  1.00  0.00     0.168 C 
HETATM    2  N2  UNL     1     -77.544  85.005  93.640  1.00  0.00    -0.328 N 
ATOM      3  H2  UNL     1     -77.018  84.797  94.489  1.00  0.00     0.180 HD
HETATM    4  N3  UNL     1     -77.709  84.131  92.783  1.00  0.00    -0.337 N 
ATOM      5  H3  UNL     1     -77.325  83.195  92.908  1.00  0.00     0.179 HD
HETATM    6  C3  UNL     1     -78.453  84.468  91.612  1.00  0.00     0.173 C 
HETATM    7  C4  UNL     1     -79.772  85.068  92.055  1.00  0.00     0.168 C 
HETATM    8  C5  UNL     1     -79.544  86.226  93.007  1.00  0.00     0.177 C 
ENDROOT
BRANCH   1   9
HETATM    9  C1  UNL     1     -77.976  87.059  94.701  1.00  0.00     0.082 C 
HETATM   10  N1  UNL     1     -78.873  87.877  95.061  1.00  0.00    -0.409 N 
ATOM     11  H12 UNL     1     -79.684  88.007  94.456  1.00  0.00     0.155 HD
ATOM     12  H11 UNL     1     -78.792  88.398  95.935  1.00  0.00     0.155 HD
ENDBRANCH   1   9
BRANCH   8  13
HETATM   13  O2  UNL     1     -79.846  87.398  92.317  1.00  0.00    -0.390 OA
ATOM     14  H2  UNL     1     -79.881  87.186  91.392  1.00  0.00     0.210 HD
ENDBRANCH   8  13
BRANCH   7  15
HETATM   15  O1  UNL     1     -80.503  85.483  90.965  1.00  0.00    -0.391 OA
ATOM     16  H1  UNL     1     -79.946  85.559  90.200  1.00  0.00     0.210 HD
ENDBRANCH   7  15
TORSDOF 3
ENDMDL
