MODEL 1
REMARK VINA RESULT: -4.430421558      0.000      0.000
REMARK  5 active torsions:
REMARK  status: ('A' for Active; 'I' for Inactive)
REMARK    1  A    between atoms: C2_3  and  S1_4 
REMARK    2  A    between atoms: S1_4  and  C3_5 
REMARK    3  A    between atoms: C3_5  and  N2_7 
REMARK    4  A    between atoms: N2_7  and  N3_9 
REMARK    5  A    between atoms: N3_9  and  O1_10 
ROOT
HETATM    1  N1  UNL     1     -77.395  86.722  96.486  1.00  0.00    -0.197 NA
HETATM    2  C1  UNL     1     -77.508  86.641  95.323  1.00  0.00     0.069 C 
HETATM    3  C2  UNL     1     -77.640  86.550  93.873  1.00  0.00     0.205 C 
ENDROOT
BRANCH   3   4
HETATM    4  S1  UNL     1     -79.353  86.676  93.334  1.00  0.00    -0.085 SA
BRANCH   4   5
HETATM    5  C3  UNL     1     -79.587  85.647  91.907  1.00  0.00     0.152 C 
HETATM    6  S2  UNL     1     -78.587  84.361  91.733  1.00  0.00    -0.051 SA
BRANCH   5   7
HETATM    7  N2  UNL     1     -80.596  85.945  90.977  1.00  0.00    -0.263 N 
ATOM      8  H2  UNL     1     -81.149  85.195  90.565  1.00  0.00     0.186 HD
BRANCH   7   9
HETATM    9  N3  UNL     1     -80.839  87.277  90.618  1.00  0.00     0.020 NA
BRANCH   9  10
HETATM   10  O1  UNL     1     -81.800  87.227  89.647  1.00  0.00    -0.277 OA
ATOM     11  H1  UNL     1     -81.673  88.008  89.121  1.00  0.00     0.240 HD
ENDBRANCH   9  10
ENDBRANCH   7   9
ENDBRANCH   5   7
ENDBRANCH   4   5
ENDBRANCH   3   4
TORSDOF 5
ENDMDL
MODEL 2
REMARK VINA RESULT: -3.874719830      2.783      4.538
REMARK  5 active torsions:
REMARK  status: ('A' for Active; 'I' for Inactive)
REMARK    1  A    between atoms: C2_3  and  S1_4 
REMARK    2  A    between atoms: S1_4  and  C3_5 
REMARK    3  A    between atoms: C3_5  and  N2_7 
REMARK    4  A    between atoms: N2_7  and  N3_9 
REMARK    5  A    between atoms: N3_9  and  O1_10 
ROOT
HETATM    1  N1  UNL     1     -81.149  87.744  89.930  1.00  0.00    -0.197 NA
HETATM    2  C1  UNL     1     -80.830  86.933  90.714  1.00  0.00     0.069 C 
HETATM    3  C2  UNL     1     -80.447  85.920  91.691  1.00  0.00     0.205 C 
ENDROOT
BRANCH   3   4
HETATM    4  S1  UNL     1     -79.561  86.623  93.091  1.00  0.00    -0.085 SA
BRANCH   4   5
HETATM    5  C3  UNL     1     -78.064  85.707  93.347  1.00  0.00     0.152 C 
HETATM    6  S2  UNL     1     -77.110  86.156  94.602  1.00  0.00    -0.051 SA
BRANCH   5   7
HETATM    7  N2  UNL     1     -77.730  84.643  92.494  1.00  0.00    -0.263 N 
ATOM      8  H2  UNL     1     -76.890  84.692  91.919  1.00  0.00     0.186 HD
BRANCH   7   9
HETATM    9  N3  UNL     1     -78.557  83.514  92.436  1.00  0.00     0.020 NA
BRANCH   9  10
HETATM   10  O1  UNL     1     -78.615  83.168  91.114  1.00  0.00    -0.277 OA
ATOM     11  H1  UNL     1     -78.870  83.958  90.654  1.00  0.00     0.240 HD
ENDBRANCH   9  10
ENDBRANCH   7   9
ENDBRANCH   5   7
ENDBRANCH   4   5
ENDBRANCH   3   4
TORSDOF 5
ENDMDL
MODEL 3
REMARK VINA RESULT: -3.782431115      0.918      1.490
REMARK  5 active torsions:
REMARK  status: ('A' for Active; 'I' for Inactive)
REMARK    1  A    between atoms: C2_3  and  S1_4 
REMARK    2  A    between atoms: S1_4  and  C3_5 
REMARK    3  A    between atoms: C3_5  and  N2_7 
REMARK    4  A    between atoms: N2_7  and  N3_9 
REMARK    5  A    between atoms: N3_9  and  O1_10 
ROOT
HETATM    1  N1  UNL     1     -77.869  86.699  95.596  1.00  0.00    -0.197 NA
HETATM    2  C1  UNL     1     -77.732  86.554  94.441  1.00  0.00     0.069 C 
HETATM    3  C2  UNL     1     -77.563  86.388  93.002  1.00  0.00     0.205 C 
ENDROOT
BRANCH   3   4
HETATM    4  S1  UNL     1     -78.657  85.127  92.327  1.00  0.00    -0.085 SA
BRANCH   4   5
HETATM    5  C3  UNL     1     -80.242  85.854  91.997  1.00  0.00     0.152 C 
HETATM    6  S2  UNL     1     -81.194  86.204  93.284  1.00  0.00    -0.051 SA
BRANCH   5   7
HETATM    7  N2  UNL     1     -80.642  86.109  90.676  1.00  0.00    -0.263 N 
ATOM      8  H2  UNL     1     -80.692  85.347  90.000  1.00  0.00     0.186 HD
BRANCH   7   9
HETATM    9  N3  UNL     1     -80.972  87.415  90.289  1.00  0.00     0.020 NA
BRANCH   9  10
HETATM   10  O1  UNL     1     -82.068  87.293  89.480  1.00  0.00    -0.277 OA
ATOM     11  H1  UNL     1     -82.492  86.485  89.743  1.00  0.00     0.240 HD
ENDBRANCH   9  10
ENDBRANCH   7   9
ENDBRANCH   5   7
ENDBRANCH   4   5
ENDBRANCH   3   4
TORSDOF 5
ENDMDL
MODEL 4
REMARK VINA RESULT: -3.712021642      2.208      2.361
REMARK  5 active torsions:
REMARK  status: ('A' for Active; 'I' for Inactive)
REMARK    1  A    between atoms: C2_3  and  S1_4 
REMARK    2  A    between atoms: S1_4  and  C3_5 
REMARK    3  A    between atoms: C3_5  and  N2_7 
REMARK    4  A    between atoms: N2_7  and  N3_9 
REMARK    5  A    between atoms: N3_9  and  O1_10 
ROOT
HETATM    1  N1  UNL     1     -78.896  87.157  97.504  1.00  0.00    -0.197 NA
HETATM    2  C1  UNL     1     -78.207  87.309  96.568  1.00  0.00     0.069 C 
HETATM    3  C2  UNL     1     -77.358  87.507  95.399  1.00  0.00     0.205 C 
ENDROOT
BRANCH   3   4
HETATM    4  S1  UNL     1     -77.106  85.985  94.472  1.00  0.00    -0.085 SA
BRANCH   4   5
HETATM    5  C3  UNL     1     -78.369  85.846  93.233  1.00  0.00     0.152 C 
HETATM    6  S2  UNL     1     -78.281  84.573  92.206  1.00  0.00    -0.051 SA
BRANCH   5   7
HETATM    7  N2  UNL     1     -79.393  86.803  93.157  1.00  0.00    -0.263 N 
ATOM      8  H2  UNL     1     -79.209  87.772  93.419  1.00  0.00     0.186 HD
BRANCH   7   9
HETATM    9  N3  UNL     1     -80.669  86.423  92.722  1.00  0.00     0.020 NA
BRANCH   9  10
HETATM   10  O1  UNL     1     -81.460  86.443  93.837  1.00  0.00    -0.277 OA
ATOM     11  H1  UNL     1     -82.349  86.333  93.522  1.00  0.00     0.240 HD
ENDBRANCH   9  10
ENDBRANCH   7   9
ENDBRANCH   5   7
ENDBRANCH   4   5
ENDBRANCH   3   4
TORSDOF 5
ENDMDL
MODEL 5
REMARK VINA RESULT: -3.706148202      2.843      4.776
REMARK  5 active torsions:
REMARK  status: ('A' for Active; 'I' for Inactive)
REMARK    1  A    between atoms: C2_3  and  S1_4 
REMARK    2  A    between atoms: S1_4  and  C3_5 
REMARK    3  A    between atoms: C3_5  and  N2_7 
REMARK    4  A    between atoms: N2_7  and  N3_9 
REMARK    5  A    between atoms: N3_9  and  O1_10 
ROOT
HETATM    1  N1  UNL     1     -80.914  87.312  90.351  1.00  0.00    -0.197 NA
HETATM    2  C1  UNL     1     -80.634  86.547  91.194  1.00  0.00     0.069 C 
HETATM    3  C2  UNL     1     -80.296  85.601  92.251  1.00  0.00     0.205 C 
ENDROOT
BRANCH   3   4
HETATM    4  S1  UNL     1     -78.538  85.610  92.638  1.00  0.00    -0.085 SA
BRANCH   4   5
HETATM    5  C3  UNL     1     -78.266  86.628  94.066  1.00  0.00     0.152 C 
HETATM    6  S2  UNL     1     -76.857  86.426  94.877  1.00  0.00    -0.051 SA
BRANCH   5   7
HETATM    7  N2  UNL     1     -79.235  87.562  94.464  1.00  0.00    -0.263 N 
ATOM      8  H2  UNL     1     -79.879  87.954  93.778  1.00  0.00     0.186 HD
BRANCH   7   9
HETATM    9  N3  UNL     1     -79.313  87.953  95.807  1.00  0.00     0.020 NA
BRANCH   9  10
HETATM   10  O1  UNL     1     -80.608  87.727  96.182  1.00  0.00    -0.277 OA
ATOM     11  H1  UNL     1     -81.142  88.206  95.559  1.00  0.00     0.240 HD
ENDBRANCH   9  10
ENDBRANCH   7   9
ENDBRANCH   5   7
ENDBRANCH   4   5
ENDBRANCH   3   4
TORSDOF 5
ENDMDL
