MODEL 1
REMARK VINA RESULT: -8.092610115      0.000      0.000
REMARK  3 active torsions:
REMARK  status: ('A' for Active; 'I' for Inactive)
REMARK    1  A    between atoms: C4_5  and  C5_6 
REMARK    2  A    between atoms: N2_7  and  C6_9 
REMARK    3  A    between atoms: C10_17  and  N4_18 
ROOT
HETATM    1  C1  UNL     1      14.097   4.028   6.689  1.00  0.00     0.156 C 
HETATM    2  N1  UNL     1      14.406   2.815   5.914  1.00  0.00    -0.352 N 
HETATM    3  C2  UNL     1      13.580   2.148   5.091  1.00  0.00     0.092 A 
HETATM    4  C3  UNL     1      14.221   1.061   4.540  1.00  0.00     0.033 A 
HETATM    5  C4  UNL     1      15.513   1.059   5.051  1.00  0.00     0.018 A 
HETATM    6  C13 UNL     1      15.574   2.152   5.885  1.00  0.00     0.127 A 
HETATM    7  C14 UNL     1      16.744   2.540   6.636  1.00  0.00     0.118 C 
HETATM    8  N7  UNL     1      17.678   2.842   7.247  1.00  0.00    -0.190 NA
ENDROOT
BRANCH   5   9
HETATM    9  C5  UNL     1      16.564   0.085   4.748  1.00  0.00     0.104 C 
HETATM   10  N2  UNL     1      16.310  -1.168   4.610  1.00  0.00    -0.349 N 
ATOM     11  H2  UNL     1      15.342  -1.472   4.720  1.00  0.00     0.167 HD
BRANCH  10  12
HETATM   12  C6  UNL     1      17.271  -2.142   4.320  1.00  0.00     0.149 A 
HETATM   13  C7  UNL     1      17.729  -2.584   3.096  1.00  0.00     0.180 A 
HETATM   14  F1  UNL     1      17.308  -2.132   1.905  1.00  0.00    -0.201 F 
HETATM   15  C8  UNL     1      18.692  -3.570   3.290  1.00  0.00     0.119 A 
HETATM   16  C9  UNL     1      19.461  -4.336   2.413  1.00  0.00     0.276 A 
HETATM   17  C11 UNL     1      18.800  -3.707   4.658  1.00  0.00     0.143 A 
HETATM   18  O1  UNL     1      19.325  -4.173   1.173  1.00  0.00    -0.267 OA
HETATM   19  N3  UNL     1      20.307  -5.210   2.957  1.00  0.00    -0.155 N 
HETATM   20  C10 UNL     1      20.429  -5.360   4.278  1.00  0.00     0.680 A 
ATOM     21  H3  UNL     1      20.883  -5.786   2.341  1.00  0.00     0.187 HD
HETATM   22  N5  UNL     1      19.674  -4.607   5.119  1.00  0.00    -0.175 N 
ATOM     23  H5  UNL     1      19.776  -4.731   6.127  1.00  0.00     0.186 HD
HETATM   24  N6  UNL     1      17.941  -2.844   5.256  1.00  0.00    -0.320 N 
HETATM   25  C12 UNL     1      17.783  -2.710   6.683  1.00  0.00     0.159 C 
BRANCH  20  26
HETATM   26  N4  UNL     1      21.233  -6.191   4.814  1.00  0.00    -0.234 N 
ATOM     27  H42 UNL     1      21.434  -7.042   4.289  1.00  0.00     0.174 HD
ATOM     28  H41 UNL     1      21.670  -6.037   5.723  1.00  0.00     0.174 HD
ENDBRANCH  20  26
ENDBRANCH  10  12
ENDBRANCH   5   9
TORSDOF 3
ENDMDL
MODEL 2
REMARK VINA RESULT: -8.008922235      2.995      4.630
REMARK  3 active torsions:
REMARK  status: ('A' for Active; 'I' for Inactive)
REMARK    1  A    between atoms: C4_5  and  C5_6 
REMARK    2  A    between atoms: N2_7  and  C6_9 
REMARK    3  A    between atoms: C10_17  and  N4_18 
ROOT
HETATM    1  C1  UNL     1      17.341  -0.512  11.912  1.00  0.00     0.156 C 
HETATM    2  N1  UNL     1      17.394  -1.359  10.708  1.00  0.00    -0.352 N 
HETATM    3  C2  UNL     1      17.031  -2.648  10.609  1.00  0.00     0.092 A 
HETATM    4  C3  UNL     1      17.220  -3.107   9.325  1.00  0.00     0.033 A 
HETATM    5  C4  UNL     1      17.728  -2.041   8.592  1.00  0.00     0.018 A 
HETATM    6  C13 UNL     1      17.814  -0.996   9.485  1.00  0.00     0.127 A 
HETATM    7  C14 UNL     1      18.295   0.323   9.152  1.00  0.00     0.118 C 
HETATM    8  N7  UNL     1      18.692   1.376   8.887  1.00  0.00    -0.190 NA
ENDROOT
BRANCH   5   9
HETATM    9  C5  UNL     1      18.085  -2.056   7.172  1.00  0.00     0.104 C 
HETATM   10  N2  UNL     1      17.362  -2.659   6.296  1.00  0.00    -0.349 N 
ATOM     11  H2  UNL     1      16.519  -3.134   6.620  1.00  0.00     0.167 HD
BRANCH  10  12
HETATM   12  C6  UNL     1      17.652  -2.707   4.929  1.00  0.00     0.149 A 
HETATM   13  C7  UNL     1      18.438  -3.600   4.231  1.00  0.00     0.180 A 
HETATM   14  F1  UNL     1      19.097  -4.635   4.772  1.00  0.00    -0.201 F 
HETATM   15  C8  UNL     1      18.439  -3.259   2.882  1.00  0.00     0.119 A 
HETATM   16  C9  UNL     1      19.056  -3.815   1.759  1.00  0.00     0.276 A 
HETATM   17  C11 UNL     1      17.638  -2.142   2.788  1.00  0.00     0.143 A 
HETATM   18  O1  UNL     1      19.779  -4.836   1.897  1.00  0.00    -0.267 OA
HETATM   19  N3  UNL     1      18.836  -3.217   0.589  1.00  0.00    -0.155 N 
HETATM   20  C10 UNL     1      18.062  -2.134   0.475  1.00  0.00     0.680 A 
ATOM     21  H3  UNL     1      19.273  -3.599  -0.249  1.00  0.00     0.187 HD
HETATM   22  N5  UNL     1      17.469  -1.604   1.576  1.00  0.00    -0.175 N 
ATOM     23  H5  UNL     1      16.880  -0.777   1.476  1.00  0.00     0.186 HD
HETATM   24  N6  UNL     1      17.176  -1.827   4.024  1.00  0.00    -0.320 N 
HETATM   25  C12 UNL     1      16.305  -0.714   4.309  1.00  0.00     0.159 C 
BRANCH  20  26
HETATM   26  N4  UNL     1      17.841  -1.549  -0.636  1.00  0.00    -0.234 N 
ATOM     27  H42 UNL     1      18.590  -1.574  -1.326  1.00  0.00     0.174 HD
ATOM     28  H41 UNL     1      16.965  -1.074  -0.851  1.00  0.00     0.174 HD
ENDBRANCH  20  26
ENDBRANCH  10  12
ENDBRANCH   5   9
TORSDOF 3
ENDMDL
MODEL 3
REMARK VINA RESULT: -7.895084984      3.458      5.006
REMARK  3 active torsions:
REMARK  status: ('A' for Active; 'I' for Inactive)
REMARK    1  A    between atoms: C4_5  and  C5_6 
REMARK    2  A    between atoms: N2_7  and  C6_9 
REMARK    3  A    between atoms: C10_17  and  N4_18 
ROOT
HETATM    1  C1  UNL     1      18.156  -1.445  12.924  1.00  0.00     0.156 C 
HETATM    2  N1  UNL     1      17.727  -1.625  11.526  1.00  0.00    -0.352 N 
HETATM    3  C2  UNL     1      16.467  -1.645  11.063  1.00  0.00     0.092 A 
HETATM    4  C3  UNL     1      16.457  -1.835   9.699  1.00  0.00     0.033 A 
HETATM    5  C4  UNL     1      17.784  -1.938   9.301  1.00  0.00     0.018 A 
HETATM    6  C13 UNL     1      18.520  -1.802  10.456  1.00  0.00     0.127 A 
HETATM    7  C14 UNL     1      19.961  -1.845  10.515  1.00  0.00     0.118 C 
HETATM    8  N7  UNL     1      21.115  -1.891  10.561  1.00  0.00    -0.190 NA
ENDROOT
BRANCH   5   9
HETATM    9  C5  UNL     1      18.266  -2.145   7.934  1.00  0.00     0.104 C 
HETATM   10  N2  UNL     1      17.655  -2.919   7.108  1.00  0.00    -0.349 N 
ATOM     11  H2  UNL     1      16.813  -3.393   7.435  1.00  0.00     0.167 HD
BRANCH  10  12
HETATM   12  C6  UNL     1      18.067  -3.156   5.793  1.00  0.00     0.149 A 
HETATM   13  C7  UNL     1      18.958  -4.091   5.308  1.00  0.00     0.180 A 
HETATM   14  F1  UNL     1      19.621  -4.986   6.056  1.00  0.00    -0.201 F 
HETATM   15  C8  UNL     1      19.061  -3.960   3.927  1.00  0.00     0.119 A 
HETATM   16  C9  UNL     1      19.803  -4.639   2.958  1.00  0.00     0.276 A 
HETATM   17  C11 UNL     1      18.212  -2.926   3.596  1.00  0.00     0.143 A 
HETATM   18  O1  UNL     1      20.564  -5.576   3.312  1.00  0.00    -0.267 OA
HETATM   19  N3  UNL     1      19.656  -4.241   1.695  1.00  0.00    -0.155 N 
HETATM   20  C10 UNL     1      18.839  -3.242   1.352  1.00  0.00     0.680 A 
ATOM     21  H3  UNL     1      20.185  -4.717   0.965  1.00  0.00     0.187 HD
HETATM   22  N5  UNL     1      18.123  -2.591   2.305  1.00  0.00    -0.175 N 
ATOM     23  H5  UNL     1      17.503  -1.830   2.029  1.00  0.00     0.186 HD
HETATM   24  N6  UNL     1      17.627  -2.458   4.726  1.00  0.00    -0.320 N 
HETATM   25  C12 UNL     1      16.677  -1.374   4.763  1.00  0.00     0.159 C 
BRANCH  20  26
HETATM   26  N4  UNL     1      18.686  -2.849   0.148  1.00  0.00    -0.234 N 
ATOM     27  H42 UNL     1      19.160  -3.388  -0.576  1.00  0.00     0.174 HD
ATOM     28  H41 UNL     1      18.121  -2.039  -0.107  1.00  0.00     0.174 HD
ENDBRANCH  20  26
ENDBRANCH  10  12
ENDBRANCH   5   9
TORSDOF 3
ENDMDL
MODEL 4
REMARK VINA RESULT: -7.888103524      3.245      4.644
REMARK  3 active torsions:
REMARK  status: ('A' for Active; 'I' for Inactive)
REMARK    1  A    between atoms: C4_5  and  C5_6 
REMARK    2  A    between atoms: N2_7  and  C6_9 
REMARK    3  A    between atoms: C10_17  and  N4_18 
ROOT
HETATM    1  C1  UNL     1      17.000   0.387  12.411  1.00  0.00     0.156 C 
HETATM    2  N1  UNL     1      17.279  -0.724  11.486  1.00  0.00    -0.352 N 
HETATM    3  C2  UNL     1      17.059  -2.031  11.702  1.00  0.00     0.092 A 
HETATM    4  C3  UNL     1      17.445  -2.773  10.609  1.00  0.00     0.033 A 
HETATM    5  C4  UNL     1      17.930  -1.874   9.668  1.00  0.00     0.018 A 
HETATM    6  C13 UNL     1      17.806  -0.635  10.254  1.00  0.00     0.127 A 
HETATM    7  C14 UNL     1      18.192   0.607   9.627  1.00  0.00     0.118 C 
HETATM    8  N7  UNL     1      18.513   1.598   9.128  1.00  0.00    -0.190 NA
ENDROOT
BRANCH   5   9
HETATM    9  C5  UNL     1      18.455  -2.205   8.342  1.00  0.00     0.104 C 
HETATM   10  N2  UNL     1      17.813  -2.965   7.527  1.00  0.00    -0.349 N 
ATOM     11  H2  UNL     1      16.914  -3.339   7.833  1.00  0.00     0.167 HD
BRANCH  10  12
HETATM   12  C6  UNL     1      18.264  -3.315   6.250  1.00  0.00     0.149 A 
HETATM   13  C7  UNL     1      19.167  -4.288   5.876  1.00  0.00     0.180 A 
HETATM   14  F1  UNL     1      19.805  -5.114   6.718  1.00  0.00    -0.201 F 
HETATM   15  C8  UNL     1      19.311  -4.278   4.492  1.00  0.00     0.119 A 
HETATM   16  C9  UNL     1      20.080  -5.038   3.608  1.00  0.00     0.276 A 
HETATM   17  C11 UNL     1      18.474  -3.278   4.046  1.00  0.00     0.143 A 
HETATM   18  O1  UNL     1      20.829  -5.940   4.064  1.00  0.00    -0.267 OA
HETATM   19  N3  UNL     1      19.971  -4.752   2.311  1.00  0.00    -0.155 N 
HETATM   20  C10 UNL     1      19.166  -3.788   1.858  1.00  0.00     0.680 A 
ATOM     21  H3  UNL     1      20.521  -5.289   1.641  1.00  0.00     0.187 HD
HETATM   22  N5  UNL     1      18.423  -3.057   2.729  1.00  0.00    -0.175 N 
ATOM     23  H5  UNL     1      17.813  -2.323   2.370  1.00  0.00     0.186 HD
HETATM   24  N6  UNL     1      17.856  -2.713   5.114  1.00  0.00    -0.320 N 
HETATM   25  C12 UNL     1      16.907  -1.631   5.028  1.00  0.00     0.159 C 
BRANCH  20  26
HETATM   26  N4  UNL     1      19.049  -3.502   0.621  1.00  0.00    -0.234 N 
ATOM     27  H42 UNL     1      19.409  -4.184  -0.046  1.00  0.00     0.174 HD
ATOM     28  H41 UNL     1      18.620  -2.640   0.286  1.00  0.00     0.174 HD
ENDBRANCH  20  26
ENDBRANCH  10  12
ENDBRANCH   5   9
TORSDOF 3
ENDMDL
MODEL 5
REMARK VINA RESULT: -7.860014200      3.425      7.569
REMARK  3 active torsions:
REMARK  status: ('A' for Active; 'I' for Inactive)
REMARK    1  A    between atoms: C4_5  and  C5_6 
REMARK    2  A    between atoms: N2_7  and  C6_9 
REMARK    3  A    between atoms: C10_17  and  N4_18 
ROOT
HETATM    1  C1  UNL     1      21.103  -6.116   2.757  1.00  0.00     0.156 C 
HETATM    2  N1  UNL     1      20.068  -5.070   2.817  1.00  0.00    -0.352 N 
HETATM    3  C2  UNL     1      19.561  -4.373   1.786  1.00  0.00     0.092 A 
HETATM    4  C3  UNL     1      18.611  -3.480   2.228  1.00  0.00     0.033 A 
HETATM    5  C4  UNL     1      18.528  -3.636   3.606  1.00  0.00     0.018 A 
HETATM    6  C13 UNL     1      19.439  -4.620   3.915  1.00  0.00     0.127 A 
HETATM    7  C14 UNL     1      19.691  -5.109   5.249  1.00  0.00     0.118 C 
HETATM    8  N7  UNL     1      19.899  -5.491   6.320  1.00  0.00    -0.190 NA
ENDROOT
BRANCH   5   9
HETATM    9  C5  UNL     1      17.647  -2.894   4.511  1.00  0.00     0.104 C 
HETATM   10  N2  UNL     1      17.956  -2.689   5.743  1.00  0.00    -0.349 N 
ATOM     11  H2  UNL     1      18.844  -3.062   6.079  1.00  0.00     0.167 HD
BRANCH  10  12
HETATM   12  C6  UNL     1      17.156  -1.989   6.652  1.00  0.00     0.149 A 
HETATM   13  C7  UNL     1      16.580  -0.741   6.533  1.00  0.00     0.180 A 
HETATM   14  F1  UNL     1      16.692   0.062   5.465  1.00  0.00    -0.201 F 
HETATM   15  C8  UNL     1      15.866  -0.449   7.691  1.00  0.00     0.119 A 
HETATM   16  C9  UNL     1      15.109   0.655   8.090  1.00  0.00     0.276 A 
HETATM   17  C11 UNL     1      16.028  -1.548   8.506  1.00  0.00     0.143 A 
HETATM   18  O1  UNL     1      14.991   1.634   7.310  1.00  0.00    -0.267 OA
HETATM   19  N3  UNL     1      14.549   0.598   9.298  1.00  0.00    -0.155 N 
HETATM   20  C10 UNL     1      14.693  -0.457  10.104  1.00  0.00     0.680 A 
ATOM     21  H3  UNL     1      13.991   1.390   9.619  1.00  0.00     0.187 HD
HETATM   22  N5  UNL     1      15.432  -1.523   9.701  1.00  0.00    -0.175 N 
ATOM     23  H5  UNL     1      15.534  -2.323  10.326  1.00  0.00     0.186 HD
HETATM   24  N6  UNL     1      16.804  -2.459   7.866  1.00  0.00    -0.320 N 
HETATM   25  C12 UNL     1      17.184  -3.736   8.417  1.00  0.00     0.159 C 
BRANCH  20  26
HETATM   26  N4  UNL     1      14.164  -0.527  11.262  1.00  0.00    -0.234 N 
ATOM     27  H42 UNL     1      14.593   0.032  11.999  1.00  0.00     0.174 HD
ATOM     28  H41 UNL     1      13.350  -1.104  11.469  1.00  0.00     0.174 HD
ENDBRANCH  20  26
ENDBRANCH  10  12
ENDBRANCH   5   9
TORSDOF 3
ENDMDL
