MODEL 1
REMARK VINA RESULT: -9.192361397      0.000      0.000
REMARK  3 active torsions:
REMARK  status: ('A' for Active; 'I' for Inactive)
REMARK    1  A    between atoms: N1_1  and  C1_4 
REMARK    2  A    between atoms: C8_19  and  O2_20 
REMARK    3  A    between atoms: O2_20  and  C9_21 
ROOT
HETATM    1  C1  UNL     1      14.759   0.526   4.681  1.00  0.00     0.679 A 
HETATM    2  N2  UNL     1      15.488  -0.185   3.815  1.00  0.00    -0.176 N 
ATOM      3  H2  UNL     1      15.359  -0.042   2.813  1.00  0.00     0.186 HD
HETATM    4  C2  UNL     1      16.380  -1.081   4.242  1.00  0.00     0.142 A 
HETATM    5  N3  UNL     1      17.118  -1.802   3.374  1.00  0.00    -0.325 N 
ATOM      6  H3  UNL     1      17.009  -1.679   2.367  1.00  0.00     0.169 HD
HETATM    7  C3  UNL     1      18.005  -2.692   3.868  1.00  0.00     0.140 A 
HETATM    8  C4  UNL     1      18.890  -3.565   3.253  1.00  0.00     0.012 A 
HETATM    9  C5  UNL     1      19.584  -4.269   4.204  1.00  0.00     0.036 A 
HETATM   10  N4  UNL     1      19.103  -3.808   5.396  1.00  0.00    -0.293 N 
ATOM     11  H4  UNL     1      19.412  -4.129   6.314  1.00  0.00     0.187 HD
HETATM   12  N5  UNL     1      18.179  -2.885   5.187  1.00  0.00    -0.202 N 
HETATM   13  C6  UNL     1      17.458  -2.180   6.078  1.00  0.00     0.286 A 
HETATM   14  O1  UNL     1      17.636  -2.375   7.306  1.00  0.00    -0.265 OA
HETATM   15  C7  UNL     1      16.540  -1.259   5.609  1.00  0.00     0.130 A 
HETATM   16  C8  UNL     1      15.785  -0.522   6.524  1.00  0.00     0.182 A 
HETATM   17  N6  UNL     1      14.912   0.354   6.022  1.00  0.00    -0.169 N 
ATOM     18  H6  UNL     1      14.345   0.911   6.661  1.00  0.00     0.186 HD
HETATM   19  C10 UNL     1      20.613  -5.287   3.883  1.00  0.00     0.059 C 
HETATM   20  C11 UNL     1      20.591  -5.706   2.464  1.00  0.00     0.006 C 
HETATM   21  C12 UNL     1      19.350  -5.316   1.694  1.00  0.00     0.005 C 
HETATM   22  C13 UNL     1      19.144  -3.798   1.805  1.00  0.00     0.044 C 
ENDROOT
BRANCH  16  23
HETATM   23  O2  UNL     1      16.003  -0.759   7.858  1.00  0.00    -0.272 OA
BRANCH  23  24
HETATM   24  C9  UNL     1      15.040  -1.098   8.816  1.00  0.00     0.506 C 
HETATM   25  F1  UNL     1      14.152  -1.986   8.197  1.00  0.00    -0.184 F 
HETATM   26  F2  UNL     1      15.630  -1.806   9.872  1.00  0.00    -0.184 F 
ENDBRANCH  23  24
ENDBRANCH  16  23
BRANCH   1  27
HETATM   27  N1  UNL     1      13.908   1.380   4.232  1.00  0.00    -0.234 N 
ATOM     28  H12 UNL     1      14.230   2.247   3.803  1.00  0.00     0.174 HD
ATOM     29  H11 UNL     1      12.911   1.177   4.311  1.00  0.00     0.174 HD
ENDBRANCH   1  27
TORSDOF 3
ENDMDL
MODEL 2
REMARK VINA RESULT: -9.086261174      2.469      3.807
REMARK  3 active torsions:
REMARK  status: ('A' for Active; 'I' for Inactive)
REMARK    1  A    between atoms: N1_1  and  C1_4 
REMARK    2  A    between atoms: C8_19  and  O2_20 
REMARK    3  A    between atoms: O2_20  and  C9_21 
ROOT
HETATM    1  C1  UNL     1      16.906  -2.573  10.404  1.00  0.00     0.679 A 
HETATM    2  N2  UNL     1      17.690  -3.407   9.714  1.00  0.00    -0.176 N 
ATOM      3  H2  UNL     1      18.208  -4.135  10.207  1.00  0.00     0.186 HD
HETATM    4  C2  UNL     1      17.805  -3.301   8.388  1.00  0.00     0.142 A 
HETATM    5  N3  UNL     1      18.594  -4.138   7.685  1.00  0.00    -0.325 N 
ATOM      6  H3  UNL     1      19.122  -4.874   8.153  1.00  0.00     0.169 HD
HETATM    7  C3  UNL     1      18.667  -3.980   6.347  1.00  0.00     0.140 A 
HETATM    8  C4  UNL     1      19.372  -4.661   5.365  1.00  0.00     0.012 A 
HETATM    9  C5  UNL     1      19.109  -4.110   4.137  1.00  0.00     0.036 A 
HETATM   10  N4  UNL     1      18.238  -3.090   4.395  1.00  0.00    -0.293 N 
ATOM     11  H4  UNL     1      17.839  -2.469   3.689  1.00  0.00     0.187 HD
HETATM   12  N5  UNL     1      17.987  -3.023   5.691  1.00  0.00    -0.202 N 
HETATM   13  C6  UNL     1      17.191  -2.172   6.366  1.00  0.00     0.286 A 
HETATM   14  O1  UNL     1      16.564  -1.285   5.735  1.00  0.00    -0.265 OA
HETATM   15  C7  UNL     1      17.090  -2.304   7.739  1.00  0.00     0.130 A 
HETATM   16  C8  UNL     1      16.268  -1.427   8.449  1.00  0.00     0.182 A 
HETATM   17  N6  UNL     1      16.204  -1.595   9.772  1.00  0.00    -0.169 N 
ATOM     18  H6  UNL     1      15.613  -0.973  10.322  1.00  0.00     0.186 HD
HETATM   19  C10 UNL     1      19.702  -4.604   2.871  1.00  0.00     0.059 C 
HETATM   20  C11 UNL     1      20.842  -5.522   3.086  1.00  0.00     0.006 C 
HETATM   21  C12 UNL     1      21.419  -5.521   4.483  1.00  0.00     0.005 C 
HETATM   22  C13 UNL     1      20.299  -5.819   5.490  1.00  0.00     0.044 C 
ENDROOT
BRANCH  16  23
HETATM   23  O2  UNL     1      15.597  -0.470   7.730  1.00  0.00    -0.272 OA
BRANCH  23  24
HETATM   24  C9  UNL     1      14.221  -0.212   7.761  1.00  0.00     0.506 C 
HETATM   25  F1  UNL     1      13.873   0.270   6.494  1.00  0.00    -0.184 F 
HETATM   26  F2  UNL     1      13.505  -1.405   7.938  1.00  0.00    -0.184 F 
ENDBRANCH  23  24
ENDBRANCH  16  23
BRANCH   1  27
HETATM   27  N1  UNL     1      16.821  -2.706  11.682  1.00  0.00    -0.234 N 
ATOM     28  H12 UNL     1      16.049  -3.232  12.092  1.00  0.00     0.174 HD
ATOM     29  H11 UNL     1      17.534  -2.281  12.275  1.00  0.00     0.174 HD
ENDBRANCH   1  27
TORSDOF 3
ENDMDL
MODEL 3
REMARK VINA RESULT: -9.000379237      1.005      1.199
REMARK  3 active torsions:
REMARK  status: ('A' for Active; 'I' for Inactive)
REMARK    1  A    between atoms: N1_1  and  C1_4 
REMARK    2  A    between atoms: C8_19  and  O2_20 
REMARK    3  A    between atoms: O2_20  and  C9_21 
ROOT
HETATM    1  C1  UNL     1      14.797   0.532   4.678  1.00  0.00     0.679 A 
HETATM    2  N2  UNL     1      15.501  -0.200   3.809  1.00  0.00    -0.176 N 
ATOM      3  H2  UNL     1      15.341  -0.085   2.808  1.00  0.00     0.186 HD
HETATM    4  C2  UNL     1      16.412  -1.079   4.233  1.00  0.00     0.142 A 
HETATM    5  N3  UNL     1      17.126  -1.821   3.363  1.00  0.00    -0.325 N 
ATOM      6  H3  UNL     1      16.985  -1.726   2.357  1.00  0.00     0.169 HD
HETATM    7  C3  UNL     1      18.033  -2.692   3.854  1.00  0.00     0.140 A 
HETATM    8  C4  UNL     1      18.903  -3.578   3.236  1.00  0.00     0.012 A 
HETATM    9  C5  UNL     1      19.630  -4.252   4.184  1.00  0.00     0.036 A 
HETATM   10  N4  UNL     1      19.184  -3.760   5.377  1.00  0.00    -0.293 N 
ATOM     11  H4  UNL     1      19.523  -4.053   6.294  1.00  0.00     0.187 HD
HETATM   12  N5  UNL     1      18.249  -2.848   5.171  1.00  0.00    -0.202 N 
HETATM   13  C6  UNL     1      17.552  -2.121   6.065  1.00  0.00     0.286 A 
HETATM   14  O1  UNL     1      17.769  -2.280   7.292  1.00  0.00    -0.265 OA
HETATM   15  C7  UNL     1      16.614  -1.217   5.599  1.00  0.00     0.130 A 
HETATM   16  C8  UNL     1      15.885  -0.459   6.516  1.00  0.00     0.182 A 
HETATM   17  N6  UNL     1      14.992   0.399   6.017  1.00  0.00    -0.169 N 
ATOM     18  H6  UNL     1      14.442   0.971   6.658  1.00  0.00     0.186 HD
HETATM   19  C10 UNL     1      20.655  -5.274   3.860  1.00  0.00     0.059 C 
HETATM   20  C11 UNL     1      20.590  -5.732   2.455  1.00  0.00     0.006 C 
HETATM   21  C12 UNL     1      19.324  -5.370   1.713  1.00  0.00     0.005 C 
HETATM   22  C13 UNL     1      19.113  -3.851   1.788  1.00  0.00     0.044 C 
ENDROOT
BRANCH  16  23
HETATM   23  O2  UNL     1      16.146  -0.657   7.849  1.00  0.00    -0.272 OA
BRANCH  23  24
HETATM   24  C9  UNL     1      16.355   0.334   8.817  1.00  0.00     0.506 C 
HETATM   25  F1  UNL     1      17.089  -0.262   9.849  1.00  0.00    -0.184 F 
HETATM   26  F2  UNL     1      17.162   1.357   8.300  1.00  0.00    -0.184 F 
ENDBRANCH  23  24
ENDBRANCH  16  23
BRANCH   1  27
HETATM   27  N1  UNL     1      13.927   1.370   4.231  1.00  0.00    -0.234 N 
ATOM     28  H12 UNL     1      13.418   1.973   4.878  1.00  0.00     0.174 HD
ATOM     29  H11 UNL     1      13.756   1.421   3.227  1.00  0.00     0.174 HD
ENDBRANCH   1  27
TORSDOF 3
ENDMDL
MODEL 4
REMARK VINA RESULT: -8.864394360      3.466      7.142
REMARK  3 active torsions:
REMARK  status: ('A' for Active; 'I' for Inactive)
REMARK    1  A    between atoms: N1_1  and  C1_4 
REMARK    2  A    between atoms: C8_19  and  O2_20 
REMARK    3  A    between atoms: O2_20  and  C9_21 
ROOT
HETATM    1  C1  UNL     1      20.102  -5.691   6.052  1.00  0.00     0.679 A 
HETATM    2  N2  UNL     1      19.471  -5.021   7.020  1.00  0.00    -0.176 N 
ATOM      3  H2  UNL     1      19.606  -5.295   7.994  1.00  0.00     0.186 HD
HETATM    4  C2  UNL     1      18.664  -3.997   6.732  1.00  0.00     0.142 A 
HETATM    5  N3  UNL     1      18.023  -3.316   7.703  1.00  0.00    -0.325 N 
ATOM      6  H3  UNL     1      18.141  -3.569   8.684  1.00  0.00     0.169 HD
HETATM    7  C3  UNL     1      17.222  -2.290   7.347  1.00  0.00     0.140 A 
HETATM    8  C4  UNL     1      16.443  -1.415   8.090  1.00  0.00     0.012 A 
HETATM    9  C5  UNL     1      15.804  -0.536   7.253  1.00  0.00     0.036 A 
HETATM   10  N4  UNL     1      16.209  -0.895   5.999  1.00  0.00    -0.293 N 
ATOM     11  H4  UNL     1      15.915  -0.438   5.136  1.00  0.00     0.187 HD
HETATM   12  N5  UNL     1      17.039  -1.923   6.067  1.00  0.00    -0.202 N 
HETATM   13  C6  UNL     1      17.665  -2.584   5.075  1.00  0.00     0.286 A 
HETATM   14  O1  UNL     1      17.481  -2.226   3.885  1.00  0.00    -0.265 OA
HETATM   15  C7  UNL     1      18.495  -3.641   5.402  1.00  0.00     0.130 A 
HETATM   16  C8  UNL     1      19.149  -4.334   4.382  1.00  0.00     0.182 A 
HETATM   17  N6  UNL     1      19.939  -5.346   4.747  1.00  0.00    -0.169 N 
ATOM     18  H6  UNL     1      20.434  -5.873   4.029  1.00  0.00     0.186 HD
HETATM   19  C10 UNL     1      14.893   0.534   7.726  1.00  0.00     0.059 C 
HETATM   20  C11 UNL     1      14.482   0.363   9.137  1.00  0.00     0.006 C 
HETATM   21  C12 UNL     1      14.754  -1.001   9.729  1.00  0.00     0.005 C 
HETATM   22  C13 UNL     1      16.243  -1.335   9.563  1.00  0.00     0.044 C 
ENDROOT
BRANCH  16  23
HETATM   23  O2  UNL     1      18.927  -3.917   3.093  1.00  0.00    -0.272 OA
BRANCH  23  24
HETATM   24  C9  UNL     1      19.638  -4.312   1.952  1.00  0.00     0.506 C 
HETATM   25  F1  UNL     1      19.193  -5.598   1.626  1.00  0.00    -0.184 F 
HETATM   26  F2  UNL     1      19.306  -3.493   0.863  1.00  0.00    -0.184 F 
ENDBRANCH  23  24
ENDBRANCH  16  23
BRANCH   1  27
HETATM   27  N1  UNL     1      20.872  -6.673   6.369  1.00  0.00    -0.234 N 
ATOM     28  H12 UNL     1      21.390  -6.655   7.248  1.00  0.00     0.174 HD
ATOM     29  H11 UNL     1      20.954  -7.466   5.732  1.00  0.00     0.174 HD
ENDBRANCH   1  27
TORSDOF 3
ENDMDL
MODEL 5
REMARK VINA RESULT: -8.839359477      2.134      3.628
REMARK  3 active torsions:
REMARK  status: ('A' for Active; 'I' for Inactive)
REMARK    1  A    between atoms: N1_1  and  C1_4 
REMARK    2  A    between atoms: C8_19  and  O2_20 
REMARK    3  A    between atoms: O2_20  and  C9_21 
ROOT
HETATM    1  C1  UNL     1      17.482  -2.937   9.565  1.00  0.00     0.679 A 
HETATM    2  N2  UNL     1      17.927  -3.512   8.444  1.00  0.00    -0.176 N 
ATOM      3  H2  UNL     1      18.472  -4.373   8.503  1.00  0.00     0.186 HD
HETATM    4  C2  UNL     1      17.669  -2.977   7.248  1.00  0.00     0.142 A 
HETATM    5  N3  UNL     1      18.116  -3.553   6.113  1.00  0.00    -0.325 N 
ATOM      6  H3  UNL     1      18.663  -4.413   6.144  1.00  0.00     0.169 HD
HETATM    7  C3  UNL     1      17.821  -2.964   4.936  1.00  0.00     0.140 A 
HETATM    8  C4  UNL     1      18.127  -3.298   3.624  1.00  0.00     0.012 A 
HETATM    9  C5  UNL     1      17.591  -2.368   2.771  1.00  0.00     0.036 A 
HETATM   10  N4  UNL     1      16.962  -1.471   3.586  1.00  0.00    -0.293 N 
ATOM     11  H4  UNL     1      16.456  -0.645   3.266  1.00  0.00     0.187 HD
HETATM   12  N5  UNL     1      17.103  -1.831   4.851  1.00  0.00    -0.202 N 
HETATM   13  C6  UNL     1      16.643  -1.233   5.967  1.00  0.00     0.286 A 
HETATM   14  O1  UNL     1      15.974  -0.175   5.866  1.00  0.00    -0.265 OA
HETATM   15  C7  UNL     1      16.925  -1.808   7.192  1.00  0.00     0.130 A 
HETATM   16  C8  UNL     1      16.455  -1.197   8.356  1.00  0.00     0.182 A 
HETATM   17  N6  UNL     1      16.752  -1.790   9.514  1.00  0.00    -0.169 N 
ATOM     18  H6  UNL     1      16.424  -1.372  10.384  1.00  0.00     0.186 HD
HETATM   19  C10 UNL     1      17.732  -2.429   1.296  1.00  0.00     0.059 C 
HETATM   20  C11 UNL     1      18.766  -3.390   0.853  1.00  0.00     0.006 C 
HETATM   21  C12 UNL     1      19.715  -3.863   1.931  1.00  0.00     0.005 C 
HETATM   22  C13 UNL     1      18.903  -4.452   3.093  1.00  0.00     0.044 C 
ENDROOT
BRANCH  16  23
HETATM   23  O2  UNL     1      15.727  -0.042   8.212  1.00  0.00    -0.272 OA
BRANCH  23  24
HETATM   24  C9  UNL     1      14.409   0.175   8.635  1.00  0.00     0.506 C 
HETATM   25  F1  UNL     1      13.690  -0.984   8.320  1.00  0.00    -0.184 F 
HETATM   26  F2  UNL     1      14.359   0.302  10.030  1.00  0.00    -0.184 F 
ENDBRANCH  23  24
ENDBRANCH  16  23
BRANCH   1  27
HETATM   27  N1  UNL     1      17.751  -3.481  10.700  1.00  0.00    -0.234 N 
ATOM     28  H12 UNL     1      18.094  -4.441  10.738  1.00  0.00     0.174 HD
ATOM     29  H11 UNL     1      17.618  -2.941  11.555  1.00  0.00     0.174 HD
ENDBRANCH   1  27
TORSDOF 3
ENDMDL
