MODEL 1
REMARK VINA RESULT: -8.212680177      0.000      0.000
REMARK  3 active torsions:
REMARK  status: ('A' for Active; 'I' for Inactive)
REMARK    1  A    between atoms: C2_2  and  N1_4 
REMARK    2  A    between atoms: C6_12  and  N4_13 
REMARK    3  A    between atoms: C8_15  and  N5_16 
ROOT
HETATM    1  N1  UNL     1      18.771  -3.997   3.911  1.00  0.00    -0.267 N 
HETATM    2  C4  UNL     1      19.699  -4.952   4.247  1.00  0.00     0.333 A 
HETATM    3  O1  UNL     1      20.199  -5.735   3.376  1.00  0.00    -0.246 OA
HETATM    4  N2  UNL     1      19.985  -4.947   5.530  1.00  0.00    -0.292 N 
ATOM      5  H2  UNL     1      20.645  -5.568   6.000  1.00  0.00     0.172 HD
HETATM    6  C5  UNL     1      19.267  -3.994   6.107  1.00  0.00     0.140 A 
HETATM    7  N3  UNL     1      19.151  -3.544   7.354  1.00  0.00    -0.324 N 
ATOM      8  H3  UNL     1      19.715  -3.990   8.077  1.00  0.00     0.169 HD
HETATM    9  C6  UNL     1      18.342  -2.543   7.721  1.00  0.00     0.146 A 
HETATM   10  C12 UNL     1      17.576  -1.928   6.770  1.00  0.00     0.186 A 
HETATM   11  F2  UNL     1      16.745  -0.915   7.076  1.00  0.00    -0.200 F 
HETATM   12  C13 UNL     1      17.670  -2.371   5.445  1.00  0.00     0.119 A 
HETATM   13  N6  UNL     1      16.854  -1.699   4.505  1.00  0.00    -0.096 NA
HETATM   14  C14 UNL     1      18.499  -3.388   5.098  1.00  0.00     0.115 A 
ENDROOT
BRANCH   9  15
HETATM   15  N4  UNL     1      18.284  -2.126   9.103  1.00  0.00    -0.359 N 
HETATM   16  C7  UNL     1      17.136  -2.296   9.944  1.00  0.00     0.160 C 
HETATM   17  C8  UNL     1      17.701  -2.135  11.327  1.00  0.00     0.242 C 
HETATM   18  C9  UNL     1      18.877  -1.228  11.175  1.00  0.00     0.145 C 
HETATM   19  C10 UNL     1      19.914  -1.579  12.220  1.00  0.00     0.056 C 
HETATM   20  F1  UNL     1      18.552   0.109  11.327  1.00  0.00    -0.239 F 
HETATM   21  C11 UNL     1      19.372  -1.494   9.785  1.00  0.00     0.170 C 
BRANCH  17  22
HETATM   22  N5  UNL     1      18.135  -3.416  11.834  1.00  0.00    -0.070 N 
ATOM     23  H53 UNL     1      17.837  -4.185  11.234  1.00  0.00     0.274 HD
ATOM     24  H52 UNL     1      19.143  -3.540  11.748  1.00  0.00     0.274 HD
ATOM     25  H51 UNL     1      17.815  -3.535  12.796  1.00  0.00     0.274 HD
ENDBRANCH  17  22
ENDBRANCH   9  15
BRANCH   1  26
HETATM   26  C2  UNL     1      18.238  -3.729   2.604  1.00  0.00    -0.008 C 
HETATM   27  C1  UNL     1      19.230  -3.528   1.504  1.00  0.00     0.063 C 
HETATM   28  C3  UNL     1      16.992  -4.488   2.237  1.00  0.00     0.063 C 
ENDBRANCH   1  26
TORSDOF 3
ENDMDL
MODEL 2
REMARK VINA RESULT: -7.839766081      1.023      1.511
REMARK  3 active torsions:
REMARK  status: ('A' for Active; 'I' for Inactive)
REMARK    1  A    between atoms: C2_2  and  N1_4 
REMARK    2  A    between atoms: C6_12  and  N4_13 
REMARK    3  A    between atoms: C8_15  and  N5_16 
ROOT
HETATM    1  N1  UNL     1      18.800  -4.019   3.752  1.00  0.00    -0.267 N 
HETATM    2  C4  UNL     1      19.768  -4.958   4.007  1.00  0.00     0.333 A 
HETATM    3  O1  UNL     1      20.243  -5.697   3.085  1.00  0.00    -0.246 OA
HETATM    4  N2  UNL     1      20.119  -4.988   5.273  1.00  0.00    -0.292 N 
ATOM      5  H2  UNL     1      20.817  -5.606   5.687  1.00  0.00     0.172 HD
HETATM    6  C5  UNL     1      19.406  -4.076   5.919  1.00  0.00     0.140 A 
HETATM    7  N3  UNL     1      19.341  -3.671   7.185  1.00  0.00    -0.324 N 
ATOM      8  H3  UNL     1      19.953  -4.126   7.863  1.00  0.00     0.169 HD
HETATM    9  C6  UNL     1      18.526  -2.706   7.626  1.00  0.00     0.146 A 
HETATM   10  C12 UNL     1      17.698  -2.081   6.737  1.00  0.00     0.186 A 
HETATM   11  F2  UNL     1      16.857  -1.103   7.120  1.00  0.00    -0.200 F 
HETATM   12  C13 UNL     1      17.736  -2.477   5.395  1.00  0.00     0.119 A 
HETATM   13  N6  UNL     1      16.856  -1.796   4.521  1.00  0.00    -0.096 NA
HETATM   14  C14 UNL     1      18.572  -3.458   4.971  1.00  0.00     0.115 A 
ENDROOT
BRANCH   9  15
HETATM   15  N4  UNL     1      18.528  -2.337   9.024  1.00  0.00    -0.359 N 
HETATM   16  C7  UNL     1      19.629  -1.698   9.682  1.00  0.00     0.160 C 
HETATM   17  C8  UNL     1      19.002  -1.142  10.929  1.00  0.00     0.242 C 
HETATM   18  C9  UNL     1      17.859  -2.050  11.242  1.00  0.00     0.145 C 
HETATM   19  C10 UNL     1      16.764  -1.255  11.919  1.00  0.00     0.056 C 
HETATM   20  F1  UNL     1      18.211  -3.094  12.080  1.00  0.00    -0.239 F 
HETATM   21  C11 UNL     1      17.425  -2.572   9.905  1.00  0.00     0.170 C 
BRANCH  17  22
HETATM   22  N5  UNL     1      18.511   0.193  10.679  1.00  0.00    -0.070 N 
ATOM     23  H53 UNL     1      18.548   0.435   9.689  1.00  0.00     0.274 HD
ATOM     24  H52 UNL     1      17.502   0.262  10.812  1.00  0.00     0.274 HD
ATOM     25  H51 UNL     1      19.019   0.864  11.256  1.00  0.00     0.274 HD
ENDBRANCH  17  22
ENDBRANCH   9  15
BRANCH   1  26
HETATM   26  C2  UNL     1      18.193  -3.722   2.483  1.00  0.00    -0.008 C 
HETATM   27  C1  UNL     1      19.123  -3.472   1.339  1.00  0.00     0.063 C 
HETATM   28  C3  UNL     1      16.942  -4.491   2.159  1.00  0.00     0.063 C 
ENDBRANCH   1  26
TORSDOF 3
ENDMDL
MODEL 3
REMARK VINA RESULT: -7.770273140      3.860      5.315
REMARK  3 active torsions:
REMARK  status: ('A' for Active; 'I' for Inactive)
REMARK    1  A    between atoms: C2_2  and  N1_4 
REMARK    2  A    between atoms: C6_12  and  N4_13 
REMARK    3  A    between atoms: C8_15  and  N5_16 
ROOT
HETATM    1  N1  UNL     1      17.436  -2.299   3.029  1.00  0.00    -0.267 N 
HETATM    2  C4  UNL     1      17.200  -1.543   1.907  1.00  0.00     0.333 A 
HETATM    3  O1  UNL     1      17.402  -2.002   0.737  1.00  0.00    -0.246 OA
HETATM    4  N2  UNL     1      16.758  -0.340   2.196  1.00  0.00    -0.292 N 
ATOM      5  H2  UNL     1      16.519   0.389   1.522  1.00  0.00     0.172 HD
HETATM    6  C5  UNL     1      16.679  -0.236   3.515  1.00  0.00     0.140 A 
HETATM    7  N3  UNL     1      16.305   0.729   4.351  1.00  0.00    -0.324 N 
ATOM      8  H3  UNL     1      15.997   1.616   3.950  1.00  0.00     0.169 HD
HETATM    9  C6  UNL     1      16.304   0.613   5.684  1.00  0.00     0.146 A 
HETATM   10  C12 UNL     1      16.710  -0.565   6.246  1.00  0.00     0.186 A 
HETATM   11  F2  UNL     1      16.731  -0.744   7.579  1.00  0.00    -0.200 F 
HETATM   12  C13 UNL     1      17.112  -1.607   5.400  1.00  0.00     0.119 A 
HETATM   13  N6  UNL     1      17.523  -2.801   6.037  1.00  0.00    -0.096 NA
HETATM   14  C14 UNL     1      17.103  -1.464   4.051  1.00  0.00     0.115 A 
ENDROOT
BRANCH   9  15
HETATM   15  N4  UNL     1      15.880   1.720   6.509  1.00  0.00    -0.359 N 
HETATM   16  C7  UNL     1      16.764   2.731   7.011  1.00  0.00     0.160 C 
HETATM   17  C8  UNL     1      15.827   3.839   7.399  1.00  0.00     0.242 C 
HETATM   18  C9  UNL     1      14.543   3.170   7.758  1.00  0.00     0.145 C 
HETATM   19  C10 UNL     1      13.391   4.095   7.425  1.00  0.00     0.056 C 
HETATM   20  F1  UNL     1      14.457   2.847   9.101  1.00  0.00    -0.239 F 
HETATM   21  C11 UNL     1      14.524   1.929   6.916  1.00  0.00     0.170 C 
BRANCH  17  22
HETATM   22  N5  UNL     1      15.620   4.725   6.277  1.00  0.00    -0.070 N 
ATOM     23  H53 UNL     1      16.235   4.500   5.494  1.00  0.00     0.274 HD
ATOM     24  H52 UNL     1      14.726   4.557   5.817  1.00  0.00     0.274 HD
ATOM     25  H51 UNL     1      15.721   5.695   6.575  1.00  0.00     0.274 HD
ENDBRANCH  17  22
ENDBRANCH   9  15
BRANCH   1  26
HETATM   26  C2  UNL     1      17.919  -3.653   3.076  1.00  0.00    -0.008 C 
HETATM   27  C1  UNL     1      17.093  -4.682   2.375  1.00  0.00     0.063 C 
HETATM   28  C3  UNL     1      19.410  -3.819   2.971  1.00  0.00     0.063 C 
ENDBRANCH   1  26
TORSDOF 3
ENDMDL
MODEL 4
REMARK VINA RESULT: -7.670038339      1.803      2.634
REMARK  3 active torsions:
REMARK  status: ('A' for Active; 'I' for Inactive)
REMARK    1  A    between atoms: C2_2  and  N1_4 
REMARK    2  A    between atoms: C6_12  and  N4_13 
REMARK    3  A    between atoms: C8_15  and  N5_16 
ROOT
HETATM    1  N1  UNL     1      17.648  -2.698   3.379  1.00  0.00    -0.267 N 
HETATM    2  C4  UNL     1      16.967  -1.521   3.188  1.00  0.00     0.333 A 
HETATM    3  O1  UNL     1      16.576  -1.154   2.034  1.00  0.00    -0.246 OA
HETATM    4  N2  UNL     1      16.785  -0.857   4.308  1.00  0.00    -0.292 N 
ATOM      5  H2  UNL     1      16.307   0.039   4.403  1.00  0.00     0.172 HD
HETATM    6  C5  UNL     1      17.332  -1.556   5.293  1.00  0.00     0.140 A 
HETATM    7  N3  UNL     1      17.447  -1.378   6.607  1.00  0.00    -0.324 N 
ATOM      8  H3  UNL     1      17.045  -0.531   7.010  1.00  0.00     0.169 HD
HETATM    9  C6  UNL     1      18.056  -2.236   7.433  1.00  0.00     0.146 A 
HETATM   10  C12 UNL     1      18.601  -3.378   6.917  1.00  0.00     0.186 A 
HETATM   11  F2  UNL     1      19.225  -4.280   7.695  1.00  0.00    -0.200 F 
HETATM   12  C13 UNL     1      18.500  -3.604   5.538  1.00  0.00     0.119 A 
HETATM   13  N6  UNL     1      19.084  -4.801   5.060  1.00  0.00    -0.096 NA
HETATM   14  C14 UNL     1      17.878  -2.718   4.721  1.00  0.00     0.115 A 
ENDROOT
BRANCH   9  15
HETATM   15  N4  UNL     1      18.131  -1.953   8.848  1.00  0.00    -0.359 N 
HETATM   16  C7  UNL     1      17.020  -2.063   9.747  1.00  0.00     0.160 C 
HETATM   17  C8  UNL     1      17.680  -2.108  11.097  1.00  0.00     0.242 C 
HETATM   18  C9  UNL     1      18.952  -1.342  10.946  1.00  0.00     0.145 C 
HETATM   19  C10 UNL     1      19.993  -1.919  11.881  1.00  0.00     0.056 C 
HETATM   20  F1  UNL     1      18.812   0.003  11.240  1.00  0.00    -0.239 F 
HETATM   21  C11 UNL     1      19.329  -1.530   9.507  1.00  0.00     0.170 C 
BRANCH  17  22
HETATM   22  N5  UNL     1      17.972  -3.476  11.456  1.00  0.00    -0.070 N 
ATOM     23  H53 UNL     1      18.906  -3.575  11.855  1.00  0.00     0.274 HD
ATOM     24  H52 UNL     1      17.431  -3.784  12.263  1.00  0.00     0.274 HD
ATOM     25  H51 UNL     1      17.835  -4.085  10.649  1.00  0.00     0.274 HD
ENDBRANCH  17  22
ENDBRANCH   9  15
BRANCH   1  26
HETATM   26  C2  UNL     1      18.012  -3.661   2.376  1.00  0.00    -0.008 C 
HETATM   27  C1  UNL     1      17.044  -4.774   2.134  1.00  0.00     0.063 C 
HETATM   28  C3  UNL     1      18.700  -3.109   1.158  1.00  0.00     0.063 C 
ENDBRANCH   1  26
TORSDOF 3
ENDMDL
MODEL 5
REMARK VINA RESULT: -7.663308061      1.617      2.139
REMARK  3 active torsions:
REMARK  status: ('A' for Active; 'I' for Inactive)
REMARK    1  A    between atoms: C2_2  and  N1_4 
REMARK    2  A    between atoms: C6_12  and  N4_13 
REMARK    3  A    between atoms: C8_15  and  N5_16 
ROOT
HETATM    1  N1  UNL     1      18.499  -3.687   3.790  1.00  0.00    -0.267 N 
HETATM    2  C4  UNL     1      19.463  -4.505   4.326  1.00  0.00     0.333 A 
HETATM    3  O1  UNL     1      20.004  -5.435   3.646  1.00  0.00    -0.246 OA
HETATM    4  N2  UNL     1      19.734  -4.209   5.577  1.00  0.00    -0.292 N 
ATOM      5  H2  UNL     1      20.415  -4.684   6.171  1.00  0.00     0.172 HD
HETATM    6  C5  UNL     1      18.970  -3.186   5.933  1.00  0.00     0.140 A 
HETATM    7  N3  UNL     1      18.821  -2.482   7.052  1.00  0.00    -0.324 N 
ATOM      8  H3  UNL     1      19.396  -2.737   7.856  1.00  0.00     0.169 HD
HETATM    9  C6  UNL     1      17.967  -1.462   7.193  1.00  0.00     0.146 A 
HETATM   10  C12 UNL     1      17.187  -1.101   6.130  1.00  0.00     0.186 A 
HETATM   11  F2  UNL     1      16.310  -0.084   6.208  1.00  0.00    -0.200 F 
HETATM   12  C13 UNL     1      17.314  -1.817   4.933  1.00  0.00     0.119 A 
HETATM   13  N6  UNL     1      16.481  -1.400   3.868  1.00  0.00    -0.096 NA
HETATM   14  C14 UNL     1      18.188  -2.848   4.816  1.00  0.00     0.115 A 
ENDROOT
BRANCH   9  15
HETATM   15  N4  UNL     1      17.877  -0.758   8.451  1.00  0.00    -0.359 N 
HETATM   16  C7  UNL     1      18.772   0.288   8.851  1.00  0.00     0.160 C 
HETATM   17  C8  UNL     1      18.025   0.968   9.963  1.00  0.00     0.242 C 
HETATM   18  C9  UNL     1      17.165  -0.089  10.571  1.00  0.00     0.145 C 
HETATM   19  C10 UNL     1      15.900   0.547  11.109  1.00  0.00     0.056 C 
HETATM   20  F1  UNL     1      17.784  -0.757  11.614  1.00  0.00    -0.239 F 
HETATM   21  C11 UNL     1      16.879  -1.031   9.440  1.00  0.00     0.170 C 
BRANCH  17  22
HETATM   22  N5  UNL     1      17.197   2.023   9.427  1.00  0.00    -0.070 N 
ATOM     23  H53 UNL     1      17.437   2.933   9.819  1.00  0.00     0.274 HD
ATOM     24  H52 UNL     1      17.413   2.220   8.450  1.00  0.00     0.274 HD
ATOM     25  H51 UNL     1      16.212   1.795   9.562  1.00  0.00     0.274 HD
ENDBRANCH  17  22
ENDBRANCH   9  15
BRANCH   1  26
HETATM   26  C2  UNL     1      17.969  -3.731   2.454  1.00  0.00    -0.008 C 
HETATM   27  C1  UNL     1      18.947  -3.549   1.339  1.00  0.00     0.063 C 
HETATM   28  C3  UNL     1      16.879  -4.740   2.217  1.00  0.00     0.063 C 
ENDBRANCH   1  26
TORSDOF 3
ENDMDL
