MODEL 1
REMARK VINA RESULT: -6.803656377      0.000      0.000
REMARK  3 active torsions:
REMARK  status: ('A' for Active; 'I' for Inactive)
REMARK    1  A    between atoms: N1_1  and  C1_4 
REMARK    2  A    between atoms: N4_13  and  C4_14 
REMARK    3  A    between atoms: C8_18  and  S1_19 
ROOT
HETATM    1  C1  UNL     1      17.897  -2.640  11.254  1.00  0.00     0.686 A 
HETATM    2  N2  UNL     1      18.139  -3.208  12.457  1.00  0.00    -0.141 N 
ATOM      3  H2  UNL     1      17.373  -3.604  13.002  1.00  0.00     0.189 HD
HETATM    4  C2  UNL     1      19.402  -3.246  12.931  1.00  0.00     0.342 A 
HETATM    5  O1  UNL     1      19.627  -3.772  14.047  1.00  0.00    -0.246 OA
HETATM    6  N3  UNL     1      20.381  -2.709  12.176  1.00  0.00    -0.259 N 
ATOM      7  H3  UNL     1      21.343  -2.728  12.517  1.00  0.00     0.175 HD
HETATM    8  C3  UNL     1      20.118  -2.152  10.989  1.00  0.00     0.345 A 
HETATM    9  O2  UNL     1      21.091  -1.674  10.349  1.00  0.00    -0.246 OA
HETATM   10  N4  UNL     1      18.839  -2.106  10.494  1.00  0.00    -0.128 N 
ENDROOT
BRANCH  10  11
HETATM   11  C4  UNL     1      18.714  -1.483   9.221  1.00  0.00     0.118 C 
HETATM   12  C5  UNL     1      18.529  -2.582   8.192  1.00  0.00     0.027 C 
HETATM   13  C6  UNL     1      17.271  -2.462   7.395  1.00  0.00     0.004 C 
HETATM   14  C7  UNL     1      17.486  -1.528   6.205  1.00  0.00     0.022 C 
HETATM   15  C8  UNL     1      17.113  -0.158   6.678  1.00  0.00     0.131 C 
HETATM   16  C9  UNL     1      18.115   0.297   7.689  1.00  0.00     0.258 C 
HETATM   17  F1  UNL     1      19.412   0.010   7.310  1.00  0.00    -0.205 F 
HETATM   18  F2  UNL     1      18.028   1.674   7.772  1.00  0.00    -0.205 F 
HETATM   19  C10 UNL     1      17.802  -0.348   9.057  1.00  0.00     0.106 C 
BRANCH  15  20
HETATM   20  S1  UNL     1      16.837   1.012   5.346  1.00  0.00    -0.074 SA
HETATM   21  S2  UNL     1      15.033   2.087   5.780  1.00  0.00    -0.013 SA
ENDBRANCH  15  20
ENDBRANCH  10  11
BRANCH   1  22
HETATM   22  N1  UNL     1      16.707  -2.613  10.823  1.00  0.00    -0.234 N 
ATOM     23  H12 UNL     1      16.208  -3.499  10.752  1.00  0.00     0.174 HD
ATOM     24  H11 UNL     1      16.301  -1.713  10.568  1.00  0.00     0.174 HD
ENDBRANCH   1  22
TORSDOF 3
ENDMDL
MODEL 2
REMARK VINA RESULT: -6.705430325      6.763      8.650
REMARK  3 active torsions:
REMARK  status: ('A' for Active; 'I' for Inactive)
REMARK    1  A    between atoms: N1_1  and  C1_4 
REMARK    2  A    between atoms: N4_13  and  C4_14 
REMARK    3  A    between atoms: C8_18  and  S1_19 
ROOT
HETATM    1  C1  UNL     1      14.423   3.918   5.460  1.00  0.00     0.686 A 
HETATM    2  N2  UNL     1      14.023   5.085   4.905  1.00  0.00    -0.141 N 
ATOM      3  H2  UNL     1      14.646   5.894   4.904  1.00  0.00     0.189 HD
HETATM    4  C2  UNL     1      12.795   5.171   4.354  1.00  0.00     0.342 A 
HETATM    5  O1  UNL     1      12.423   6.253   3.839  1.00  0.00    -0.246 OA
HETATM    6  N3  UNL     1      12.008   4.077   4.380  1.00  0.00    -0.259 N 
ATOM      7  H3  UNL     1      11.075   4.122   3.968  1.00  0.00     0.175 HD
HETATM    8  C3  UNL     1      12.424   2.934   4.934  1.00  0.00     0.345 A 
HETATM    9  O2  UNL     1      11.626   1.961   4.916  1.00  0.00    -0.246 OA
HETATM   10  N4  UNL     1      13.671   2.830   5.499  1.00  0.00    -0.128 N 
ENDROOT
BRANCH  10  11
HETATM   11  C4  UNL     1      13.973   1.554   6.049  1.00  0.00     0.118 C 
HETATM   12  C5  UNL     1      14.859   0.827   5.055  1.00  0.00     0.027 C 
HETATM   13  C6  UNL     1      16.178   0.404   5.614  1.00  0.00     0.004 C 
HETATM   14  C7  UNL     1      16.045  -0.943   6.322  1.00  0.00     0.022 C 
HETATM   15  C8  UNL     1      15.733  -0.634   7.752  1.00  0.00     0.131 C 
HETATM   16  C9  UNL     1      14.365  -0.038   7.834  1.00  0.00     0.258 C 
HETATM   17  F1  UNL     1      13.453  -0.707   7.040  1.00  0.00    -0.205 F 
HETATM   18  F2  UNL     1      13.926  -0.178   9.137  1.00  0.00    -0.205 F 
HETATM   19  C10 UNL     1      14.424   1.454   7.439  1.00  0.00     0.106 C 
BRANCH  15  20
HETATM   20  S1  UNL     1      15.993  -2.020   8.861  1.00  0.00    -0.074 SA
HETATM   21  S2  UNL     1      17.412  -3.338   7.941  1.00  0.00    -0.013 SA
ENDBRANCH  15  20
ENDBRANCH  10  11
BRANCH   1  22
HETATM   22  N1  UNL     1      15.578   3.853   5.972  1.00  0.00    -0.234 N 
ATOM     23  H12 UNL     1      16.306   4.451   5.580  1.00  0.00     0.174 HD
ATOM     24  H11 UNL     1      15.733   3.211   6.749  1.00  0.00     0.174 HD
ENDBRANCH   1  22
TORSDOF 3
ENDMDL
MODEL 3
REMARK VINA RESULT: -6.527799059      5.230      6.987
REMARK  3 active torsions:
REMARK  status: ('A' for Active; 'I' for Inactive)
REMARK    1  A    between atoms: N1_1  and  C1_4 
REMARK    2  A    between atoms: N4_13  and  C4_14 
REMARK    3  A    between atoms: C8_18  and  S1_19 
ROOT
HETATM    1  C1  UNL     1      16.462  -0.159   3.979  1.00  0.00     0.686 A 
HETATM    2  N2  UNL     1      16.651  -0.134   2.639  1.00  0.00    -0.141 N 
ATOM      3  H2  UNL     1      16.352   0.673   2.092  1.00  0.00     0.189 HD
HETATM    4  C2  UNL     1      17.241  -1.186   2.034  1.00  0.00     0.342 A 
HETATM    5  O1  UNL     1      17.417  -1.164   0.792  1.00  0.00    -0.246 OA
HETATM    6  N3  UNL     1      17.619  -2.230   2.798  1.00  0.00    -0.259 N 
ATOM      7  H3  UNL     1      18.066  -3.035   2.359  1.00  0.00     0.175 HD
HETATM    8  C3  UNL     1      17.421  -2.232   4.120  1.00  0.00     0.345 A 
HETATM    9  O2  UNL     1      17.804  -3.247   4.758  1.00  0.00    -0.246 OA
HETATM   10  N4  UNL     1      16.824  -1.170   4.751  1.00  0.00    -0.128 N 
ENDROOT
BRANCH  10  11
HETATM   11  C4  UNL     1      16.680  -1.315   6.158  1.00  0.00     0.118 C 
HETATM   12  C5  UNL     1      17.871  -0.639   6.811  1.00  0.00     0.027 C 
HETATM   13  C6  UNL     1      17.504   0.444   7.770  1.00  0.00     0.004 C 
HETATM   14  C7  UNL     1      17.216  -0.145   9.150  1.00  0.00     0.022 C 
HETATM   15  C8  UNL     1      15.748  -0.433   9.182  1.00  0.00     0.131 C 
HETATM   16  C9  UNL     1      15.451  -1.550   8.235  1.00  0.00     0.258 C 
HETATM   17  F1  UNL     1      16.374  -2.574   8.324  1.00  0.00    -0.205 F 
HETATM   18  F2  UNL     1      14.232  -2.091   8.596  1.00  0.00    -0.205 F 
HETATM   19  C10 UNL     1      15.395  -1.005   6.791  1.00  0.00     0.106 C 
BRANCH  15  20
HETATM   20  S1  UNL     1      15.101  -0.688  10.836  1.00  0.00    -0.074 SA
HETATM   21  S2  UNL     1      16.505  -1.902  11.909  1.00  0.00    -0.013 SA
ENDBRANCH  15  20
ENDBRANCH  10  11
BRANCH   1  22
HETATM   22  N1  UNL     1      15.909   0.837   4.532  1.00  0.00    -0.234 N 
ATOM     23  H12 UNL     1      15.699   1.648   3.950  1.00  0.00     0.174 HD
ATOM     24  H11 UNL     1      15.698   0.787   5.528  1.00  0.00     0.174 HD
ENDBRANCH   1  22
TORSDOF 3
ENDMDL
MODEL 4
REMARK VINA RESULT: -6.411751359      5.232      6.918
REMARK  3 active torsions:
REMARK  status: ('A' for Active; 'I' for Inactive)
REMARK    1  A    between atoms: N1_1  and  C1_4 
REMARK    2  A    between atoms: N4_13  and  C4_14 
REMARK    3  A    between atoms: C8_18  and  S1_19 
ROOT
HETATM    1  C1  UNL     1      15.114   2.725   5.827  1.00  0.00     0.686 A 
HETATM    2  N2  UNL     1      14.676   3.961   5.493  1.00  0.00    -0.141 N 
ATOM      3  H2  UNL     1      14.129   4.100   4.644  1.00  0.00     0.189 HD
HETATM    4  C2  UNL     1      14.971   5.007   6.293  1.00  0.00     0.342 A 
HETATM    5  O1  UNL     1      14.566   6.153   5.984  1.00  0.00    -0.246 OA
HETATM    6  N3  UNL     1      15.698   4.774   7.404  1.00  0.00    -0.259 N 
ATOM      7  H3  UNL     1      15.931   5.552   8.021  1.00  0.00     0.175 HD
HETATM    8  C3  UNL     1      16.120   3.544   7.713  1.00  0.00     0.345 A 
HETATM    9  O2  UNL     1      16.793   3.415   8.769  1.00  0.00    -0.246 OA
HETATM   10  N4  UNL     1      15.829   2.470   6.911  1.00  0.00    -0.128 N 
ENDROOT
BRANCH  10  11
HETATM   11  C4  UNL     1      16.344   1.226   7.368  1.00  0.00     0.118 C 
HETATM   12  C5  UNL     1      15.184   0.433   7.940  1.00  0.00     0.027 C 
HETATM   13  C6  UNL     1      14.975  -0.894   7.289  1.00  0.00     0.004 C 
HETATM   14  C7  UNL     1      15.876  -1.947   7.933  1.00  0.00     0.022 C 
HETATM   15  C8  UNL     1      17.145  -1.952   7.140  1.00  0.00     0.131 C 
HETATM   16  C9  UNL     1      17.865  -0.662   7.367  1.00  0.00     0.258 C 
HETATM   17  F1  UNL     1      17.864  -0.288   8.697  1.00  0.00    -0.205 F 
HETATM   18  F2  UNL     1      19.187  -0.855   7.017  1.00  0.00    -0.205 F 
HETATM   19  C10 UNL     1      17.231   0.447   6.499  1.00  0.00     0.106 C 
BRANCH  15  20
HETATM   20  S1  UNL     1      18.155  -3.409   7.409  1.00  0.00    -0.074 SA
HETATM   21  S2  UNL     1      19.101  -3.904   5.550  1.00  0.00    -0.013 SA
ENDBRANCH  15  20
ENDBRANCH  10  11
BRANCH   1  22
HETATM   22  N1  UNL     1      14.829   1.754   5.067  1.00  0.00    -0.234 N 
ATOM     23  H12 UNL     1      15.505   0.995   4.993  1.00  0.00     0.174 HD
ATOM     24  H11 UNL     1      13.942   1.772   4.564  1.00  0.00     0.174 HD
ENDBRANCH   1  22
TORSDOF 3
ENDMDL
MODEL 5
REMARK VINA RESULT: -6.396455720      3.647      4.587
REMARK  3 active torsions:
REMARK  status: ('A' for Active; 'I' for Inactive)
REMARK    1  A    between atoms: N1_1  and  C1_4 
REMARK    2  A    between atoms: N4_13  and  C4_14 
REMARK    3  A    between atoms: C8_18  and  S1_19 
ROOT
HETATM    1  C1  UNL     1      18.733  -3.526   7.358  1.00  0.00     0.686 A 
HETATM    2  N2  UNL     1      19.391  -4.694   7.183  1.00  0.00    -0.141 N 
ATOM      3  H2  UNL     1      19.787  -5.187   7.984  1.00  0.00     0.189 HD
HETATM    4  C2  UNL     1      19.518  -5.203   5.940  1.00  0.00     0.342 A 
HETATM    5  O1  UNL     1      20.128  -6.287   5.776  1.00  0.00    -0.246 OA
HETATM    6  N3  UNL     1      18.979  -4.517   4.913  1.00  0.00    -0.259 N 
ATOM      7  H3  UNL     1      19.065  -4.886   3.965  1.00  0.00     0.175 HD
HETATM    8  C3  UNL     1      18.333  -3.363   5.110  1.00  0.00     0.345 A 
HETATM    9  O2  UNL     1      17.860  -2.787   4.096  1.00  0.00    -0.246 OA
HETATM   10  N4  UNL     1      18.195  -2.833   6.368  1.00  0.00    -0.128 N 
ENDROOT
BRANCH  10  11
HETATM   11  C4  UNL     1      17.485  -1.602   6.422  1.00  0.00     0.118 C 
HETATM   12  C5  UNL     1      16.133  -1.881   7.051  1.00  0.00     0.027 C 
HETATM   13  C6  UNL     1      15.859  -1.082   8.282  1.00  0.00     0.004 C 
HETATM   14  C7  UNL     1      15.285   0.284   7.908  1.00  0.00     0.022 C 
HETATM   15  C8  UNL     1      16.456   1.207   7.779  1.00  0.00     0.131 C 
HETATM   16  C9  UNL     1      17.261   0.807   6.585  1.00  0.00     0.258 C 
HETATM   17  F1  UNL     1      16.468   0.513   5.492  1.00  0.00    -0.205 F 
HETATM   18  F2  UNL     1      18.038   1.890   6.224  1.00  0.00    -0.205 F 
HETATM   19  C10 UNL     1      18.151  -0.404   6.942  1.00  0.00     0.106 C 
BRANCH  15  20
HETATM   20  S1  UNL     1      16.009   2.944   7.809  1.00  0.00    -0.074 SA
HETATM   21  S2  UNL     1      14.737   3.323   6.124  1.00  0.00    -0.013 SA
ENDBRANCH  15  20
ENDBRANCH  10  11
BRANCH   1  22
HETATM   22  N1  UNL     1      18.621  -3.062   8.531  1.00  0.00    -0.234 N 
ATOM     23  H12 UNL     1      18.996  -3.618   9.299  1.00  0.00     0.174 HD
ATOM     24  H11 UNL     1      18.165  -2.159   8.657  1.00  0.00     0.174 HD
ENDBRANCH   1  22
TORSDOF 3
ENDMDL
