MODEL 1
REMARK VINA RESULT: -8.727752412      0.000      0.000
REMARK  9 active torsions:
REMARK  status: ('A' for Active; 'I' for Inactive)
REMARK    1  A    between atoms: O1_2  and  C2_3 
REMARK    2  A    between atoms: C3_4  and  O2_5 
REMARK    3  A    between atoms: O2_5  and  C4_6 
REMARK    4  A    between atoms: C7_11  and  O5_12 
REMARK    5  A    between atoms: C8_14  and  O6_15 
REMARK    6  A    between atoms: C9_17  and  O7_18 
REMARK    7  A    between atoms: C14_24  and  S1_25 
REMARK    8  A    between atoms: N2_29  and  C16_30 
REMARK    9  A    between atoms: C16_30  and  C17_31 
ROOT
HETATM    1  C2  UNL     1      -2.763 -11.654  29.879  1.00  0.00     0.117 A 
HETATM    2  C3  UNL     1      -2.951 -12.630  28.885  1.00  0.00     0.106 A 
HETATM    3  C10 UNL     1      -4.174 -13.228  28.844  1.00  0.00     0.042 A 
HETATM    4  C11 UNL     1      -5.207 -12.929  29.706  1.00  0.00     0.035 A 
HETATM    5  C12 UNL     1      -5.001 -11.956  30.687  1.00  0.00     0.067 A 
HETATM    6  C13 UNL     1      -3.773 -11.335  30.752  1.00  0.00     0.063 A 
HETATM    7  C14 UNL     1      -3.836 -10.437  31.794  1.00  0.00     0.099 A 
HETATM    8  N1  UNL     1      -5.066 -10.540  32.313  1.00  0.00    -0.291 N 
ATOM      9  H1  UNL     1      -5.407  -9.993  33.104  1.00  0.00     0.188 HD
HETATM   10  N2  UNL     1      -5.789 -11.457  31.654  1.00  0.00    -0.290 N 
ENDROOT
BRANCH   2  11
HETATM   11  O2  UNL     1      -1.907 -12.903  28.044  1.00  0.00    -0.315 OA
BRANCH  11  12
HETATM   12  C4  UNL     1      -1.849 -12.487  26.739  1.00  0.00     0.301 C 
HETATM   13  O3  UNL     1      -1.984 -13.525  25.806  1.00  0.00    -0.326 OA
HETATM   14  C5  UNL     1      -1.184 -13.228  24.729  1.00  0.00     0.295 C 
HETATM   15  O4  UNL     1      -0.630 -11.961  24.946  1.00  0.00    -0.346 OA
HETATM   16  C9  UNL     1       0.012 -14.176  24.631  1.00  0.00     0.204 C 
HETATM   17  C6  UNL     1      -0.439 -12.008  26.338  1.00  0.00     0.211 C 
HETATM   18  C7  UNL     1       0.621 -12.961  26.751  1.00  0.00     0.183 C 
HETATM   19  C8  UNL     1       0.786 -14.165  25.901  1.00  0.00     0.183 C 
BRANCH  18  20
HETATM   20  O5  UNL     1       0.422 -13.378  28.073  1.00  0.00    -0.390 OA
ATOM     21  H5  UNL     1       1.203 -13.799  28.413  1.00  0.00     0.210 HD
ENDBRANCH  18  20
BRANCH  19  22
HETATM   22  O6  UNL     1       2.146 -14.359  25.563  1.00  0.00    -0.390 OA
ATOM     23  H6  UNL     1       2.324 -15.277  25.394  1.00  0.00     0.210 HD
ENDBRANCH  19  22
BRANCH  16  24
HETATM   24  O7  UNL     1      -0.423 -15.479  24.316  1.00  0.00    -0.388 OA
ATOM     25  H7  UNL     1      -1.346 -15.576  24.520  1.00  0.00     0.210 HD
ENDBRANCH  16  24
ENDBRANCH  11  12
ENDBRANCH   2  11
BRANCH   1  26
HETATM   26  O1  UNL     1      -1.559 -11.011  29.980  1.00  0.00    -0.352 OA
HETATM   27  C1  UNL     1      -1.258  -9.901  29.135  1.00  0.00     0.210 C 
ENDBRANCH   1  26
BRANCH   7  28
HETATM   28  S1  UNL     1      -2.516  -9.333  32.354  1.00  0.00    -0.114 SA
HETATM   29  C15 UNL     1      -1.977  -9.909  33.988  1.00  0.00     0.097 C 
ENDBRANCH   7  28
BRANCH  10  30
HETATM   30  C16 UNL     1      -7.161 -11.818  31.931  1.00  0.00     0.157 C 
BRANCH  30  31
HETATM   31  C17 UNL     1      -7.682 -11.364  33.246  1.00  0.00    -0.033 C 
HETATM   32  C18 UNL     1      -6.975 -12.164  34.332  1.00  0.00     0.016 C 
HETATM   33  C19 UNL     1      -7.559  -9.902  33.519  1.00  0.00     0.016 C 
HETATM   34  C20 UNL     1      -9.161 -11.767  33.297  1.00  0.00     0.016 C 
ENDBRANCH  30  31
ENDBRANCH  10  30
TORSDOF 9
ENDMDL
MODEL 2
REMARK VINA RESULT: -8.626628037      1.329      1.653
REMARK  9 active torsions:
REMARK  status: ('A' for Active; 'I' for Inactive)
REMARK    1  A    between atoms: O1_2  and  C2_3 
REMARK    2  A    between atoms: C3_4  and  O2_5 
REMARK    3  A    between atoms: O2_5  and  C4_6 
REMARK    4  A    between atoms: C7_11  and  O5_12 
REMARK    5  A    between atoms: C8_14  and  O6_15 
REMARK    6  A    between atoms: C9_17  and  O7_18 
REMARK    7  A    between atoms: C14_24  and  S1_25 
REMARK    8  A    between atoms: N2_29  and  C16_30 
REMARK    9  A    between atoms: C16_30  and  C17_31 
ROOT
HETATM    1  C2  UNL     1      -3.320 -12.084  29.540  1.00  0.00     0.117 A 
HETATM    2  C3  UNL     1      -3.210 -12.844  28.362  1.00  0.00     0.106 A 
HETATM    3  C10 UNL     1      -4.346 -13.453  27.924  1.00  0.00     0.042 A 
HETATM    4  C11 UNL     1      -5.565 -13.362  28.560  1.00  0.00     0.035 A 
HETATM    5  C12 UNL     1      -5.655 -12.601  29.729  1.00  0.00     0.067 A 
HETATM    6  C13 UNL     1      -4.520 -11.974  30.197  1.00  0.00     0.063 A 
HETATM    7  C14 UNL     1      -4.880 -11.307  31.346  1.00  0.00     0.099 A 
HETATM    8  N1  UNL     1      -6.184 -11.544  31.533  1.00  0.00    -0.291 N 
ATOM      9  H1  UNL     1      -6.733 -11.178  32.311  1.00  0.00     0.188 HD
HETATM   10  N2  UNL     1      -6.674 -12.328  30.561  1.00  0.00    -0.290 N 
ENDROOT
BRANCH   2  11
HETATM   11  O2  UNL     1      -1.987 -12.916  27.754  1.00  0.00    -0.315 OA
BRANCH  11  12
HETATM   12  C4  UNL     1      -1.687 -12.293  26.569  1.00  0.00     0.301 C 
HETATM   13  O3  UNL     1      -1.804 -13.124  25.446  1.00  0.00    -0.326 OA
HETATM   14  C5  UNL     1      -0.823 -12.765  24.554  1.00  0.00     0.295 C 
HETATM   15  O4  UNL     1      -0.161 -11.647  25.076  1.00  0.00    -0.346 OA
HETATM   16  C9  UNL     1       0.254 -13.843  24.426  1.00  0.00     0.204 C 
HETATM   17  C6  UNL     1      -0.185 -11.960  26.445  1.00  0.00     0.211 C 
HETATM   18  C7  UNL     1       0.680 -13.113  26.797  1.00  0.00     0.183 C 
HETATM   19  C8  UNL     1       0.826 -14.163  25.760  1.00  0.00     0.183 C 
BRANCH  18  20
HETATM   20  O5  UNL     1       0.239 -13.719  27.980  1.00  0.00    -0.390 OA
ATOM     21  H5  UNL     1       0.627 -14.580  28.081  1.00  0.00     0.210 HD
ENDBRANCH  18  20
BRANCH  19  22
HETATM   22  O6  UNL     1       2.188 -14.490  25.563  1.00  0.00    -0.390 OA
ATOM     23  H6  UNL     1       2.449 -15.204  26.132  1.00  0.00     0.210 HD
ENDBRANCH  19  22
BRANCH  16  24
HETATM   24  O7  UNL     1      -0.282 -14.996  23.816  1.00  0.00    -0.388 OA
ATOM     25  H7  UNL     1      -0.361 -15.698  24.453  1.00  0.00     0.210 HD
ENDBRANCH  16  24
ENDBRANCH  11  12
ENDBRANCH   2  11
BRANCH   1  26
HETATM   26  O1  UNL     1      -2.219 -11.444  30.041  1.00  0.00    -0.352 OA
HETATM   27  C1  UNL     1      -1.786 -10.205  29.482  1.00  0.00     0.210 C 
ENDBRANCH   1  26
BRANCH   7  28
HETATM   28  S1  UNL     1      -3.802 -10.305  32.399  1.00  0.00    -0.114 SA
HETATM   29  C15 UNL     1      -4.799  -9.708  33.793  1.00  0.00     0.097 C 
ENDBRANCH   7  28
BRANCH  10  30
HETATM   30  C16 UNL     1      -8.043 -12.773  30.435  1.00  0.00     0.157 C 
BRANCH  30  31
HETATM   31  C17 UNL     1      -8.511 -13.690  31.506  1.00  0.00    -0.033 C 
HETATM   32  C18 UNL     1      -8.140 -15.111  31.101  1.00  0.00     0.016 C 
HETATM   33  C19 UNL     1      -8.004 -13.395  32.878  1.00  0.00     0.016 C 
HETATM   34  C20 UNL     1     -10.044 -13.620  31.506  1.00  0.00     0.016 C 
ENDBRANCH  30  31
ENDBRANCH  10  30
TORSDOF 9
ENDMDL
MODEL 3
REMARK VINA RESULT: -8.594427213      2.739      4.502
REMARK  9 active torsions:
REMARK  status: ('A' for Active; 'I' for Inactive)
REMARK    1  A    between atoms: O1_2  and  C2_3 
REMARK    2  A    between atoms: C3_4  and  O2_5 
REMARK    3  A    between atoms: O2_5  and  C4_6 
REMARK    4  A    between atoms: C7_11  and  O5_12 
REMARK    5  A    between atoms: C8_14  and  O6_15 
REMARK    6  A    between atoms: C9_17  and  O7_18 
REMARK    7  A    between atoms: C14_24  and  S1_25 
REMARK    8  A    between atoms: N2_29  and  C16_30 
REMARK    9  A    between atoms: C16_30  and  C17_31 
ROOT
HETATM    1  C2  UNL     1      -5.253 -13.429  28.197  1.00  0.00     0.117 A 
HETATM    2  C3  UNL     1      -4.214 -13.297  27.258  1.00  0.00     0.106 A 
HETATM    3  C10 UNL     1      -3.333 -12.280  27.466  1.00  0.00     0.042 A 
HETATM    4  C11 UNL     1      -3.407 -11.400  28.524  1.00  0.00     0.035 A 
HETATM    5  C12 UNL     1      -4.445 -11.548  29.447  1.00  0.00     0.067 A 
HETATM    6  C13 UNL     1      -5.353 -12.568  29.261  1.00  0.00     0.063 A 
HETATM    7  C14 UNL     1      -6.260 -12.486  30.293  1.00  0.00     0.099 A 
HETATM    8  N1  UNL     1      -5.884 -11.449  31.051  1.00  0.00    -0.291 N 
ATOM      9  H1  UNL     1      -6.370 -11.142  31.894  1.00  0.00     0.188 HD
HETATM   10  N2  UNL     1      -4.783 -10.865  30.554  1.00  0.00    -0.290 N 
ENDROOT
BRANCH   2  11
HETATM   11  O2  UNL     1      -4.167 -14.186  26.219  1.00  0.00    -0.315 OA
BRANCH  11  12
HETATM   12  C4  UNL     1      -3.347 -15.285  26.192  1.00  0.00     0.301 C 
HETATM   13  O3  UNL     1      -2.001 -14.982  25.947  1.00  0.00    -0.326 OA
HETATM   14  C5  UNL     1      -1.471 -16.002  25.194  1.00  0.00     0.295 C 
HETATM   15  O4  UNL     1      -2.458 -16.985  25.054  1.00  0.00    -0.346 OA
HETATM   16  C9  UNL     1      -1.154 -15.550  23.767  1.00  0.00     0.204 C 
HETATM   17  C6  UNL     1      -3.604 -16.177  24.960  1.00  0.00     0.211 C 
HETATM   18  C7  UNL     1      -3.665 -15.396  23.699  1.00  0.00     0.183 C 
HETATM   19  C8  UNL     1      -2.365 -14.974  23.125  1.00  0.00     0.183 C 
BRANCH  18  20
HETATM   20  O5  UNL     1      -4.466 -14.258  23.862  1.00  0.00    -0.390 OA
ATOM     21  H5  UNL     1      -3.936 -13.470  23.843  1.00  0.00     0.210 HD
ENDBRANCH  18  20
BRANCH  19  22
HETATM   22  O6  UNL     1      -2.297 -15.289  21.748  1.00  0.00    -0.390 OA
ATOM     23  H6  UNL     1      -1.688 -14.713  21.301  1.00  0.00     0.210 HD
ENDBRANCH  19  22
BRANCH  16  24
HETATM   24  O7  UNL     1      -0.095 -14.618  23.775  1.00  0.00    -0.388 OA
ATOM     25  H7  UNL     1      -0.431 -13.738  23.652  1.00  0.00     0.210 HD
ENDBRANCH  16  24
ENDBRANCH  11  12
ENDBRANCH   2  11
BRANCH   1  26
HETATM   26  O1  UNL     1      -6.176 -14.428  28.051  1.00  0.00    -0.352 OA
HETATM   27  C1  UNL     1      -5.896 -15.747  28.519  1.00  0.00     0.210 C 
ENDBRANCH   1  26
BRANCH   7  28
HETATM   28  S1  UNL     1      -7.683 -13.569  30.573  1.00  0.00    -0.114 SA
HETATM   29  C15 UNL     1      -8.515 -13.001  32.082  1.00  0.00     0.097 C 
ENDBRANCH   7  28
BRANCH  10  30
HETATM   30  C16 UNL     1      -4.092  -9.730  31.120  1.00  0.00     0.157 C 
BRANCH  30  31
HETATM   31  C17 UNL     1      -3.244 -10.031  32.303  1.00  0.00    -0.033 C 
HETATM   32  C18 UNL     1      -4.164 -10.231  33.500  1.00  0.00     0.016 C 
HETATM   33  C19 UNL     1      -2.324 -11.197  32.158  1.00  0.00     0.016 C 
HETATM   34  C20 UNL     1      -2.422  -8.768  32.588  1.00  0.00     0.016 C 
ENDBRANCH  30  31
ENDBRANCH  10  30
TORSDOF 9
ENDMDL
MODEL 4
REMARK VINA RESULT: -8.571944152      2.543      4.230
REMARK  9 active torsions:
REMARK  status: ('A' for Active; 'I' for Inactive)
REMARK    1  A    between atoms: O1_2  and  C2_3 
REMARK    2  A    between atoms: C3_4  and  O2_5 
REMARK    3  A    between atoms: O2_5  and  C4_6 
REMARK    4  A    between atoms: C7_11  and  O5_12 
REMARK    5  A    between atoms: C8_14  and  O6_15 
REMARK    6  A    between atoms: C9_17  and  O7_18 
REMARK    7  A    between atoms: C14_24  and  S1_25 
REMARK    8  A    between atoms: N2_29  and  C16_30 
REMARK    9  A    between atoms: C16_30  and  C17_31 
ROOT
HETATM    1  C2  UNL     1      -2.799 -13.029  27.495  1.00  0.00     0.117 A 
HETATM    2  C3  UNL     1      -3.902 -13.901  27.514  1.00  0.00     0.106 A 
HETATM    3  C10 UNL     1      -4.620 -13.949  28.670  1.00  0.00     0.042 A 
HETATM    4  C11 UNL     1      -4.326 -13.203  29.791  1.00  0.00     0.035 A 
HETATM    5  C12 UNL     1      -3.228 -12.341  29.753  1.00  0.00     0.067 A 
HETATM    6  C13 UNL     1      -2.482 -12.273  28.596  1.00  0.00     0.063 A 
HETATM    7  C14 UNL     1      -1.473 -11.365  28.826  1.00  0.00     0.099 A 
HETATM    8  N1  UNL     1      -1.633 -10.925  30.080  1.00  0.00    -0.291 N 
ATOM      9  H1  UNL     1      -1.029 -10.240  30.534  1.00  0.00     0.188 HD
HETATM   10  N2  UNL     1      -2.694 -11.506  30.660  1.00  0.00    -0.290 N 
ENDROOT
BRANCH   2  11
HETATM   11  O2  UNL     1      -4.167 -14.628  26.386  1.00  0.00    -0.315 OA
BRANCH  11  12
HETATM   12  C4  UNL     1      -3.617 -15.857  26.123  1.00  0.00     0.301 C 
HETATM   13  O3  UNL     1      -2.230 -15.828  25.928  1.00  0.00    -0.326 OA
HETATM   14  C5  UNL     1      -1.920 -16.767  24.975  1.00  0.00     0.295 C 
HETATM   15  O4  UNL     1      -3.098 -17.449  24.649  1.00  0.00    -0.346 OA
HETATM   16  C9  UNL     1      -1.459 -16.121  23.667  1.00  0.00     0.204 C 
HETATM   17  C6  UNL     1      -4.027 -16.398  24.737  1.00  0.00     0.211 C 
HETATM   18  C7  UNL     1      -3.866 -15.385  23.665  1.00  0.00     0.183 C 
HETATM   19  C8  UNL     1      -2.485 -15.165  23.173  1.00  0.00     0.183 C 
BRANCH  18  20
HETATM   20  O5  UNL     1      -4.393 -14.151  24.068  1.00  0.00    -0.390 OA
ATOM     21  H5  UNL     1      -3.749 -13.658  24.563  1.00  0.00     0.210 HD
ENDBRANCH  18  20
BRANCH  19  22
HETATM   22  O6  UNL     1      -2.442 -15.201  21.760  1.00  0.00    -0.390 OA
ATOM     23  H6  UNL     1      -2.228 -14.346  21.407  1.00  0.00     0.210 HD
ENDBRANCH  19  22
BRANCH  16  24
HETATM   24  O7  UNL     1      -0.217 -15.478  23.853  1.00  0.00    -0.388 OA
ATOM     25  H7  UNL     1      -0.188 -15.060  24.706  1.00  0.00     0.210 HD
ENDBRANCH  16  24
ENDBRANCH  11  12
ENDBRANCH   2  11
BRANCH   1  26
HETATM   26  O1  UNL     1      -2.032 -12.929  26.367  1.00  0.00    -0.352 OA
HETATM   27  C1  UNL     1      -2.362 -11.987  25.348  1.00  0.00     0.210 C 
ENDBRANCH   1  26
BRANCH   7  28
HETATM   28  S1  UNL     1      -0.180 -10.865  27.663  1.00  0.00    -0.114 SA
HETATM   29  C15 UNL     1       0.901 -12.298  27.396  1.00  0.00     0.097 C 
ENDBRANCH   7  28
BRANCH  10  30
HETATM   30  C16 UNL     1      -3.173 -11.257  32.001  1.00  0.00     0.157 C 
BRANCH  30  31
HETATM   31  C17 UNL     1      -4.107 -10.110  32.137  1.00  0.00    -0.033 C 
HETATM   32  C18 UNL     1      -3.288  -8.882  32.513  1.00  0.00     0.016 C 
HETATM   33  C19 UNL     1      -4.953  -9.820  30.943  1.00  0.00     0.016 C 
HETATM   34  C20 UNL     1      -5.011 -10.418  33.337  1.00  0.00     0.016 C 
ENDBRANCH  30  31
ENDBRANCH  10  30
TORSDOF 9
ENDMDL
MODEL 5
REMARK VINA RESULT: -8.530325110      4.226      6.217
REMARK  9 active torsions:
REMARK  status: ('A' for Active; 'I' for Inactive)
REMARK    1  A    between atoms: O1_2  and  C2_3 
REMARK    2  A    between atoms: C3_4  and  O2_5 
REMARK    3  A    between atoms: O2_5  and  C4_6 
REMARK    4  A    between atoms: C7_11  and  O5_12 
REMARK    5  A    between atoms: C8_14  and  O6_15 
REMARK    6  A    between atoms: C9_17  and  O7_18 
REMARK    7  A    between atoms: C14_24  and  S1_25 
REMARK    8  A    between atoms: N2_29  and  C16_30 
REMARK    9  A    between atoms: C16_30  and  C17_31 
ROOT
HETATM    1  C2  UNL     1      -2.670 -15.022  26.236  1.00  0.00     0.117 A 
HETATM    2  C3  UNL     1      -3.932 -15.619  26.407  1.00  0.00     0.106 A 
HETATM    3  C10 UNL     1      -4.589 -15.330  27.564  1.00  0.00     0.042 A 
HETATM    4  C11 UNL     1      -4.091 -14.502  28.548  1.00  0.00     0.035 A 
HETATM    5  C12 UNL     1      -2.836 -13.917  28.359  1.00  0.00     0.067 A 
HETATM    6  C13 UNL     1      -2.148 -14.193  27.197  1.00  0.00     0.063 A 
HETATM    7  C14 UNL     1      -0.958 -13.504  27.268  1.00  0.00     0.099 A 
HETATM    8  N1  UNL     1      -0.962 -12.851  28.436  1.00  0.00    -0.291 N 
ATOM      9  H1  UNL     1      -0.205 -12.253  28.767  1.00  0.00     0.188 HD
HETATM   10  N2  UNL     1      -2.095 -13.089  29.114  1.00  0.00    -0.290 N 
ENDROOT
BRANCH   2  11
HETATM   11  O2  UNL     1      -4.399 -16.435  25.414  1.00  0.00    -0.315 OA
BRANCH  11  12
HETATM   12  C4  UNL     1      -4.627 -17.778  25.574  1.00  0.00     0.301 C 
HETATM   13  O3  UNL     1      -3.471 -18.522  25.847  1.00  0.00    -0.326 OA
HETATM   14  C5  UNL     1      -3.605 -19.745  25.236  1.00  0.00     0.295 C 
HETATM   15  O4  UNL     1      -4.884 -19.801  24.669  1.00  0.00    -0.346 OA
HETATM   16  C9  UNL     1      -2.640 -19.903  24.060  1.00  0.00     0.204 C 
HETATM   17  C6  UNL     1      -5.030 -18.466  24.253  1.00  0.00     0.211 C 
HETATM   18  C7  UNL     1      -4.132 -18.102  23.129  1.00  0.00     0.183 C 
HETATM   19  C8  UNL     1      -2.819 -18.790  23.090  1.00  0.00     0.183 C 
BRANCH  18  20
HETATM   20  O5  UNL     1      -3.906 -16.719  23.106  1.00  0.00    -0.390 OA
ATOM     21  H5  UNL     1      -4.480 -16.297  22.477  1.00  0.00     0.210 HD
ENDBRANCH  18  20
BRANCH  19  22
HETATM   22  O6  UNL     1      -2.565 -19.314  21.802  1.00  0.00    -0.390 OA
ATOM     23  H6  UNL     1      -2.376 -20.244  21.847  1.00  0.00     0.210 HD
ENDBRANCH  19  22
BRANCH  16  24
HETATM   24  O7  UNL     1      -1.310 -19.958  24.525  1.00  0.00    -0.388 OA
ATOM     25  H7  UNL     1      -0.757 -19.381  24.010  1.00  0.00     0.210 HD
ENDBRANCH  16  24
ENDBRANCH  11  12
ENDBRANCH   2  11
BRANCH   1  26
HETATM   26  O1  UNL     1      -1.952 -15.267  25.098  1.00  0.00    -0.352 OA
HETATM   27  C1  UNL     1      -1.059 -16.379  25.031  1.00  0.00     0.210 C 
ENDBRANCH   1  26
BRANCH   7  28
HETATM   28  S1  UNL     1       0.357 -13.484  26.024  1.00  0.00    -0.114 SA
HETATM   29  C15 UNL     1       0.008 -12.119  24.881  1.00  0.00     0.097 C 
ENDBRANCH   7  28
BRANCH  10  30
HETATM   30  C16 UNL     1      -2.447 -12.538  30.403  1.00  0.00     0.157 C 
BRANCH  30  31
HETATM   31  C17 UNL     1      -3.258 -11.294  30.359  1.00  0.00    -0.033 C 
HETATM   32  C18 UNL     1      -2.734 -10.356  31.439  1.00  0.00     0.016 C 
HETATM   33  C19 UNL     1      -3.297 -10.594  29.042  1.00  0.00     0.016 C 
HETATM   34  C20 UNL     1      -4.683 -11.683  30.771  1.00  0.00     0.016 C 
ENDBRANCH  30  31
ENDBRANCH  10  30
TORSDOF 9
ENDMDL
