MODEL 1
REMARK VINA RESULT: -8.100615818      0.000      0.000
REMARK  16 active torsions:
REMARK  status: ('A' for Active; 'I' for Inactive)
REMARK    1  A    between atoms: C2_2  and  C4_4 
REMARK    2  A    between atoms: C4_4  and  C5_5 
REMARK    3  A    between atoms: C5_5  and  N1_6 
REMARK       I    between atoms: N1_6  and  C6_8 
REMARK       I    between atoms: C6_8  and  N2_10 
REMARK    4  A    between atoms: N2_10  and  C7_12 
REMARK    5  A    between atoms: C7_12  and  C8_13 
REMARK    6  A    between atoms: C7_12  and  C12_21 
REMARK    7  A    between atoms: C8_13  and  C9_14 
REMARK    8  A    between atoms: C9_14  and  C10_15 
REMARK    9  A    between atoms: C10_15  and  C11_16 
REMARK   10  A    between atoms: C11_16  and  N3_17 
REMARK       I    between atoms: C12_21  and  N4_23 
REMARK   11  A    between atoms: N5_26  and  C15_27 
REMARK   12  A    between atoms: C15_27  and  O3_28 
REMARK   13  A    between atoms: C15_27  and  N6_30 
REMARK   14  A    between atoms: C17_33  and  C18_34 
REMARK   15  A    between atoms: C18_34  and  O5_36 
REMARK   16  A    between atoms: O5_36  and  C20_37 
ROOT
HETATM    1  C12 UNL     1      22.146  26.188  20.079  1.00  0.00     0.242 C 
HETATM    2  O2  UNL     1      21.962  27.214  20.856  1.00  0.00    -0.271 OA
HETATM    3  N4  UNL     1      21.479  25.033  20.484  1.00  0.00    -0.347 N 
HETATM    4  C13 UNL     1      21.473  23.754  19.762  1.00  0.00     0.145 C 
HETATM    5  C14 UNL     1      20.331  22.892  20.238  1.00  0.00     0.146 C 
HETATM    6  N5  UNL     1      19.057  23.707  20.351  1.00  0.00    -0.344 N 
HETATM    7  C28 UNL     1      19.226  24.825  21.199  1.00  0.00     0.146 C 
HETATM    8  C29 UNL     1      20.682  24.956  21.723  1.00  0.00     0.145 C 
ENDROOT
BRANCH   1   9
HETATM    9  C7  UNL     1      22.999  26.357  18.911  1.00  0.00     0.178 C 
BRANCH   9  10
HETATM   10  N2  UNL     1      22.527  27.464  18.067  1.00  0.00    -0.330 N 
HETATM   11  C6  UNL     1      22.569  27.460  16.656  1.00  0.00     0.316 C 
HETATM   12  N1  UNL     1      22.092  28.543  15.874  1.00  0.00    -0.343 N 
HETATM   13  O1  UNL     1      23.045  26.462  16.071  1.00  0.00    -0.247 OA
ATOM     14  H1  UNL     1      21.684  29.342  16.361  1.00  0.00     0.164 HD
ATOM     15  H2  UNL     1      22.145  28.288  18.530  1.00  0.00     0.165 HD
BRANCH  12  16
HETATM   16  C5  UNL     1      22.148  28.587  14.446  1.00  0.00     0.125 C 
BRANCH  16  17
HETATM   17  C4  UNL     1      20.809  28.350  13.818  1.00  0.00     0.023 C 
BRANCH  17  18
HETATM   18  C2  UNL     1      20.027  27.261  14.490  1.00  0.00    -0.021 C 
HETATM   19  C1  UNL     1      18.558  27.404  14.140  1.00  0.00     0.009 C 
HETATM   20  C3  UNL     1      20.455  25.870  14.189  1.00  0.00     0.009 C 
ENDBRANCH  17  18
ENDBRANCH  16  17
ENDBRANCH  12  16
ENDBRANCH   9  10
BRANCH   9  21
HETATM   21  C8  UNL     1      24.446  26.492  19.204  1.00  0.00     0.035 C 
BRANCH  21  22
HETATM   22  C9  UNL     1      25.352  25.364  18.960  1.00  0.00     0.004 C 
BRANCH  22  23
HETATM   23  C10 UNL     1      26.001  25.203  17.644  1.00  0.00     0.027 C 
BRANCH  23  24
HETATM   24  C11 UNL     1      26.404  26.601  17.154  1.00  0.00     0.229 C 
BRANCH  24  25
HETATM   25  N3  UNL     1      26.066  26.812  15.781  1.00  0.00    -0.079 N 
ATOM     26  H33 UNL     1      25.274  26.233  15.504  1.00  0.00     0.274 HD
ATOM     27  H32 UNL     1      25.651  27.733  15.641  1.00  0.00     0.274 HD
ATOM     28  H31 UNL     1      26.863  26.668  15.160  1.00  0.00     0.274 HD
ENDBRANCH  24  25
ENDBRANCH  23  24
ENDBRANCH  22  23
ENDBRANCH  21  22
ENDBRANCH   9  21
ENDBRANCH   1   9
BRANCH   6  29
HETATM   29  C15 UNL     1      17.979  23.325  19.566  1.00  0.00     0.225 C 
BRANCH  29  30
HETATM   30  O3  UNL     1      17.079  22.683  20.367  1.00  0.00    -0.332 OA
ATOM     31  H3  UNL     1      16.437  22.261  19.808  1.00  0.00     0.221 HD
ENDBRANCH  29  30
BRANCH  29  32
HETATM   32  N6  UNL     1      17.553  23.402  18.226  1.00  0.00    -0.265 N 
HETATM   33  C16 UNL     1      17.469  22.146  17.518  1.00  0.00     0.235 C 
HETATM   34  O4  UNL     1      18.026  21.143  18.091  1.00  0.00    -0.272 OA
HETATM   35  C17 UNL     1      16.844  21.844  16.236  1.00  0.00     0.116 C 
HETATM   36  C24 UNL     1      17.084  22.963  15.229  1.00  0.00     0.093 C 
HETATM   37  S1  UNL     1      16.424  24.453  15.946  1.00  0.00    -0.137 SA
HETATM   38  C25 UNL     1      17.272  24.641  17.577  1.00  0.00     0.085 C 
HETATM   39  C26 UNL     1      18.436  25.535  17.280  1.00  0.00     0.051 C 
HETATM   40  C27 UNL     1      16.199  25.379  18.402  1.00  0.00     0.051 C 
BRANCH  35  41
HETATM   41  C18 UNL     1      15.425  21.410  16.287  1.00  0.00     0.132 C 
HETATM   42  C19 UNL     1      14.820  21.358  14.861  1.00  0.00     0.040 C 
BRANCH  41  43
HETATM   43  O5  UNL     1      15.211  20.279  16.956  1.00  0.00    -0.376 OA
BRANCH  43  44
HETATM   44  C20 UNL     1      14.305  20.001  17.851  1.00  0.00     0.050 C 
HETATM   45  C21 UNL     1      14.612  18.581  18.383  1.00  0.00     0.045 C 
HETATM   46  C22 UNL     1      14.395  20.902  19.061  1.00  0.00     0.045 C 
HETATM   47  C23 UNL     1      12.857  19.975  17.470  1.00  0.00     0.045 C 
ENDBRANCH  43  44
ENDBRANCH  41  43
ENDBRANCH  35  41
ENDBRANCH  29  32
ENDBRANCH   6  29
TORSDOF 16
ENDMDL
MODEL 2
REMARK VINA RESULT: -7.964191439      2.735      9.610
REMARK  16 active torsions:
REMARK  status: ('A' for Active; 'I' for Inactive)
REMARK    1  A    between atoms: C2_2  and  C4_4 
REMARK    2  A    between atoms: C4_4  and  C5_5 
REMARK    3  A    between atoms: C5_5  and  N1_6 
REMARK       I    between atoms: N1_6  and  C6_8 
REMARK       I    between atoms: C6_8  and  N2_10 
REMARK    4  A    between atoms: N2_10  and  C7_12 
REMARK    5  A    between atoms: C7_12  and  C8_13 
REMARK    6  A    between atoms: C7_12  and  C12_21 
REMARK    7  A    between atoms: C8_13  and  C9_14 
REMARK    8  A    between atoms: C9_14  and  C10_15 
REMARK    9  A    between atoms: C10_15  and  C11_16 
REMARK   10  A    between atoms: C11_16  and  N3_17 
REMARK       I    between atoms: C12_21  and  N4_23 
REMARK   11  A    between atoms: N5_26  and  C15_27 
REMARK   12  A    between atoms: C15_27  and  O3_28 
REMARK   13  A    between atoms: C15_27  and  N6_30 
REMARK   14  A    between atoms: C17_33  and  C18_34 
REMARK   15  A    between atoms: C18_34  and  O5_36 
REMARK   16  A    between atoms: O5_36  and  C20_37 
ROOT
HETATM    1  C12 UNL     1      15.120  22.953  17.955  1.00  0.00     0.242 C 
HETATM    2  O2  UNL     1      14.212  23.849  18.199  1.00  0.00    -0.271 OA
HETATM    3  N4  UNL     1      15.992  23.284  16.919  1.00  0.00    -0.347 N 
HETATM    4  C13 UNL     1      17.137  22.477  16.477  1.00  0.00     0.145 C 
HETATM    5  C14 UNL     1      18.084  23.320  15.661  1.00  0.00     0.146 C 
HETATM    6  N5  UNL     1      18.313  24.663  16.327  1.00  0.00    -0.344 N 
HETATM    7  C28 UNL     1      17.098  25.350  16.548  1.00  0.00     0.146 C 
HETATM    8  C29 UNL     1      15.861  24.516  16.119  1.00  0.00     0.145 C 
ENDROOT
BRANCH   1   9
HETATM    9  C7  UNL     1      15.126  21.744  18.767  1.00  0.00     0.178 C 
BRANCH   9  10
HETATM   10  N2  UNL     1      14.602  20.597  18.011  1.00  0.00    -0.330 N 
HETATM   11  C6  UNL     1      13.936  19.498  18.595  1.00  0.00     0.316 C 
HETATM   12  N1  UNL     1      13.434  18.414  17.831  1.00  0.00    -0.343 N 
HETATM   13  O1  UNL     1      13.781  19.479  19.836  1.00  0.00    -0.247 OA
ATOM     14  H1  UNL     1      13.544  18.452  16.817  1.00  0.00     0.164 HD
ATOM     15  H2  UNL     1      14.729  20.594  17.000  1.00  0.00     0.165 HD
BRANCH  12  16
HETATM   16  C5  UNL     1      12.782  17.271  18.391  1.00  0.00     0.125 C 
BRANCH  16  17
HETATM   17  C4  UNL     1      11.297  17.448  18.475  1.00  0.00     0.023 C 
BRANCH  17  18
HETATM   18  C2  UNL     1      10.768  17.331  19.872  1.00  0.00    -0.021 C 
HETATM   19  C1  UNL     1       9.703  16.252  19.921  1.00  0.00     0.009 C 
HETATM   20  C3  UNL     1      11.775  17.054  20.930  1.00  0.00     0.009 C 
ENDBRANCH  17  18
ENDBRANCH  16  17
ENDBRANCH  12  16
ENDBRANCH   9  10
BRANCH   9  21
HETATM   21  C8  UNL     1      16.426  21.415  19.397  1.00  0.00     0.035 C 
BRANCH  21  22
HETATM   22  C9  UNL     1      17.159  22.442  20.147  1.00  0.00     0.004 C 
BRANCH  22  23
HETATM   23  C10 UNL     1      18.607  22.290  20.395  1.00  0.00     0.027 C 
BRANCH  23  24
HETATM   24  C11 UNL     1      19.130  23.637  20.914  1.00  0.00     0.229 C 
BRANCH  24  25
HETATM   25  N3  UNL     1      18.546  24.745  20.225  1.00  0.00    -0.079 N 
ATOM     26  H33 UNL     1      19.125  25.579  20.312  1.00  0.00     0.274 HD
ATOM     27  H32 UNL     1      18.595  24.617  19.214  1.00  0.00     0.274 HD
ATOM     28  H31 UNL     1      17.589  24.927  20.529  1.00  0.00     0.274 HD
ENDBRANCH  24  25
ENDBRANCH  23  24
ENDBRANCH  22  23
ENDBRANCH  21  22
ENDBRANCH   9  21
ENDBRANCH   1   9
BRANCH   6  29
HETATM   29  C15 UNL     1      19.610  24.979  16.706  1.00  0.00     0.225 C 
BRANCH  29  30
HETATM   30  O3  UNL     1      20.029  24.039  17.603  1.00  0.00    -0.332 OA
ATOM     31  H3  UNL     1      20.607  24.464  18.225  1.00  0.00     0.221 HD
ENDBRANCH  29  30
BRANCH  29  32
HETATM   32  N6  UNL     1      20.591  25.956  16.448  1.00  0.00    -0.265 N 
HETATM   33  C16 UNL     1      21.100  26.660  17.601  1.00  0.00     0.235 C 
HETATM   34  O4  UNL     1      20.434  26.508  18.687  1.00  0.00    -0.272 OA
HETATM   35  C17 UNL     1      22.264  27.529  17.718  1.00  0.00     0.116 C 
HETATM   36  C24 UNL     1      22.410  28.422  16.492  1.00  0.00     0.093 C 
HETATM   37  S1  UNL     1      22.536  27.343  15.081  1.00  0.00    -0.137 SA
HETATM   38  C25 UNL     1      21.025  26.280  15.127  1.00  0.00     0.085 C 
HETATM   39  C26 UNL     1      20.050  26.997  14.246  1.00  0.00     0.051 C 
HETATM   40  C27 UNL     1      21.534  24.987  14.461  1.00  0.00     0.051 C 
BRANCH  35  41
HETATM   41  C18 UNL     1      23.536  26.869  18.105  1.00  0.00     0.132 C 
HETATM   42  C19 UNL     1      24.751  27.706  17.631  1.00  0.00     0.040 C 
BRANCH  41  43
HETATM   43  O5  UNL     1      23.630  26.549  19.394  1.00  0.00    -0.376 OA
BRANCH  43  44
HETATM   44  C20 UNL     1      23.949  25.413  19.948  1.00  0.00     0.050 C 
HETATM   45  C21 UNL     1      24.409  25.724  21.392  1.00  0.00     0.045 C 
HETATM   46  C22 UNL     1      22.759  24.494  20.104  1.00  0.00     0.045 C 
HETATM   47  C23 UNL     1      25.039  24.570  19.360  1.00  0.00     0.045 C 
ENDBRANCH  43  44
ENDBRANCH  41  43
ENDBRANCH  35  41
ENDBRANCH  29  32
ENDBRANCH   6  29
TORSDOF 16
ENDMDL
MODEL 3
REMARK VINA RESULT: -7.932633612      2.580      9.879
REMARK  16 active torsions:
REMARK  status: ('A' for Active; 'I' for Inactive)
REMARK    1  A    between atoms: C2_2  and  C4_4 
REMARK    2  A    between atoms: C4_4  and  C5_5 
REMARK    3  A    between atoms: C5_5  and  N1_6 
REMARK       I    between atoms: N1_6  and  C6_8 
REMARK       I    between atoms: C6_8  and  N2_10 
REMARK    4  A    between atoms: N2_10  and  C7_12 
REMARK    5  A    between atoms: C7_12  and  C8_13 
REMARK    6  A    between atoms: C7_12  and  C12_21 
REMARK    7  A    between atoms: C8_13  and  C9_14 
REMARK    8  A    between atoms: C9_14  and  C10_15 
REMARK    9  A    between atoms: C10_15  and  C11_16 
REMARK   10  A    between atoms: C11_16  and  N3_17 
REMARK       I    between atoms: C12_21  and  N4_23 
REMARK   11  A    between atoms: N5_26  and  C15_27 
REMARK   12  A    between atoms: C15_27  and  O3_28 
REMARK   13  A    between atoms: C15_27  and  N6_30 
REMARK   14  A    between atoms: C17_33  and  C18_34 
REMARK   15  A    between atoms: C18_34  and  O5_36 
REMARK   16  A    between atoms: O5_36  and  C20_37 
ROOT
HETATM    1  C12 UNL     1      16.738  21.280  17.392  1.00  0.00     0.242 C 
HETATM    2  O2  UNL     1      17.411  20.172  17.480  1.00  0.00    -0.271 OA
HETATM    3  N4  UNL     1      17.100  22.248  18.328  1.00  0.00    -0.347 N 
HETATM    4  C13 UNL     1      16.539  23.603  18.414  1.00  0.00     0.145 C 
HETATM    5  C14 UNL     1      17.444  24.490  19.231  1.00  0.00     0.146 C 
HETATM    6  N5  UNL     1      18.892  24.292  18.828  1.00  0.00    -0.344 N 
HETATM    7  C28 UNL     1      19.285  22.939  18.941  1.00  0.00     0.146 C 
HETATM    8  C29 UNL     1      18.114  22.017  19.374  1.00  0.00     0.145 C 
ENDROOT
BRANCH   1   9
HETATM    9  C7  UNL     1      15.718  21.383  16.358  1.00  0.00     0.178 C 
BRANCH   9  10
HETATM   10  N2  UNL     1      14.374  21.467  16.948  1.00  0.00    -0.330 N 
HETATM   11  C6  UNL     1      13.601  20.349  17.326  1.00  0.00     0.316 C 
HETATM   12  N1  UNL     1      12.311  20.471  17.904  1.00  0.00    -0.343 N 
HETATM   13  O1  UNL     1      14.071  19.204  17.145  1.00  0.00    -0.247 OA
ATOM     14  H1  UNL     1      11.948  21.410  18.070  1.00  0.00     0.164 HD
ATOM     15  H2  UNL     1      13.974  22.394  17.093  1.00  0.00     0.165 HD
BRANCH  12  16
HETATM   16  C5  UNL     1      11.488  19.361  18.270  1.00  0.00     0.125 C 
BRANCH  16  17
HETATM   17  C4  UNL     1      11.781  18.867  19.653  1.00  0.00     0.023 C 
BRANCH  17  18
HETATM   18  C2  UNL     1      11.617  17.384  19.797  1.00  0.00    -0.021 C 
HETATM   19  C1  UNL     1      11.763  16.999  21.257  1.00  0.00     0.009 C 
HETATM   20  C3  UNL     1      10.345  16.816  19.279  1.00  0.00     0.009 C 
ENDBRANCH  17  18
ENDBRANCH  16  17
ENDBRANCH  12  16
ENDBRANCH   9  10
BRANCH   9  21
HETATM   21  C8  UNL     1      15.932  22.465  15.369  1.00  0.00     0.035 C 
BRANCH  21  22
HETATM   22  C9  UNL     1      15.056  22.570  14.195  1.00  0.00     0.004 C 
BRANCH  22  23
HETATM   23  C10 UNL     1      15.066  21.514  13.163  1.00  0.00     0.027 C 
BRANCH  23  24
HETATM   24  C11 UNL     1      13.680  20.854  13.166  1.00  0.00     0.229 C 
BRANCH  24  25
HETATM   25  N3  UNL     1      13.660  19.642  13.922  1.00  0.00    -0.079 N 
ATOM     26  H33 UNL     1      14.568  19.457  14.348  1.00  0.00     0.274 HD
ATOM     27  H32 UNL     1      13.101  19.745  14.769  1.00  0.00     0.274 HD
ATOM     28  H31 UNL     1      13.345  18.845  13.366  1.00  0.00     0.274 HD
ENDBRANCH  24  25
ENDBRANCH  23  24
ENDBRANCH  22  23
ENDBRANCH  21  22
ENDBRANCH   9  21
ENDBRANCH   1   9
BRANCH   6  29
HETATM   29  C15 UNL     1      19.575  25.391  18.327  1.00  0.00     0.225 C 
BRANCH  29  30
HETATM   30  O3  UNL     1      20.293  25.943  19.349  1.00  0.00    -0.332 OA
ATOM     31  H3  UNL     1      20.212  26.888  19.288  1.00  0.00     0.221 HD
ENDBRANCH  29  30
BRANCH  29  32
HETATM   32  N6  UNL     1      19.740  26.085  17.113  1.00  0.00    -0.265 N 
HETATM   33  C16 UNL     1      20.434  27.349  17.197  1.00  0.00     0.235 C 
HETATM   34  O4  UNL     1      20.595  27.820  18.379  1.00  0.00    -0.272 OA
HETATM   35  C17 UNL     1      20.979  28.180  16.132  1.00  0.00     0.116 C 
HETATM   36  C24 UNL     1      20.050  28.207  14.924  1.00  0.00     0.093 C 
HETATM   37  S1  UNL     1      19.840  26.519  14.397  1.00  0.00    -0.137 SA
HETATM   38  C25 UNL     1      19.211  25.608  15.876  1.00  0.00     0.085 C 
HETATM   39  C26 UNL     1      17.723  25.637  15.715  1.00  0.00     0.051 C 
HETATM   40  C27 UNL     1      19.773  24.194  15.631  1.00  0.00     0.051 C 
BRANCH  35  41
HETATM   41  C18 UNL     1      22.395  27.926  15.764  1.00  0.00     0.132 C 
HETATM   42  C19 UNL     1      22.756  28.658  14.447  1.00  0.00     0.040 C 
BRANCH  41  43
HETATM   43  O5  UNL     1      23.276  28.180  16.728  1.00  0.00    -0.376 OA
BRANCH  43  44
HETATM   44  C20 UNL     1      24.277  27.461  17.152  1.00  0.00     0.050 C 
HETATM   45  C21 UNL     1      25.429  28.437  17.491  1.00  0.00     0.045 C 
HETATM   46  C22 UNL     1      23.968  26.752  18.450  1.00  0.00     0.045 C 
HETATM   47  C23 UNL     1      24.888  26.425  16.258  1.00  0.00     0.045 C 
ENDBRANCH  43  44
ENDBRANCH  41  43
ENDBRANCH  35  41
ENDBRANCH  29  32
ENDBRANCH   6  29
TORSDOF 16
ENDMDL
MODEL 4
REMARK VINA RESULT: -7.883723258      0.920      1.648
REMARK  16 active torsions:
REMARK  status: ('A' for Active; 'I' for Inactive)
REMARK    1  A    between atoms: C2_2  and  C4_4 
REMARK    2  A    between atoms: C4_4  and  C5_5 
REMARK    3  A    between atoms: C5_5  and  N1_6 
REMARK       I    between atoms: N1_6  and  C6_8 
REMARK       I    between atoms: C6_8  and  N2_10 
REMARK    4  A    between atoms: N2_10  and  C7_12 
REMARK    5  A    between atoms: C7_12  and  C8_13 
REMARK    6  A    between atoms: C7_12  and  C12_21 
REMARK    7  A    between atoms: C8_13  and  C9_14 
REMARK    8  A    between atoms: C9_14  and  C10_15 
REMARK    9  A    between atoms: C10_15  and  C11_16 
REMARK   10  A    between atoms: C11_16  and  N3_17 
REMARK       I    between atoms: C12_21  and  N4_23 
REMARK   11  A    between atoms: N5_26  and  C15_27 
REMARK   12  A    between atoms: C15_27  and  O3_28 
REMARK   13  A    between atoms: C15_27  and  N6_30 
REMARK   14  A    between atoms: C17_33  and  C18_34 
REMARK   15  A    between atoms: C18_34  and  O5_36 
REMARK   16  A    between atoms: O5_36  and  C20_37 
ROOT
HETATM    1  C12 UNL     1      22.096  26.147  20.162  1.00  0.00     0.242 C 
HETATM    2  O2  UNL     1      21.903  27.132  20.987  1.00  0.00    -0.271 OA
HETATM    3  N4  UNL     1      21.432  24.970  20.507  1.00  0.00    -0.347 N 
HETATM    4  C13 UNL     1      21.436  23.728  19.722  1.00  0.00     0.145 C 
HETATM    5  C14 UNL     1      20.296  22.838  20.150  1.00  0.00     0.146 C 
HETATM    6  N5  UNL     1      19.017  23.640  20.296  1.00  0.00    -0.344 N 
HETATM    7  C28 UNL     1      19.177  24.717  21.198  1.00  0.00     0.146 C 
HETATM    8  C29 UNL     1      20.629  24.828  21.736  1.00  0.00     0.145 C 
ENDROOT
BRANCH   1   9
HETATM    9  C7  UNL     1      22.954  26.376  19.009  1.00  0.00     0.178 C 
BRANCH   9  10
HETATM   10  N2  UNL     1      22.422  27.451  18.159  1.00  0.00    -0.330 N 
HETATM   11  C6  UNL     1      22.549  27.490  16.754  1.00  0.00     0.316 C 
HETATM   12  N1  UNL     1      22.012  28.539  15.965  1.00  0.00    -0.343 N 
HETATM   13  O1  UNL     1      23.162  26.561  16.180  1.00  0.00    -0.247 OA
ATOM     14  H1  UNL     1      21.494  29.278  16.442  1.00  0.00     0.164 HD
ATOM     15  H2  UNL     1      21.928  28.219  18.613  1.00  0.00     0.165 HD
BRANCH  12  16
HETATM   16  C5  UNL     1      22.149  28.626  14.545  1.00  0.00     0.125 C 
BRANCH  16  17
HETATM   17  C4  UNL     1      20.877  28.289  13.829  1.00  0.00     0.023 C 
BRANCH  17  18
HETATM   18  C2  UNL     1      20.099  27.195  14.496  1.00  0.00    -0.021 C 
HETATM   19  C1  UNL     1      18.639  27.296  14.093  1.00  0.00     0.009 C 
HETATM   20  C3  UNL     1      20.569  25.809  14.238  1.00  0.00     0.009 C 
ENDBRANCH  17  18
ENDBRANCH  16  17
ENDBRANCH  12  16
ENDBRANCH   9  10
BRANCH   9  21
HETATM   21  C8  UNL     1      24.383  26.608  19.324  1.00  0.00     0.035 C 
BRANCH  21  22
HETATM   22  C9  UNL     1      25.304  25.471  19.437  1.00  0.00     0.004 C 
BRANCH  22  23
HETATM   23  C10 UNL     1      25.333  24.657  20.669  1.00  0.00     0.027 C 
BRANCH  23  24
HETATM   24  C11 UNL     1      25.341  25.626  21.861  1.00  0.00     0.229 C 
BRANCH  24  25
HETATM   25  N3  UNL     1      24.233  25.412  22.739  1.00  0.00    -0.079 N 
ATOM     26  H33 UNL     1      23.463  26.045  22.521  1.00  0.00     0.274 HD
ATOM     27  H32 UNL     1      23.773  24.523  22.542  1.00  0.00     0.274 HD
ATOM     28  H31 UNL     1      24.500  25.480  23.721  1.00  0.00     0.274 HD
ENDBRANCH  24  25
ENDBRANCH  23  24
ENDBRANCH  22  23
ENDBRANCH  21  22
ENDBRANCH   9  21
ENDBRANCH   1   9
BRANCH   6  29
HETATM   29  C15 UNL     1      17.945  23.293  19.487  1.00  0.00     0.225 C 
BRANCH  29  30
HETATM   30  O3  UNL     1      17.040  22.618  20.253  1.00  0.00    -0.332 OA
ATOM     31  H3  UNL     1      16.520  22.068  19.678  1.00  0.00     0.221 HD
ENDBRANCH  29  30
BRANCH  29  32
HETATM   32  N6  UNL     1      17.530  23.426  18.148  1.00  0.00    -0.265 N 
HETATM   33  C16 UNL     1      17.425  22.198  17.395  1.00  0.00     0.235 C 
HETATM   34  O4  UNL     1      17.959  21.165  17.934  1.00  0.00    -0.272 OA
HETATM   35  C17 UNL     1      16.803  21.956  16.099  1.00  0.00     0.116 C 
HETATM   36  C24 UNL     1      17.072  23.105  15.135  1.00  0.00     0.093 C 
HETATM   37  S1  UNL     1      16.436  24.581  15.902  1.00  0.00    -0.137 SA
HETATM   38  C25 UNL     1      17.277  24.694  17.543  1.00  0.00     0.085 C 
HETATM   39  C26 UNL     1      18.460  25.574  17.285  1.00  0.00     0.051 C 
HETATM   40  C27 UNL     1      16.213  25.422  18.388  1.00  0.00     0.051 C 
BRANCH  35  41
HETATM   41  C18 UNL     1      15.376  21.548  16.126  1.00  0.00     0.132 C 
HETATM   42  C19 UNL     1      14.848  21.317  14.687  1.00  0.00     0.040 C 
BRANCH  41  43
HETATM   43  O5  UNL     1      15.105  20.517  16.923  1.00  0.00    -0.376 OA
BRANCH  43  44
HETATM   44  C20 UNL     1      14.249  20.425  17.902  1.00  0.00     0.050 C 
HETATM   45  C21 UNL     1      14.059  21.849  18.476  1.00  0.00     0.045 C 
HETATM   46  C22 UNL     1      12.876  20.004  17.430  1.00  0.00     0.045 C 
HETATM   47  C23 UNL     1      14.554  19.560  19.086  1.00  0.00     0.045 C 
ENDBRANCH  43  44
ENDBRANCH  41  43
ENDBRANCH  35  41
ENDBRANCH  29  32
ENDBRANCH   6  29
TORSDOF 16
ENDMDL
MODEL 5
REMARK VINA RESULT: -7.874450887      1.441      3.833
REMARK  16 active torsions:
REMARK  status: ('A' for Active; 'I' for Inactive)
REMARK    1  A    between atoms: C2_2  and  C4_4 
REMARK    2  A    between atoms: C4_4  and  C5_5 
REMARK    3  A    between atoms: C5_5  and  N1_6 
REMARK       I    between atoms: N1_6  and  C6_8 
REMARK       I    between atoms: C6_8  and  N2_10 
REMARK    4  A    between atoms: N2_10  and  C7_12 
REMARK    5  A    between atoms: C7_12  and  C8_13 
REMARK    6  A    between atoms: C7_12  and  C12_21 
REMARK    7  A    between atoms: C8_13  and  C9_14 
REMARK    8  A    between atoms: C9_14  and  C10_15 
REMARK    9  A    between atoms: C10_15  and  C11_16 
REMARK   10  A    between atoms: C11_16  and  N3_17 
REMARK       I    between atoms: C12_21  and  N4_23 
REMARK   11  A    between atoms: N5_26  and  C15_27 
REMARK   12  A    between atoms: C15_27  and  O3_28 
REMARK   13  A    between atoms: C15_27  and  N6_30 
REMARK   14  A    between atoms: C17_33  and  C18_34 
REMARK   15  A    between atoms: C18_34  and  O5_36 
REMARK   16  A    between atoms: O5_36  and  C20_37 
ROOT
HETATM    1  C12 UNL     1      21.417  26.829  19.667  1.00  0.00     0.242 C 
HETATM    2  O2  UNL     1      21.220  27.690  20.619  1.00  0.00    -0.271 OA
HETATM    3  N4  UNL     1      21.039  25.524  19.984  1.00  0.00    -0.347 N 
HETATM    4  C13 UNL     1      21.104  24.373  19.074  1.00  0.00     0.145 C 
HETATM    5  C14 UNL     1      20.233  23.254  19.587  1.00  0.00     0.146 C 
HETATM    6  N5  UNL     1      18.888  23.789  20.041  1.00  0.00    -0.344 N 
HETATM    7  C28 UNL     1      19.032  24.799  21.019  1.00  0.00     0.146 C 
HETATM    8  C29 UNL     1      20.519  25.136  21.308  1.00  0.00     0.145 C 
ENDROOT
BRANCH   1   9
HETATM    9  C7  UNL     1      21.990  27.308  18.417  1.00  0.00     0.178 C 
BRANCH   9  10
HETATM   10  N2  UNL     1      22.997  26.368  17.902  1.00  0.00    -0.330 N 
HETATM   11  C6  UNL     1      24.373  26.434  18.205  1.00  0.00     0.316 C 
HETATM   12  N1  UNL     1      25.314  25.501  17.699  1.00  0.00    -0.343 N 
HETATM   13  O1  UNL     1      24.781  27.352  18.951  1.00  0.00    -0.247 OA
ATOM     14  H1  UNL     1      24.966  24.742  17.111  1.00  0.00     0.164 HD
ATOM     15  H2  UNL     1      22.680  25.619  17.286  1.00  0.00     0.165 HD
BRANCH  12  16
HETATM   16  C5  UNL     1      26.719  25.557  17.959  1.00  0.00     0.125 C 
BRANCH  16  17
HETATM   17  C4  UNL     1      27.260  24.244  18.436  1.00  0.00     0.023 C 
BRANCH  17  18
HETATM   18  C2  UNL     1      26.358  23.556  19.415  1.00  0.00    -0.021 C 
HETATM   19  C1  UNL     1      26.032  22.163  18.908  1.00  0.00     0.009 C 
HETATM   20  C3  UNL     1      26.867  23.448  20.807  1.00  0.00     0.009 C 
ENDBRANCH  17  18
ENDBRANCH  16  17
ENDBRANCH  12  16
ENDBRANCH   9  10
BRANCH   9  21
HETATM   21  C8  UNL     1      21.005  27.657  17.367  1.00  0.00     0.035 C 
BRANCH  21  22
HETATM   22  C9  UNL     1      21.434  27.776  15.968  1.00  0.00     0.004 C 
BRANCH  22  23
HETATM   23  C10 UNL     1      20.716  27.044  14.906  1.00  0.00     0.027 C 
BRANCH  23  24
HETATM   24  C11 UNL     1      21.468  25.727  14.665  1.00  0.00     0.229 C 
BRANCH  24  25
HETATM   25  N3  UNL     1      20.791  24.605  15.238  1.00  0.00    -0.079 N 
ATOM     26  H33 UNL     1      20.948  24.554  16.244  1.00  0.00     0.274 HD
ATOM     27  H32 UNL     1      19.780  24.746  15.238  1.00  0.00     0.274 HD
ATOM     28  H31 UNL     1      21.041  23.728  14.780  1.00  0.00     0.274 HD
ENDBRANCH  24  25
ENDBRANCH  23  24
ENDBRANCH  22  23
ENDBRANCH  21  22
ENDBRANCH   9  21
ENDBRANCH   1   9
BRANCH   6  29
HETATM   29  C15 UNL     1      17.757  23.314  19.394  1.00  0.00     0.225 C 
BRANCH  29  30
HETATM   30  O3  UNL     1      16.964  22.704  20.323  1.00  0.00    -0.332 OA
ATOM     31  H3  UNL     1      17.454  21.982  20.698  1.00  0.00     0.221 HD
ENDBRANCH  29  30
BRANCH  29  32
HETATM   32  N6  UNL     1      17.203  23.275  18.100  1.00  0.00    -0.265 N 
HETATM   33  C16 UNL     1      17.134  21.972  17.482  1.00  0.00     0.235 C 
HETATM   34  O4  UNL     1      17.807  21.044  18.057  1.00  0.00    -0.272 OA
HETATM   35  C17 UNL     1      16.413  21.549  16.288  1.00  0.00     0.116 C 
HETATM   36  C24 UNL     1      16.484  22.609  15.196  1.00  0.00     0.093 C 
HETATM   37  S1  UNL     1      15.798  24.103  15.882  1.00  0.00    -0.137 SA
HETATM   38  C25 UNL     1      16.782  24.450  17.408  1.00  0.00     0.085 C 
HETATM   39  C26 UNL     1      17.852  25.388  16.944  1.00  0.00     0.051 C 
HETATM   40  C27 UNL     1      15.745  25.176  18.286  1.00  0.00     0.051 C 
BRANCH  35  41
HETATM   41  C18 UNL     1      15.037  21.035  16.503  1.00  0.00     0.132 C 
HETATM   42  C19 UNL     1      14.265  20.964  15.162  1.00  0.00     0.040 C 
BRANCH  41  43
HETATM   43  O5  UNL     1      14.968  19.888  17.174  1.00  0.00    -0.376 OA
BRANCH  43  44
HETATM   44  C20 UNL     1      14.165  19.535  18.139  1.00  0.00     0.050 C 
HETATM   45  C21 UNL     1      14.494  18.065  18.491  1.00  0.00     0.045 C 
HETATM   46  C22 UNL     1      14.418  20.310  19.412  1.00  0.00     0.045 C 
HETATM   47  C23 UNL     1      12.682  19.568  17.931  1.00  0.00     0.045 C 
ENDBRANCH  43  44
ENDBRANCH  41  43
ENDBRANCH  35  41
ENDBRANCH  29  32
ENDBRANCH   6  29
TORSDOF 16
ENDMDL
