MODEL 1
REMARK VINA RESULT: -7.584347047      0.000      0.000
REMARK  18 active torsions:
REMARK  status: ('A' for Active; 'I' for Inactive)
REMARK    1  A    between atoms: O1_2  and  C2_3 
REMARK    2  A    between atoms: C2_3  and  C3_5 
REMARK    3  A    between atoms: C3_5  and  C4_6 
REMARK    4  A    between atoms: C4_6  and  C5_7 
REMARK    5  A    between atoms: C5_7  and  C6_8 
REMARK    6  A    between atoms: C6_8  and  C7_9 
REMARK    7  A    between atoms: C7_9  and  C8_10 
REMARK    8  A    between atoms: N2_13  and  C9_15 
REMARK    9  A    between atoms: C9_15  and  C10_16 
REMARK   10  A    between atoms: C9_15  and  N7_44 
REMARK   11  A    between atoms: C10_16  and  N3_17 
REMARK   12  A    between atoms: N3_17  and  C11_18 
REMARK       I    between atoms: N3_17  and  C17_26 
REMARK   13  A    between atoms: C11_18  and  C12_19 
REMARK   14  A    between atoms: C12_19  and  O5_21 
REMARK   15  A    between atoms: O5_21  and  C13_22 
REMARK       I    between atoms: C17_26  and  N5_33 
REMARK   16  A    between atoms: N4_27  and  C18_29 
REMARK   17  A    between atoms: N5_33  and  C22_35 
REMARK   18  A    between atoms: C22_35  and  C23_36 
REMARK       I    between atoms: N7_44  and  C28_45 
ROOT
HETATM    1  N3  UNL     1      21.757  26.635  18.287  1.00  0.00    -0.180 N 
HETATM    2  C17 UNL     1      23.149  26.379  17.982  1.00  0.00     0.677 C 
HETATM    3  N4  UNL     1      24.015  26.144  18.854  1.00  0.00    -0.218 N 
ATOM      4  H4  UNL     1      23.626  26.157  19.797  1.00  0.00     0.178 HD
HETATM    5  N5  UNL     1      23.548  26.348  16.604  1.00  0.00    -0.226 N 
ATOM      6  H5  UNL     1      23.773  25.437  16.204  1.00  0.00     0.177 HD
ENDROOT
BRANCH   1   7
HETATM    7  C10 UNL     1      20.887  25.584  17.782  1.00  0.00     0.239 C 
BRANCH   7   8
HETATM    8  C9  UNL     1      19.635  26.029  17.155  1.00  0.00     0.178 C 
BRANCH   8   9
HETATM    9  N2  UNL     1      18.449  25.581  17.848  1.00  0.00    -0.341 N 
HETATM   10  C5  UNL     1      17.676  24.591  17.416  1.00  0.00    -0.010 C 
ATOM     11  H2  UNL     1      18.191  26.050  18.716  1.00  0.00     0.167 HD
BRANCH  10  12
HETATM   12  C4  UNL     1      18.075  23.956  16.187  1.00  0.00     0.062 C 
BRANCH  12  13
HETATM   13  C3  UNL     1      17.096  23.745  15.091  1.00  0.00     0.117 C 
BRANCH  13  14
HETATM   14  C2  UNL     1      16.296  22.536  15.047  1.00  0.00     0.258 C 
HETATM   15  O2  UNL     1      16.536  21.516  15.687  1.00  0.00    -0.265 OA
BRANCH  14  16
HETATM   16  O1  UNL     1      15.145  22.478  14.220  1.00  0.00    -0.326 OA
HETATM   17  C1  UNL     1      15.232  21.907  12.928  1.00  0.00     0.213 C 
ENDBRANCH  14  16
ENDBRANCH  13  14
ENDBRANCH  12  13
ENDBRANCH  10  12
BRANCH  10  18
HETATM   18  C6  UNL     1      16.511  24.376  18.285  1.00  0.00     0.061 C 
BRANCH  18  19
HETATM   19  C7  UNL     1      16.349  22.955  18.780  1.00  0.00     0.105 C 
BRANCH  19  20
HETATM   20  C8  UNL     1      17.539  22.522  19.550  1.00  0.00     0.231 C 
HETATM   21  N1  UNL     1      18.401  21.492  19.138  1.00  0.00    -0.062 NA
HETATM   22  O3  UNL     1      17.797  23.105  20.631  1.00  0.00    -0.277 OA
ENDBRANCH  19  20
ENDBRANCH  18  19
ENDBRANCH  10  18
ENDBRANCH   8   9
BRANCH   8  23
HETATM   23  N7  UNL     1      19.519  26.710  16.179  1.00  0.00    -0.355 NA
HETATM   24  C28 UNL     1      19.394  27.460  15.102  1.00  0.00     0.289 C 
HETATM   25  C29 UNL     1      18.562  27.023  13.921  1.00  0.00     0.135 C 
HETATM   26  O6  UNL     1      19.947  28.600  14.958  1.00  0.00    -0.258 OA
ENDBRANCH   8  23
ENDBRANCH   7   8
ENDBRANCH   1   7
BRANCH   1  27
HETATM   27  C11 UNL     1      21.187  27.689  19.012  1.00  0.00     0.191 C 
BRANCH  27  28
HETATM   28  C12 UNL     1      21.357  27.734  20.466  1.00  0.00     0.300 C 
HETATM   29  O4  UNL     1      20.635  28.427  21.189  1.00  0.00    -0.259 OA
BRANCH  28  30
HETATM   30  O5  UNL     1      22.348  26.996  21.130  1.00  0.00    -0.307 OA
BRANCH  30  31
HETATM   31  C13 UNL     1      22.025  26.023  22.102  1.00  0.00     0.060 C 
HETATM   32  C14 UNL     1      21.003  25.032  21.643  1.00  0.00     0.046 C 
HETATM   33  C15 UNL     1      23.296  25.267  22.430  1.00  0.00     0.046 C 
HETATM   34  C16 UNL     1      21.536  26.628  23.400  1.00  0.00     0.046 C 
ENDBRANCH  30  31
ENDBRANCH  28  30
ENDBRANCH  27  28
ENDBRANCH   1  27
BRANCH   3  35
HETATM   35  C18 UNL     1      25.385  25.867  18.850  1.00  0.00     0.036 C 
HETATM   36  C19 UNL     1      26.211  27.112  19.014  1.00  0.00     0.038 C 
HETATM   37  C20 UNL     1      25.791  24.917  19.992  1.00  0.00     0.038 C 
HETATM   38  C21 UNL     1      25.876  25.180  17.585  1.00  0.00     0.038 C 
ENDBRANCH   3  35
BRANCH   5  39
HETATM   39  C22 UNL     1      23.655  27.489  15.743  1.00  0.00     0.142 C 
BRANCH  39  40
HETATM   40  C23 UNL     1      24.914  28.257  16.098  1.00  0.00     0.007 C 
HETATM   41  C24 UNL     1      24.641  29.756  16.071  1.00  0.00     0.034 C 
HETATM   42  C25 UNL     1      25.944  30.526  16.205  1.00  0.00     0.232 C 
HETATM   43  N6  UNL     1      27.019  29.677  16.668  1.00  0.00    -0.075 N 
HETATM   44  C26 UNL     1      27.284  28.601  15.752  1.00  0.00     0.232 C 
ATOM     45  H62 UNL     1      27.863  30.218  16.859  1.00  0.00     0.277 HD
ATOM     46  H61 UNL     1      26.836  29.327  17.609  1.00  0.00     0.277 HD
HETATM   47  C27 UNL     1      26.039  27.999  15.149  1.00  0.00     0.034 C 
ENDBRANCH  39  40
ENDBRANCH   5  39
TORSDOF 18
ENDMDL
MODEL 2
REMARK VINA RESULT: -7.445398394      1.457      1.887
REMARK  18 active torsions:
REMARK  status: ('A' for Active; 'I' for Inactive)
REMARK    1  A    between atoms: O1_2  and  C2_3 
REMARK    2  A    between atoms: C2_3  and  C3_5 
REMARK    3  A    between atoms: C3_5  and  C4_6 
REMARK    4  A    between atoms: C4_6  and  C5_7 
REMARK    5  A    between atoms: C5_7  and  C6_8 
REMARK    6  A    between atoms: C6_8  and  C7_9 
REMARK    7  A    between atoms: C7_9  and  C8_10 
REMARK    8  A    between atoms: N2_13  and  C9_15 
REMARK    9  A    between atoms: C9_15  and  C10_16 
REMARK   10  A    between atoms: C9_15  and  N7_44 
REMARK   11  A    between atoms: C10_16  and  N3_17 
REMARK   12  A    between atoms: N3_17  and  C11_18 
REMARK       I    between atoms: N3_17  and  C17_26 
REMARK   13  A    between atoms: C11_18  and  C12_19 
REMARK   14  A    between atoms: C12_19  and  O5_21 
REMARK   15  A    between atoms: O5_21  and  C13_22 
REMARK       I    between atoms: C17_26  and  N5_33 
REMARK   16  A    between atoms: N4_27  and  C18_29 
REMARK   17  A    between atoms: N5_33  and  C22_35 
REMARK   18  A    between atoms: C22_35  and  C23_36 
REMARK       I    between atoms: N7_44  and  C28_45 
ROOT
HETATM    1  N3  UNL     1      21.853  26.046  18.718  1.00  0.00    -0.180 N 
HETATM    2  C17 UNL     1      23.256  26.026  18.360  1.00  0.00     0.677 C 
HETATM    3  N4  UNL     1      24.126  25.409  19.014  1.00  0.00    -0.218 N 
ATOM      4  H4  UNL     1      23.733  24.930  19.824  1.00  0.00     0.178 HD
HETATM    5  N5  UNL     1      23.661  26.709  17.166  1.00  0.00    -0.226 N 
ATOM      6  H5  UNL     1      23.925  26.135  16.365  1.00  0.00     0.177 HD
ENDROOT
BRANCH   1   7
HETATM    7  C10 UNL     1      21.028  25.368  17.730  1.00  0.00     0.239 C 
BRANCH   7   8
HETATM    8  C9  UNL     1      19.930  26.158  17.156  1.00  0.00     0.178 C 
BRANCH   8   9
HETATM    9  N2  UNL     1      18.646  25.889  17.760  1.00  0.00    -0.341 N 
HETATM   10  C5  UNL     1      17.772  25.017  17.270  1.00  0.00    -0.010 C 
ATOM     11  H2  UNL     1      18.397  26.397  18.609  1.00  0.00     0.167 HD
BRANCH  10  12
HETATM   12  C4  UNL     1      18.163  24.323  16.071  1.00  0.00     0.062 C 
BRANCH  12  13
HETATM   13  C3  UNL     1      17.140  23.774  15.145  1.00  0.00     0.117 C 
BRANCH  13  14
HETATM   14  C2  UNL     1      16.734  22.385  15.244  1.00  0.00     0.258 C 
HETATM   15  O2  UNL     1      17.193  21.579  16.048  1.00  0.00    -0.265 OA
BRANCH  14  16
HETATM   16  O1  UNL     1      15.742  21.873  14.369  1.00  0.00    -0.326 OA
HETATM   17  C1  UNL     1      14.641  21.155  14.893  1.00  0.00     0.213 C 
ENDBRANCH  14  16
ENDBRANCH  13  14
ENDBRANCH  12  13
ENDBRANCH  10  12
BRANCH  10  18
HETATM   18  C6  UNL     1      16.528  24.977  18.053  1.00  0.00     0.061 C 
BRANCH  18  19
HETATM   19  C7  UNL     1      16.215  23.631  18.667  1.00  0.00     0.105 C 
BRANCH  19  20
HETATM   20  C8  UNL     1      14.885  23.144  18.230  1.00  0.00     0.231 C 
HETATM   21  N1  UNL     1      14.266  21.995  18.750  1.00  0.00    -0.062 NA
HETATM   22  O3  UNL     1      14.272  23.791  17.347  1.00  0.00    -0.277 OA
ENDBRANCH  19  20
ENDBRANCH  18  19
ENDBRANCH  10  18
ENDBRANCH   8   9
BRANCH   8  23
HETATM   23  N7  UNL     1      20.007  26.975  16.286  1.00  0.00    -0.355 NA
HETATM   24  C28 UNL     1      20.095  27.876  15.327  1.00  0.00     0.289 C 
HETATM   25  C29 UNL     1      19.485  27.648  13.965  1.00  0.00     0.135 C 
HETATM   26  O6  UNL     1      20.686  28.999  15.454  1.00  0.00    -0.258 OA
ENDBRANCH   8  23
ENDBRANCH   7   8
ENDBRANCH   1   7
BRANCH   1  27
HETATM   27  C11 UNL     1      21.238  26.568  19.864  1.00  0.00     0.191 C 
BRANCH  27  28
HETATM   28  C12 UNL     1      21.187  25.758  21.082  1.00  0.00     0.300 C 
HETATM   29  O4  UNL     1      21.157  26.268  22.207  1.00  0.00    -0.259 OA
BRANCH  28  30
HETATM   30  O5  UNL     1      21.171  24.356  21.054  1.00  0.00    -0.307 OA
BRANCH  30  31
HETATM   31  C13 UNL     1      19.969  23.629  20.902  1.00  0.00     0.060 C 
HETATM   32  C14 UNL     1      19.836  22.959  19.572  1.00  0.00     0.046 C 
HETATM   33  C15 UNL     1      19.948  22.555  21.971  1.00  0.00     0.046 C 
HETATM   34  C16 UNL     1      18.736  24.479  21.121  1.00  0.00     0.046 C 
ENDBRANCH  30  31
ENDBRANCH  28  30
ENDBRANCH  27  28
ENDBRANCH   1  27
BRANCH   3  35
HETATM   35  C18 UNL     1      25.506  25.216  18.904  1.00  0.00     0.036 C 
HETATM   36  C19 UNL     1      26.280  26.418  19.369  1.00  0.00     0.038 C 
HETATM   37  C20 UNL     1      25.998  24.024  19.745  1.00  0.00     0.038 C 
HETATM   38  C21 UNL     1      25.980  24.911  17.490  1.00  0.00     0.038 C 
ENDBRANCH   3  35
BRANCH   5  39
HETATM   39  C22 UNL     1      23.727  28.132  17.004  1.00  0.00     0.142 C 
BRANCH  39  40
HETATM   40  C23 UNL     1      25.125  28.513  16.556  1.00  0.00     0.007 C 
HETATM   41  C24 UNL     1      25.199  30.010  16.279  1.00  0.00     0.034 C 
HETATM   42  C25 UNL     1      26.524  30.355  15.621  1.00  0.00     0.232 C 
HETATM   43  N6  UNL     1      27.479  29.277  15.753  1.00  0.00    -0.075 N 
HETATM   44  C26 UNL     1      27.019  28.073  15.117  1.00  0.00     0.232 C 
ATOM     45  H62 UNL     1      28.399  29.552  15.406  1.00  0.00     0.277 HD
ATOM     46  H61 UNL     1      27.720  29.112  16.731  1.00  0.00     0.277 HD
HETATM   47  C27 UNL     1      25.545  27.815  15.303  1.00  0.00     0.034 C 
ENDBRANCH  39  40
ENDBRANCH   5  39
TORSDOF 18
ENDMDL
MODEL 3
REMARK VINA RESULT: -7.326088947      2.634      8.275
REMARK  18 active torsions:
REMARK  status: ('A' for Active; 'I' for Inactive)
REMARK    1  A    between atoms: O1_2  and  C2_3 
REMARK    2  A    between atoms: C2_3  and  C3_5 
REMARK    3  A    between atoms: C3_5  and  C4_6 
REMARK    4  A    between atoms: C4_6  and  C5_7 
REMARK    5  A    between atoms: C5_7  and  C6_8 
REMARK    6  A    between atoms: C6_8  and  C7_9 
REMARK    7  A    between atoms: C7_9  and  C8_10 
REMARK    8  A    between atoms: N2_13  and  C9_15 
REMARK    9  A    between atoms: C9_15  and  C10_16 
REMARK   10  A    between atoms: C9_15  and  N7_44 
REMARK   11  A    between atoms: C10_16  and  N3_17 
REMARK   12  A    between atoms: N3_17  and  C11_18 
REMARK       I    between atoms: N3_17  and  C17_26 
REMARK   13  A    between atoms: C11_18  and  C12_19 
REMARK   14  A    between atoms: C12_19  and  O5_21 
REMARK   15  A    between atoms: O5_21  and  C13_22 
REMARK       I    between atoms: C17_26  and  N5_33 
REMARK   16  A    between atoms: N4_27  and  C18_29 
REMARK   17  A    between atoms: N5_33  and  C22_35 
REMARK   18  A    between atoms: C22_35  and  C23_36 
REMARK       I    between atoms: N7_44  and  C28_45 
ROOT
HETATM    1  N3  UNL     1      21.017  26.614  18.167  1.00  0.00    -0.180 N 
HETATM    2  C17 UNL     1      20.077  25.813  17.412  1.00  0.00     0.677 C 
HETATM    3  N4  UNL     1      19.243  26.296  16.614  1.00  0.00    -0.218 N 
ATOM      4  H4  UNL     1      19.302  27.313  16.563  1.00  0.00     0.178 HD
HETATM    5  N5  UNL     1      20.137  24.386  17.550  1.00  0.00    -0.226 N 
ATOM      6  H5  UNL     1      20.510  23.856  16.763  1.00  0.00     0.177 HD
ENDROOT
BRANCH   1   7
HETATM    7  C10 UNL     1      22.393  26.365  17.764  1.00  0.00     0.239 C 
BRANCH   7   8
HETATM    8  C9  UNL     1      22.792  26.912  16.460  1.00  0.00     0.178 C 
BRANCH   8   9
HETATM    9  N2  UNL     1      24.112  26.503  16.040  1.00  0.00    -0.341 N 
HETATM   10  C5  UNL     1      25.189  27.273  16.150  1.00  0.00    -0.010 C 
ATOM     11  H2  UNL     1      24.224  25.573  15.637  1.00  0.00     0.167 HD
BRANCH  10  12
HETATM   12  C4  UNL     1      24.988  28.578  16.723  1.00  0.00     0.062 C 
BRANCH  12  13
HETATM   13  C3  UNL     1      25.005  29.792  15.868  1.00  0.00     0.117 C 
BRANCH  13  14
HETATM   14  C2  UNL     1      26.224  30.564  15.718  1.00  0.00     0.258 C 
HETATM   15  O2  UNL     1      26.355  31.737  16.056  1.00  0.00    -0.265 OA
BRANCH  14  16
HETATM   16  O1  UNL     1      27.375  29.966  15.142  1.00  0.00    -0.326 OA
HETATM   17  C1  UNL     1      28.575  29.882  15.887  1.00  0.00     0.213 C 
ENDBRANCH  14  16
ENDBRANCH  13  14
ENDBRANCH  12  13
ENDBRANCH  10  12
BRANCH  10  18
HETATM   18  C6  UNL     1      26.391  26.629  15.601  1.00  0.00     0.061 C 
BRANCH  18  19
HETATM   19  C7  UNL     1      27.481  26.364  16.616  1.00  0.00     0.105 C 
BRANCH  19  20
HETATM   20  C8  UNL     1      26.970  25.549  17.744  1.00  0.00     0.231 C 
HETATM   21  N1  UNL     1      26.207  24.381  17.579  1.00  0.00    -0.062 NA
HETATM   22  O3  UNL     1      27.230  25.919  18.915  1.00  0.00    -0.277 OA
ENDBRANCH  19  20
ENDBRANCH  18  19
ENDBRANCH  10  18
ENDBRANCH   8   9
BRANCH   8  23
HETATM   23  N7  UNL     1      22.144  27.618  15.745  1.00  0.00    -0.355 NA
HETATM   24  C28 UNL     1      21.430  28.399  14.958  1.00  0.00     0.289 C 
HETATM   25  C29 UNL     1      21.767  28.575  13.497  1.00  0.00     0.135 C 
HETATM   26  O6  UNL     1      20.411  29.062  15.343  1.00  0.00    -0.258 OA
ENDBRANCH   8  23
ENDBRANCH   7   8
ENDBRANCH   1   7
BRANCH   1  27
HETATM   27  C11 UNL     1      20.769  27.583  19.149  1.00  0.00     0.191 C 
BRANCH  27  28
HETATM   28  C12 UNL     1      21.405  27.452  20.462  1.00  0.00     0.300 C 
HETATM   29  O4  UNL     1      20.875  27.879  21.492  1.00  0.00    -0.259 OA
BRANCH  28  30
HETATM   30  O5  UNL     1      22.654  26.836  20.635  1.00  0.00    -0.307 OA
BRANCH  30  31
HETATM   31  C13 UNL     1      22.781  25.578  21.265  1.00  0.00     0.060 C 
HETATM   32  C14 UNL     1      21.520  24.774  21.261  1.00  0.00     0.046 C 
HETATM   33  C15 UNL     1      23.837  24.796  20.511  1.00  0.00     0.046 C 
HETATM   34  C16 UNL     1      23.262  25.683  22.696  1.00  0.00     0.046 C 
ENDBRANCH  30  31
ENDBRANCH  28  30
ENDBRANCH  27  28
ENDBRANCH   1  27
BRANCH   3  35
HETATM   35  C18 UNL     1      18.251  25.781  15.776  1.00  0.00     0.036 C 
HETATM   36  C19 UNL     1      16.944  25.601  16.496  1.00  0.00     0.038 C 
HETATM   37  C20 UNL     1      17.967  26.701  14.574  1.00  0.00     0.038 C 
HETATM   38  C21 UNL     1      18.598  24.436  15.156  1.00  0.00     0.038 C 
ENDBRANCH   3  35
BRANCH   5  39
HETATM   39  C22 UNL     1      19.716  23.645  18.702  1.00  0.00     0.142 C 
BRANCH  39  40
HETATM   40  C23 UNL     1      18.298  23.154  18.481  1.00  0.00     0.007 C 
HETATM   41  C24 UNL     1      17.701  22.660  19.794  1.00  0.00     0.034 C 
HETATM   42  C25 UNL     1      16.374  21.966  19.535  1.00  0.00     0.232 C 
HETATM   43  N6  UNL     1      15.868  22.261  18.213  1.00  0.00    -0.075 N 
HETATM   44  C26 UNL     1      16.763  21.806  17.184  1.00  0.00     0.232 C 
ATOM     45  H62 UNL     1      14.929  21.883  18.083  1.00  0.00     0.277 HD
ATOM     46  H61 UNL     1      15.657  23.254  18.110  1.00  0.00     0.277 HD
HETATM   47  C27 UNL     1      18.220  22.020  17.510  1.00  0.00     0.034 C 
ENDBRANCH  39  40
ENDBRANCH   5  39
TORSDOF 18
ENDMDL
MODEL 4
REMARK VINA RESULT: -7.321201865      2.429      8.868
REMARK  18 active torsions:
REMARK  status: ('A' for Active; 'I' for Inactive)
REMARK    1  A    between atoms: O1_2  and  C2_3 
REMARK    2  A    between atoms: C2_3  and  C3_5 
REMARK    3  A    between atoms: C3_5  and  C4_6 
REMARK    4  A    between atoms: C4_6  and  C5_7 
REMARK    5  A    between atoms: C5_7  and  C6_8 
REMARK    6  A    between atoms: C6_8  and  C7_9 
REMARK    7  A    between atoms: C7_9  and  C8_10 
REMARK    8  A    between atoms: N2_13  and  C9_15 
REMARK    9  A    between atoms: C9_15  and  C10_16 
REMARK   10  A    between atoms: C9_15  and  N7_44 
REMARK   11  A    between atoms: C10_16  and  N3_17 
REMARK   12  A    between atoms: N3_17  and  C11_18 
REMARK       I    between atoms: N3_17  and  C17_26 
REMARK   13  A    between atoms: C11_18  and  C12_19 
REMARK   14  A    between atoms: C12_19  and  O5_21 
REMARK   15  A    between atoms: O5_21  and  C13_22 
REMARK       I    between atoms: C17_26  and  N5_33 
REMARK   16  A    between atoms: N4_27  and  C18_29 
REMARK   17  A    between atoms: N5_33  and  C22_35 
REMARK   18  A    between atoms: C22_35  and  C23_36 
REMARK       I    between atoms: N7_44  and  C28_45 
ROOT
HETATM    1  N3  UNL     1      20.269  25.696  17.536  1.00  0.00    -0.180 N 
HETATM    2  C17 UNL     1      19.350  24.964  18.382  1.00  0.00     0.677 C 
HETATM    3  N4  UNL     1      19.706  24.049  19.158  1.00  0.00    -0.218 N 
ATOM      4  H4  UNL     1      20.711  23.881  19.121  1.00  0.00     0.178 HD
HETATM    5  N5  UNL     1      17.965  25.338  18.363  1.00  0.00    -0.226 N 
ATOM      6  H5  UNL     1      17.602  25.825  19.182  1.00  0.00     0.177 HD
ENDROOT
BRANCH   1   7
HETATM    7  C10 UNL     1      20.366  27.096  17.921  1.00  0.00     0.239 C 
BRANCH   7   8
HETATM    8  C9  UNL     1      21.357  27.411  18.959  1.00  0.00     0.178 C 
BRANCH   8   9
HETATM    9  N2  UNL     1      22.694  27.598  18.445  1.00  0.00    -0.341 N 
HETATM   10  C5  UNL     1      23.692  26.750  18.670  1.00  0.00    -0.010 C 
ATOM     11  H2  UNL     1      22.882  28.426  17.879  1.00  0.00     0.167 HD
BRANCH  10  12
HETATM   12  C4  UNL     1      23.384  25.597  19.474  1.00  0.00     0.062 C 
BRANCH  12  13
HETATM   13  C3  UNL     1      24.431  24.948  20.302  1.00  0.00     0.117 C 
BRANCH  13  14
HETATM   14  C2  UNL     1      24.775  25.490  21.603  1.00  0.00     0.258 C 
HETATM   15  O2  UNL     1      25.453  26.497  21.784  1.00  0.00    -0.265 OA
BRANCH  14  16
HETATM   16  O1  UNL     1      24.321  24.844  22.782  1.00  0.00    -0.326 OA
HETATM   17  C1  UNL     1      24.847  25.220  24.041  1.00  0.00     0.213 C 
ENDBRANCH  14  16
ENDBRANCH  13  14
ENDBRANCH  12  13
ENDBRANCH  10  12
BRANCH  10  18
HETATM   18  C6  UNL     1      24.955  27.208  18.073  1.00  0.00     0.061 C 
BRANCH  18  19
HETATM   19  C7  UNL     1      25.153  26.796  16.631  1.00  0.00     0.105 C 
BRANCH  19  20
HETATM   20  C8  UNL     1      26.302  25.869  16.497  1.00  0.00     0.231 C 
HETATM   21  N1  UNL     1      27.435  26.140  15.710  1.00  0.00    -0.062 NA
HETATM   22  O3  UNL     1      26.267  24.779  17.118  1.00  0.00    -0.277 OA
ENDBRANCH  19  20
ENDBRANCH  18  19
ENDBRANCH  10  18
ENDBRANCH   8   9
BRANCH   8  23
HETATM   23  N7  UNL     1      21.159  27.537  20.132  1.00  0.00    -0.355 NA
HETATM   24  C28 UNL     1      20.937  27.675  21.424  1.00  0.00     0.289 C 
HETATM   25  C29 UNL     1      21.407  26.647  22.425  1.00  0.00     0.135 C 
HETATM   26  O6  UNL     1      20.322  28.664  21.942  1.00  0.00    -0.258 OA
ENDBRANCH   8  23
ENDBRANCH   7   8
ENDBRANCH   1   7
BRANCH   1  27
HETATM   27  C11 UNL     1      21.068  25.232  16.483  1.00  0.00     0.191 C 
BRANCH  27  28
HETATM   28  C12 UNL     1      20.904  25.813  15.149  1.00  0.00     0.300 C 
HETATM   29  O4  UNL     1      19.984  25.478  14.396  1.00  0.00    -0.259 OA
BRANCH  28  30
HETATM   30  O5  UNL     1      21.779  26.785  14.639  1.00  0.00    -0.307 OA
BRANCH  30  31
HETATM   31  C13 UNL     1      21.387  28.134  14.494  1.00  0.00     0.060 C 
HETATM   32  C14 UNL     1      19.973  28.397  14.902  1.00  0.00     0.046 C 
HETATM   33  C15 UNL     1      22.292  28.969  15.377  1.00  0.00     0.046 C 
HETATM   34  C16 UNL     1      21.567  28.651  13.083  1.00  0.00     0.046 C 
ENDBRANCH  30  31
ENDBRANCH  28  30
ENDBRANCH  27  28
ENDBRANCH   1  27
BRANCH   3  35
HETATM   35  C18 UNL     1      19.061  23.202  20.063  1.00  0.00     0.036 C 
HETATM   36  C19 UNL     1      18.514  21.973  19.393  1.00  0.00     0.038 C 
HETATM   37  C20 UNL     1      20.004  22.712  21.178  1.00  0.00     0.038 C 
HETATM   38  C21 UNL     1      17.899  23.851  20.801  1.00  0.00     0.038 C 
ENDBRANCH   3  35
BRANCH   5  39
HETATM   39  C22 UNL     1      17.050  25.083  17.290  1.00  0.00     0.142 C 
BRANCH  39  40
HETATM   40  C23 UNL     1      16.371  23.748  17.528  1.00  0.00     0.007 C 
HETATM   41  C24 UNL     1      16.310  22.950  16.230  1.00  0.00     0.034 C 
HETATM   42  C25 UNL     1      15.438  21.719  16.415  1.00  0.00     0.232 C 
HETATM   43  N6  UNL     1      15.199  21.442  17.814  1.00  0.00    -0.075 N 
HETATM   44  C26 UNL     1      14.505  22.522  18.462  1.00  0.00     0.232 C 
ATOM     45  H62 UNL     1      14.705  20.558  17.938  1.00  0.00     0.277 HD
ATOM     46  H61 UNL     1      16.065  21.212  18.301  1.00  0.00     0.277 HD
HETATM   47  C27 UNL     1      14.967  23.889  18.022  1.00  0.00     0.034 C 
ENDBRANCH  39  40
ENDBRANCH   5  39
TORSDOF 18
ENDMDL
MODEL 5
REMARK VINA RESULT: -7.178910473      1.102      2.415
REMARK  18 active torsions:
REMARK  status: ('A' for Active; 'I' for Inactive)
REMARK    1  A    between atoms: O1_2  and  C2_3 
REMARK    2  A    between atoms: C2_3  and  C3_5 
REMARK    3  A    between atoms: C3_5  and  C4_6 
REMARK    4  A    between atoms: C4_6  and  C5_7 
REMARK    5  A    between atoms: C5_7  and  C6_8 
REMARK    6  A    between atoms: C6_8  and  C7_9 
REMARK    7  A    between atoms: C7_9  and  C8_10 
REMARK    8  A    between atoms: N2_13  and  C9_15 
REMARK    9  A    between atoms: C9_15  and  C10_16 
REMARK   10  A    between atoms: C9_15  and  N7_44 
REMARK   11  A    between atoms: C10_16  and  N3_17 
REMARK   12  A    between atoms: N3_17  and  C11_18 
REMARK       I    between atoms: N3_17  and  C17_26 
REMARK   13  A    between atoms: C11_18  and  C12_19 
REMARK   14  A    between atoms: C12_19  and  O5_21 
REMARK   15  A    between atoms: O5_21  and  C13_22 
REMARK       I    between atoms: C17_26  and  N5_33 
REMARK   16  A    between atoms: N4_27  and  C18_29 
REMARK   17  A    between atoms: N5_33  and  C22_35 
REMARK   18  A    between atoms: C22_35  and  C23_36 
REMARK       I    between atoms: N7_44  and  C28_45 
ROOT
HETATM    1  N3  UNL     1      21.755  26.476  18.283  1.00  0.00    -0.180 N 
HETATM    2  C17 UNL     1      23.158  26.260  17.995  1.00  0.00     0.677 C 
HETATM    3  N4  UNL     1      24.025  26.086  18.880  1.00  0.00    -0.218 N 
ATOM      4  H4  UNL     1      23.629  26.119  19.820  1.00  0.00     0.178 HD
HETATM    5  N5  UNL     1      23.566  26.194  16.622  1.00  0.00    -0.226 N 
ATOM      6  H5  UNL     1      23.827  25.278  16.256  1.00  0.00     0.177 HD
ENDROOT
BRANCH   1   7
HETATM    7  C10 UNL     1      20.926  25.377  17.810  1.00  0.00     0.239 C 
BRANCH   7   8
HETATM    8  C9  UNL     1      20.192  25.615  16.560  1.00  0.00     0.178 C 
BRANCH   8   9
HETATM    9  N2  UNL     1      19.491  24.451  16.070  1.00  0.00    -0.341 N 
HETATM   10  C5  UNL     1      18.174  24.296  16.155  1.00  0.00    -0.010 C 
ATOM     11  H2  UNL     1      20.037  23.707  15.635  1.00  0.00     0.167 HD
BRANCH  10  12
HETATM   12  C4  UNL     1      17.443  25.369  16.777  1.00  0.00     0.062 C 
BRANCH  12  13
HETATM   13  C3  UNL     1      16.715  25.150  18.053  1.00  0.00     0.117 C 
BRANCH  13  14
HETATM   14  C2  UNL     1      17.214  24.197  19.026  1.00  0.00     0.258 C 
HETATM   15  O2  UNL     1      18.104  24.430  19.839  1.00  0.00    -0.265 OA
BRANCH  14  16
HETATM   16  O1  UNL     1      16.669  22.889  19.079  1.00  0.00    -0.326 OA
HETATM   17  C1  UNL     1      17.529  21.765  19.100  1.00  0.00     0.213 C 
ENDBRANCH  14  16
ENDBRANCH  13  14
ENDBRANCH  12  13
ENDBRANCH  10  12
BRANCH  10  18
HETATM   18  C6  UNL     1      17.731  22.999  15.624  1.00  0.00     0.061 C 
BRANCH  18  19
HETATM   19  C7  UNL     1      16.365  23.019  14.976  1.00  0.00     0.105 C 
BRANCH  19  20
HETATM   20  C8  UNL     1      15.389  22.233  15.768  1.00  0.00     0.231 C 
HETATM   21  N1  UNL     1      14.345  22.807  16.511  1.00  0.00    -0.062 NA
HETATM   22  O3  UNL     1      15.498  20.982  15.779  1.00  0.00    -0.277 OA
ENDBRANCH  19  20
ENDBRANCH  18  19
ENDBRANCH  10  18
ENDBRANCH   8   9
BRANCH   8  23
HETATM   23  N7  UNL     1      20.115  26.642  15.952  1.00  0.00    -0.355 NA
HETATM   24  C28 UNL     1      20.034  27.774  15.282  1.00  0.00     0.289 C 
HETATM   25  C29 UNL     1      19.282  27.872  13.977  1.00  0.00     0.135 C 
HETATM   26  O6  UNL     1      20.567  28.868  15.661  1.00  0.00    -0.258 OA
ENDBRANCH   8  23
ENDBRANCH   7   8
ENDBRANCH   1   7
BRANCH   1  27
HETATM   27  C11 UNL     1      21.143  27.534  18.967  1.00  0.00     0.191 C 
BRANCH  27  28
HETATM   28  C12 UNL     1      21.367  27.682  20.406  1.00  0.00     0.300 C 
HETATM   29  O4  UNL     1      20.666  28.420  21.106  1.00  0.00    -0.259 OA
BRANCH  28  30
HETATM   30  O5  UNL     1      22.390  27.001  21.083  1.00  0.00    -0.307 OA
BRANCH  30  31
HETATM   31  C13 UNL     1      22.110  26.049  22.089  1.00  0.00     0.060 C 
HETATM   32  C14 UNL     1      21.204  24.948  21.638  1.00  0.00     0.046 C 
HETATM   33  C15 UNL     1      23.427  25.429  22.509  1.00  0.00     0.046 C 
HETATM   34  C16 UNL     1      21.508  26.666  23.332  1.00  0.00     0.046 C 
ENDBRANCH  30  31
ENDBRANCH  28  30
ENDBRANCH  27  28
ENDBRANCH   1  27
BRANCH   3  35
HETATM   35  C18 UNL     1      25.404  25.858  18.894  1.00  0.00     0.036 C 
HETATM   36  C19 UNL     1      26.184  27.138  19.005  1.00  0.00     0.038 C 
HETATM   37  C20 UNL     1      25.837  24.976  20.080  1.00  0.00     0.038 C 
HETATM   38  C21 UNL     1      25.925  25.132  17.664  1.00  0.00     0.038 C 
ENDBRANCH   3  35
BRANCH   5  39
HETATM   39  C22 UNL     1      23.639  27.307  15.722  1.00  0.00     0.142 C 
BRANCH  39  40
HETATM   40  C23 UNL     1      24.863  28.137  16.063  1.00  0.00     0.007 C 
HETATM   41  C24 UNL     1      24.528  29.622  15.988  1.00  0.00     0.034 C 
HETATM   42  C25 UNL     1      25.797  30.449  16.108  1.00  0.00     0.232 C 
HETATM   43  N6  UNL     1      26.902  29.660  16.605  1.00  0.00    -0.075 N 
HETATM   44  C26 UNL     1      27.219  28.568  15.724  1.00  0.00     0.232 C 
ATOM     45  H62 UNL     1      27.721  30.240  16.786  1.00  0.00     0.277 HD
ATOM     46  H61 UNL     1      26.725  29.331  17.555  1.00  0.00     0.277 HD
HETATM   47  C27 UNL     1      26.006  27.897  15.131  1.00  0.00     0.034 C 
ENDBRANCH  39  40
ENDBRANCH   5  39
TORSDOF 18
ENDMDL
