MODEL 1
REMARK VINA RESULT: -8.855126408      0.000      0.000
REMARK  17 active torsions:
REMARK  status: ('A' for Active; 'I' for Inactive)
REMARK    1  A    between atoms: C2_2  and  C3_3 
REMARK    2  A    between atoms: C3_3  and  S1_4 
REMARK    3  A    between atoms: S1_4  and  N1_7 
REMARK       I    between atoms: N1_7  and  C4_9 
REMARK    4  A    between atoms: C4_9  and  C5_11 
REMARK    5  A    between atoms: C5_11  and  C6_12 
REMARK    6  A    between atoms: C6_12  and  C7_13 
REMARK    7  A    between atoms: C7_13  and  O4_14 
REMARK    8  A    between atoms: C7_13  and  C9_16 
REMARK    9  A    between atoms: C7_13  and  C25_42 
REMARK       I    between atoms: C9_16  and  N2_18 
REMARK   10  A    between atoms: N2_18  and  C10_20 
REMARK   11  A    between atoms: C10_20  and  C11_21 
REMARK   12  A    between atoms: N3_24  and  C14_25 
REMARK   13  A    between atoms: C14_25  and  O6_26 
REMARK   14  A    between atoms: C15_28  and  N4_29 
REMARK   15  A    between atoms: C15_28  and  C21_38 
REMARK       I    between atoms: N4_29  and  C16_31 
REMARK   16  A    between atoms: C16_31  and  O8_33 
REMARK   17  A    between atoms: O8_33  and  C17_34 
ROOT
HETATM    1  C9  UNL     1      18.145  22.575  18.161  1.00  0.00     0.253 C 
HETATM    2  O5  UNL     1      18.518  22.447  16.944  1.00  0.00    -0.270 OA
HETATM    3  N2  UNL     1      17.246  21.603  18.622  1.00  0.00    -0.356 N 
ATOM      4  H2  UNL     1      16.927  21.666  19.589  1.00  0.00     0.162 HD
ENDROOT
BRANCH   3   5
HETATM    5  C10 UNL     1      16.746  20.524  17.816  1.00  0.00     0.148 C 
BRANCH   5   6
HETATM    6  C11 UNL     1      15.360  20.173  18.262  1.00  0.00     0.105 C 
HETATM    7  C12 UNL     1      14.895  21.102  19.332  1.00  0.00     0.047 C 
HETATM    8  C13 UNL     1      14.360  21.911  18.168  1.00  0.00     0.127 C 
HETATM    9  N3  UNL     1      14.310  20.745  17.375  1.00  0.00    -0.354 N 
BRANCH   9  10
HETATM   10  C14 UNL     1      13.664  20.175  16.280  1.00  0.00     0.162 C 
HETATM   11  C15 UNL     1      13.743  20.335  14.845  1.00  0.00     0.072 C 
BRANCH  10  12
HETATM   12  O6  UNL     1      12.763  19.266  16.674  1.00  0.00    -0.345 OA
ATOM     13  H6  UNL     1      13.184  18.543  17.123  1.00  0.00     0.219 HD
ENDBRANCH  10  12
BRANCH  11  14
HETATM   14  N4  UNL     1      12.685  19.569  14.236  1.00  0.00    -0.301 N 
HETATM   15  C16 UNL     1      11.311  19.789  14.173  1.00  0.00     0.365 C 
HETATM   16  O7  UNL     1      10.674  20.737  14.665  1.00  0.00    -0.238 OA
ATOM     17  H4  UNL     1      12.997  18.717  13.769  1.00  0.00     0.171 HD
BRANCH  15  18
HETATM   18  O8  UNL     1      10.499  18.856  13.478  1.00  0.00    -0.294 OA
BRANCH  18  19
HETATM   19  C17 UNL     1      10.710  18.630  12.110  1.00  0.00     0.061 C 
HETATM   20  C18 UNL     1      11.017  19.848  11.304  1.00  0.00     0.046 C 
HETATM   21  C19 UNL     1      11.755  17.572  11.850  1.00  0.00     0.046 C 
HETATM   22  C20 UNL     1       9.387  18.064  11.574  1.00  0.00     0.046 C 
ENDBRANCH  18  19
ENDBRANCH  15  18
ENDBRANCH  11  14
BRANCH  11  23
HETATM   23  C21 UNL     1      14.122  21.611  14.219  1.00  0.00    -0.004 C 
HETATM   24  C22 UNL     1      14.200  21.401  12.694  1.00  0.00     0.021 C 
HETATM   25  C23 UNL     1      13.282  22.801  14.486  1.00  0.00     0.021 C 
HETATM   26  C24 UNL     1      15.613  21.945  14.571  1.00  0.00     0.021 C 
ENDBRANCH  11  23
ENDBRANCH   9  10
ENDBRANCH   5   6
ENDBRANCH   3   5
BRANCH   1  27
HETATM   27  C7  UNL     1      18.708  23.707  18.881  1.00  0.00     0.147 C 
BRANCH  27  28
HETATM   28  C6  UNL     1      19.782  24.327  17.925  1.00  0.00     0.058 C 
BRANCH  28  29
HETATM   29  C5  UNL     1      19.385  25.745  17.598  1.00  0.00     0.107 C 
BRANCH  29  30
HETATM   30  C4  UNL     1      20.584  26.599  17.439  1.00  0.00     0.231 C 
HETATM   31  N1  UNL     1      21.764  26.149  16.786  1.00  0.00    -0.254 N 
ATOM     32  H1  UNL     1      21.781  25.198  16.417  1.00  0.00     0.181 HD
HETATM   33  O3  UNL     1      20.611  27.797  17.886  1.00  0.00    -0.273 OA
BRANCH  31  34
HETATM   34  S1  UNL     1      23.155  27.123  16.589  1.00  0.00     0.233 S 
HETATM   35  O1  UNL     1      24.201  26.326  15.819  1.00  0.00    -0.206 OA
HETATM   36  O2  UNL     1      23.692  27.454  17.957  1.00  0.00    -0.206 OA
BRANCH  34  37
HETATM   37  C3  UNL     1      22.885  28.624  15.738  1.00  0.00     0.163 C 
BRANCH  37  38
HETATM   38  C2  UNL     1      22.272  28.487  14.373  1.00  0.00     0.012 C 
HETATM   39  C1  UNL     1      20.778  28.490  14.347  1.00  0.00     0.006 C 
ENDBRANCH  37  38
ENDBRANCH  34  37
ENDBRANCH  31  34
ENDBRANCH  29  30
ENDBRANCH  28  29
ENDBRANCH  27  28
BRANCH  27  40
HETATM   40  O4  UNL     1      17.828  24.739  19.008  1.00  0.00    -0.374 OA
HETATM   41  C8  UNL     1      16.566  24.721  18.601  1.00  0.00     0.203 C 
ENDBRANCH  27  40
BRANCH  27  42
HETATM   42  C25 UNL     1      19.369  23.425  20.191  1.00  0.00    -0.011 C 
HETATM   43  C26 UNL     1      19.193  24.471  21.248  1.00  0.00     0.018 C 
HETATM   44  C27 UNL     1      19.107  22.099  20.812  1.00  0.00     0.018 C 
HETATM   45  C28 UNL     1      20.886  23.402  19.885  1.00  0.00     0.018 C 
ENDBRANCH  27  42
ENDBRANCH   1  27
TORSDOF 17
ENDMDL
MODEL 2
REMARK VINA RESULT: -8.657712182      3.581     10.640
REMARK  17 active torsions:
REMARK  status: ('A' for Active; 'I' for Inactive)
REMARK    1  A    between atoms: C2_2  and  C3_3 
REMARK    2  A    between atoms: C3_3  and  S1_4 
REMARK    3  A    between atoms: S1_4  and  N1_7 
REMARK       I    between atoms: N1_7  and  C4_9 
REMARK    4  A    between atoms: C4_9  and  C5_11 
REMARK    5  A    between atoms: C5_11  and  C6_12 
REMARK    6  A    between atoms: C6_12  and  C7_13 
REMARK    7  A    between atoms: C7_13  and  O4_14 
REMARK    8  A    between atoms: C7_13  and  C9_16 
REMARK    9  A    between atoms: C7_13  and  C25_42 
REMARK       I    between atoms: C9_16  and  N2_18 
REMARK   10  A    between atoms: N2_18  and  C10_20 
REMARK   11  A    between atoms: C10_20  and  C11_21 
REMARK   12  A    between atoms: N3_24  and  C14_25 
REMARK   13  A    between atoms: C14_25  and  O6_26 
REMARK   14  A    between atoms: C15_28  and  N4_29 
REMARK   15  A    between atoms: C15_28  and  C21_38 
REMARK       I    between atoms: N4_29  and  C16_31 
REMARK   16  A    between atoms: C16_31  and  O8_33 
REMARK   17  A    between atoms: O8_33  and  C17_34 
ROOT
HETATM    1  C9  UNL     1      16.382  21.751  17.197  1.00  0.00     0.253 C 
HETATM    2  O5  UNL     1      17.235  21.072  16.526  1.00  0.00    -0.270 OA
HETATM    3  N2  UNL     1      16.757  22.060  18.512  1.00  0.00    -0.356 N 
ATOM      4  H2  UNL     1      16.107  22.604  19.080  1.00  0.00     0.162 HD
ENDROOT
BRANCH   3   5
HETATM    5  C10 UNL     1      18.000  21.658  19.109  1.00  0.00     0.148 C 
BRANCH   5   6
HETATM    6  C11 UNL     1      18.466  22.725  20.051  1.00  0.00     0.105 C 
HETATM    7  C12 UNL     1      19.153  22.128  21.232  1.00  0.00     0.047 C 
HETATM    8  C13 UNL     1      20.396  22.279  20.380  1.00  0.00     0.127 C 
HETATM    9  N3  UNL     1      19.774  23.314  19.649  1.00  0.00    -0.354 N 
BRANCH   9  10
HETATM   10  C14 UNL     1      20.041  24.444  18.880  1.00  0.00     0.162 C 
HETATM   11  C15 UNL     1      20.886  25.607  19.024  1.00  0.00     0.072 C 
BRANCH  10  12
HETATM   12  O6  UNL     1      19.336  24.425  17.741  1.00  0.00    -0.345 OA
ATOM     13  H6  UNL     1      19.685  25.050  17.115  1.00  0.00     0.219 HD
ENDBRANCH  10  12
BRANCH  11  14
HETATM   14  N4  UNL     1      20.602  26.523  17.948  1.00  0.00    -0.301 N 
HETATM   15  C16 UNL     1      21.448  27.231  17.097  1.00  0.00     0.365 C 
HETATM   16  O7  UNL     1      22.692  27.229  17.095  1.00  0.00    -0.238 OA
ATOM     17  H4  UNL     1      19.608  26.680  17.780  1.00  0.00     0.171 HD
BRANCH  15  18
HETATM   18  O8  UNL     1      20.877  28.061  16.099  1.00  0.00    -0.294 OA
BRANCH  18  19
HETATM   19  C17 UNL     1      20.572  27.529  14.838  1.00  0.00     0.061 C 
HETATM   20  C18 UNL     1      21.109  26.162  14.578  1.00  0.00     0.046 C 
HETATM   21  C19 UNL     1      19.093  27.560  14.537  1.00  0.00     0.046 C 
HETATM   22  C20 UNL     1      21.234  28.469  13.820  1.00  0.00     0.046 C 
ENDBRANCH  18  19
ENDBRANCH  15  18
ENDBRANCH  11  14
BRANCH  11  23
HETATM   23  C21 UNL     1      21.226  26.170  20.340  1.00  0.00    -0.004 C 
HETATM   24  C22 UNL     1      21.147  27.707  20.248  1.00  0.00     0.021 C 
HETATM   25  C23 UNL     1      20.439  25.731  21.516  1.00  0.00     0.021 C 
HETATM   26  C24 UNL     1      22.751  25.946  20.629  1.00  0.00     0.021 C 
ENDBRANCH  11  23
ENDBRANCH   9  10
ENDBRANCH   5   6
ENDBRANCH   3   5
BRANCH   1  27
HETATM   27  C7  UNL     1      15.155  22.096  16.496  1.00  0.00     0.147 C 
BRANCH  27  28
HETATM   28  C6  UNL     1      14.467  20.733  16.149  1.00  0.00     0.058 C 
BRANCH  28  29
HETATM   29  C5  UNL     1      14.310  19.929  17.415  1.00  0.00     0.107 C 
BRANCH  29  30
HETATM   30  C4  UNL     1      12.959  19.327  17.488  1.00  0.00     0.231 C 
HETATM   31  N1  UNL     1      12.728  17.937  17.297  1.00  0.00    -0.254 N 
ATOM     32  H1  UNL     1      13.528  17.335  17.101  1.00  0.00     0.181 HD
HETATM   33  O3  UNL     1      11.925  20.040  17.730  1.00  0.00    -0.273 OA
BRANCH  31  34
HETATM   34  S1  UNL     1      11.176  17.225  17.382  1.00  0.00     0.233 S 
HETATM   35  O1  UNL     1      11.299  15.748  17.026  1.00  0.00    -0.206 OA
HETATM   36  O2  UNL     1      10.293  17.906  16.371  1.00  0.00    -0.206 OA
BRANCH  34  37
HETATM   37  C3  UNL     1      10.400  17.342  18.943  1.00  0.00     0.163 C 
BRANCH  37  38
HETATM   38  C2  UNL     1      11.259  16.969  20.117  1.00  0.00     0.012 C 
HETATM   39  C1  UNL     1      11.892  18.121  20.830  1.00  0.00     0.006 C 
ENDBRANCH  37  38
ENDBRANCH  34  37
ENDBRANCH  31  34
ENDBRANCH  29  30
ENDBRANCH  28  29
ENDBRANCH  27  28
BRANCH  27  40
HETATM   40  O4  UNL     1      14.227  22.670  17.312  1.00  0.00    -0.374 OA
HETATM   41  C8  UNL     1      14.486  23.579  18.241  1.00  0.00     0.203 C 
ENDBRANCH  27  40
BRANCH  27  42
HETATM   42  C25 UNL     1      15.287  22.878  15.229  1.00  0.00    -0.011 C 
HETATM   43  C26 UNL     1      16.286  23.993  15.253  1.00  0.00     0.018 C 
HETATM   44  C27 UNL     1      15.494  22.106  13.974  1.00  0.00     0.018 C 
HETATM   45  C28 UNL     1      13.914  23.560  15.026  1.00  0.00     0.018 C 
ENDBRANCH  27  42
ENDBRANCH   1  27
TORSDOF 17
ENDMDL
MODEL 3
REMARK VINA RESULT: -8.555128467      3.798     11.602
REMARK  17 active torsions:
REMARK  status: ('A' for Active; 'I' for Inactive)
REMARK    1  A    between atoms: C2_2  and  C3_3 
REMARK    2  A    between atoms: C3_3  and  S1_4 
REMARK    3  A    between atoms: S1_4  and  N1_7 
REMARK       I    between atoms: N1_7  and  C4_9 
REMARK    4  A    between atoms: C4_9  and  C5_11 
REMARK    5  A    between atoms: C5_11  and  C6_12 
REMARK    6  A    between atoms: C6_12  and  C7_13 
REMARK    7  A    between atoms: C7_13  and  O4_14 
REMARK    8  A    between atoms: C7_13  and  C9_16 
REMARK    9  A    between atoms: C7_13  and  C25_42 
REMARK       I    between atoms: C9_16  and  N2_18 
REMARK   10  A    between atoms: N2_18  and  C10_20 
REMARK   11  A    between atoms: C10_20  and  C11_21 
REMARK   12  A    between atoms: N3_24  and  C14_25 
REMARK   13  A    between atoms: C14_25  and  O6_26 
REMARK   14  A    between atoms: C15_28  and  N4_29 
REMARK   15  A    between atoms: C15_28  and  C21_38 
REMARK       I    between atoms: N4_29  and  C16_31 
REMARK   16  A    between atoms: C16_31  and  O8_33 
REMARK   17  A    between atoms: O8_33  and  C17_34 
ROOT
HETATM    1  C9  UNL     1      16.024  22.074  16.149  1.00  0.00     0.253 C 
HETATM    2  O5  UNL     1      16.818  21.125  16.476  1.00  0.00    -0.270 OA
HETATM    3  N2  UNL     1      16.642  23.260  15.728  1.00  0.00    -0.356 N 
ATOM      4  H2  UNL     1      16.044  24.040  15.454  1.00  0.00     0.162 HD
ENDROOT
BRANCH   3   5
HETATM    5  C10 UNL     1      18.065  23.444  15.658  1.00  0.00     0.148 C 
BRANCH   5   6
HETATM    6  C11 UNL     1      18.373  24.907  15.589  1.00  0.00     0.105 C 
HETATM    7  C12 UNL     1      17.143  25.720  15.815  1.00  0.00     0.047 C 
HETATM    8  C13 UNL     1      17.567  25.657  17.268  1.00  0.00     0.127 C 
HETATM    9  N3  UNL     1      18.904  25.443  16.873  1.00  0.00    -0.354 N 
BRANCH   9  10
HETATM   10  C14 UNL     1      20.224  25.599  17.293  1.00  0.00     0.162 C 
HETATM   11  C15 UNL     1      21.292  26.527  16.997  1.00  0.00     0.072 C 
BRANCH  10  12
HETATM   12  O6  UNL     1      20.559  24.654  18.181  1.00  0.00    -0.345 OA
ATOM     13  H6  UNL     1      20.850  25.044  18.997  1.00  0.00     0.219 HD
ENDBRANCH  10  12
BRANCH  11  14
HETATM   14  N4  UNL     1      22.498  26.064  17.636  1.00  0.00    -0.301 N 
HETATM   15  C16 UNL     1      23.077  26.400  18.858  1.00  0.00     0.365 C 
HETATM   16  O7  UNL     1      22.657  27.222  19.691  1.00  0.00    -0.238 OA
ATOM     17  H4  UNL     1      23.018  25.368  17.100  1.00  0.00     0.171 HD
BRANCH  15  18
HETATM   18  O8  UNL     1      24.281  25.759  19.243  1.00  0.00    -0.294 OA
BRANCH  18  19
HETATM   19  C17 UNL     1      25.512  26.246  18.780  1.00  0.00     0.061 C 
HETATM   20  C18 UNL     1      25.461  27.593  18.141  1.00  0.00     0.046 C 
HETATM   21  C19 UNL     1      26.582  26.228  19.844  1.00  0.00     0.046 C 
HETATM   22  C20 UNL     1      25.969  25.257  17.698  1.00  0.00     0.046 C 
ENDBRANCH  18  19
ENDBRANCH  15  18
ENDBRANCH  11  14
BRANCH  11  23
HETATM   23  C21 UNL     1      21.412  27.192  15.690  1.00  0.00    -0.004 C 
HETATM   24  C22 UNL     1      21.538  26.107  14.602  1.00  0.00     0.021 C 
HETATM   25  C23 UNL     1      20.350  28.141  15.285  1.00  0.00     0.021 C 
HETATM   26  C24 UNL     1      22.805  27.906  15.591  1.00  0.00     0.021 C 
ENDBRANCH  11  23
ENDBRANCH   9  10
ENDBRANCH   5   6
ENDBRANCH   3   5
BRANCH   1  27
HETATM   27  C7  UNL     1      14.604  21.780  16.266  1.00  0.00     0.147 C 
BRANCH  27  28
HETATM   28  C6  UNL     1      14.510  20.243  16.548  1.00  0.00     0.058 C 
BRANCH  28  29
HETATM   29  C5  UNL     1      13.971  20.035  17.941  1.00  0.00     0.107 C 
BRANCH  29  30
HETATM   30  C4  UNL     1      12.673  19.323  17.898  1.00  0.00     0.231 C 
HETATM   31  N1  UNL     1      12.549  17.982  17.441  1.00  0.00    -0.254 N 
ATOM     32  H1  UNL     1      13.391  17.496  17.130  1.00  0.00     0.181 HD
HETATM   33  O3  UNL     1      11.591  19.890  18.276  1.00  0.00    -0.273 OA
BRANCH  31  34
HETATM   34  S1  UNL     1      11.060  17.144  17.389  1.00  0.00     0.233 S 
HETATM   35  O1  UNL     1      11.329  15.702  16.975  1.00  0.00    -0.206 OA
HETATM   36  O2  UNL     1      10.189  17.803  16.352  1.00  0.00    -0.206 OA
BRANCH  34  37
HETATM   37  C3  UNL     1      10.179  17.118  18.897  1.00  0.00     0.163 C 
BRANCH  37  38
HETATM   38  C2  UNL     1      10.929  16.550  20.069  1.00  0.00     0.012 C 
HETATM   39  C1  UNL     1      11.656  17.556  20.903  1.00  0.00     0.006 C 
ENDBRANCH  37  38
ENDBRANCH  34  37
ENDBRANCH  31  34
ENDBRANCH  29  30
ENDBRANCH  28  29
ENDBRANCH  27  28
BRANCH  27  40
HETATM   40  O4  UNL     1      14.051  22.300  17.398  1.00  0.00    -0.374 OA
HETATM   41  C8  UNL     1      14.542  23.318  18.089  1.00  0.00     0.203 C 
ENDBRANCH  27  40
BRANCH  27  42
HETATM   42  C25 UNL     1      13.743  22.082  15.082  1.00  0.00    -0.011 C 
HETATM   43  C26 UNL     1      12.419  21.385  15.046  1.00  0.00     0.018 C 
HETATM   44  C27 UNL     1      13.514  23.515  14.756  1.00  0.00     0.018 C 
HETATM   45  C28 UNL     1      14.525  21.541  13.862  1.00  0.00     0.018 C 
ENDBRANCH  27  42
ENDBRANCH   1  27
TORSDOF 17
ENDMDL
MODEL 4
REMARK VINA RESULT: -8.538932426      3.631     11.427
REMARK  17 active torsions:
REMARK  status: ('A' for Active; 'I' for Inactive)
REMARK    1  A    between atoms: C2_2  and  C3_3 
REMARK    2  A    between atoms: C3_3  and  S1_4 
REMARK    3  A    between atoms: S1_4  and  N1_7 
REMARK       I    between atoms: N1_7  and  C4_9 
REMARK    4  A    between atoms: C4_9  and  C5_11 
REMARK    5  A    between atoms: C5_11  and  C6_12 
REMARK    6  A    between atoms: C6_12  and  C7_13 
REMARK    7  A    between atoms: C7_13  and  O4_14 
REMARK    8  A    between atoms: C7_13  and  C9_16 
REMARK    9  A    between atoms: C7_13  and  C25_42 
REMARK       I    between atoms: C9_16  and  N2_18 
REMARK   10  A    between atoms: N2_18  and  C10_20 
REMARK   11  A    between atoms: C10_20  and  C11_21 
REMARK   12  A    between atoms: N3_24  and  C14_25 
REMARK   13  A    between atoms: C14_25  and  O6_26 
REMARK   14  A    between atoms: C15_28  and  N4_29 
REMARK   15  A    between atoms: C15_28  and  C21_38 
REMARK       I    between atoms: N4_29  and  C16_31 
REMARK   16  A    between atoms: C16_31  and  O8_33 
REMARK   17  A    between atoms: O8_33  and  C17_34 
ROOT
HETATM    1  C9  UNL     1      16.130  22.077  16.273  1.00  0.00     0.253 C 
HETATM    2  O5  UNL     1      16.883  21.054  16.430  1.00  0.00    -0.270 OA
HETATM    3  N2  UNL     1      16.798  23.295  16.085  1.00  0.00    -0.356 N 
ATOM      4  H2  UNL     1      16.234  24.135  15.951  1.00  0.00     0.162 HD
ENDROOT
BRANCH   3   5
HETATM    5  C10 UNL     1      18.228  23.433  16.067  1.00  0.00     0.148 C 
BRANCH   5   6
HETATM    6  C11 UNL     1      18.586  24.825  15.649  1.00  0.00     0.105 C 
HETATM    7  C12 UNL     1      17.363  25.614  15.323  1.00  0.00     0.047 C 
HETATM    8  C13 UNL     1      17.418  25.995  16.788  1.00  0.00     0.127 C 
HETATM    9  N3  UNL     1      18.805  25.735  16.808  1.00  0.00    -0.354 N 
BRANCH   9  10
HETATM   10  C14 UNL     1      19.986  26.065  17.469  1.00  0.00     0.162 C 
HETATM   11  C15 UNL     1      21.036  27.037  17.270  1.00  0.00     0.072 C 
BRANCH  10  12
HETATM   12  O6  UNL     1      20.170  25.281  18.540  1.00  0.00    -0.345 OA
ATOM     13  H6  UNL     1      20.340  25.802  19.316  1.00  0.00     0.219 HD
ENDBRANCH  10  12
BRANCH  11  14
HETATM   14  N4  UNL     1      22.095  26.775  18.212  1.00  0.00    -0.301 N 
HETATM   15  C16 UNL     1      22.242  27.130  19.551  1.00  0.00     0.365 C 
HETATM   16  O7  UNL     1      21.452  27.792  20.247  1.00  0.00    -0.238 OA
ATOM     17  H4  UNL     1      22.873  26.234  17.831  1.00  0.00     0.171 HD
BRANCH  15  18
HETATM   18  O8  UNL     1      23.404  26.711  20.247  1.00  0.00    -0.294 OA
BRANCH  18  19
HETATM   19  C17 UNL     1      23.465  25.421  20.793  1.00  0.00     0.061 C 
HETATM   20  C18 UNL     1      22.158  24.859  21.242  1.00  0.00     0.046 C 
HETATM   21  C19 UNL     1      24.155  24.435  19.881  1.00  0.00     0.046 C 
HETATM   22  C20 UNL     1      24.351  25.540  22.042  1.00  0.00     0.046 C 
ENDBRANCH  18  19
ENDBRANCH  15  18
ENDBRANCH  11  14
BRANCH  11  23
HETATM   23  C21 UNL     1      21.405  27.530  15.934  1.00  0.00    -0.004 C 
HETATM   24  C22 UNL     1      21.934  26.342  15.106  1.00  0.00     0.021 C 
HETATM   25  C23 UNL     1      20.374  28.234  15.136  1.00  0.00     0.021 C 
HETATM   26  C24 UNL     1      22.679  28.437  16.042  1.00  0.00     0.021 C 
ENDBRANCH  11  23
ENDBRANCH   9  10
ENDBRANCH   5   6
ENDBRANCH   3   5
BRANCH   1  27
HETATM   27  C7  UNL     1      14.698  21.822  16.317  1.00  0.00     0.147 C 
BRANCH  27  28
HETATM   28  C6  UNL     1      14.548  20.280  16.540  1.00  0.00     0.058 C 
BRANCH  28  29
HETATM   29  C5  UNL     1      14.008  20.038  17.928  1.00  0.00     0.107 C 
BRANCH  29  30
HETATM   30  C4  UNL     1      12.706  19.337  17.867  1.00  0.00     0.231 C 
HETATM   31  N1  UNL     1      12.583  17.986  17.437  1.00  0.00    -0.254 N 
ATOM     32  H1  UNL     1      13.428  17.487  17.159  1.00  0.00     0.181 HD
HETATM   33  O3  UNL     1      11.619  19.920  18.204  1.00  0.00    -0.273 OA
BRANCH  31  34
HETATM   34  S1  UNL     1      11.089  17.159  17.365  1.00  0.00     0.233 S 
HETATM   35  O1  UNL     1      11.350  15.719  16.941  1.00  0.00    -0.206 OA
HETATM   36  O2  UNL     1      10.230  17.833  16.328  1.00  0.00    -0.206 OA
BRANCH  34  37
HETATM   37  C3  UNL     1      10.195  17.127  18.866  1.00  0.00     0.163 C 
BRANCH  37  38
HETATM   38  C2  UNL     1      10.932  16.547  20.040  1.00  0.00     0.012 C 
HETATM   39  C1  UNL     1      11.665  17.543  20.881  1.00  0.00     0.006 C 
ENDBRANCH  37  38
ENDBRANCH  34  37
ENDBRANCH  31  34
ENDBRANCH  29  30
ENDBRANCH  28  29
ENDBRANCH  27  28
BRANCH  27  40
HETATM   40  O4  UNL     1      14.110  22.320  17.440  1.00  0.00    -0.374 OA
HETATM   41  C8  UNL     1      14.624  23.261  18.218  1.00  0.00     0.203 C 
ENDBRANCH  27  40
BRANCH  27  42
HETATM   42  C25 UNL     1      13.901  22.189  15.107  1.00  0.00    -0.011 C 
HETATM   43  C26 UNL     1      12.618  21.440  14.921  1.00  0.00     0.018 C 
HETATM   44  C27 UNL     1      13.622  23.635  14.890  1.00  0.00     0.018 C 
HETATM   45  C28 UNL     1      14.786  21.794  13.901  1.00  0.00     0.018 C 
ENDBRANCH  27  42
ENDBRANCH   1  27
TORSDOF 17
ENDMDL
MODEL 5
REMARK VINA RESULT: -8.420020198      3.468     10.393
REMARK  17 active torsions:
REMARK  status: ('A' for Active; 'I' for Inactive)
REMARK    1  A    between atoms: C2_2  and  C3_3 
REMARK    2  A    between atoms: C3_3  and  S1_4 
REMARK    3  A    between atoms: S1_4  and  N1_7 
REMARK       I    between atoms: N1_7  and  C4_9 
REMARK    4  A    between atoms: C4_9  and  C5_11 
REMARK    5  A    between atoms: C5_11  and  C6_12 
REMARK    6  A    between atoms: C6_12  and  C7_13 
REMARK    7  A    between atoms: C7_13  and  O4_14 
REMARK    8  A    between atoms: C7_13  and  C9_16 
REMARK    9  A    between atoms: C7_13  and  C25_42 
REMARK       I    between atoms: C9_16  and  N2_18 
REMARK   10  A    between atoms: N2_18  and  C10_20 
REMARK   11  A    between atoms: C10_20  and  C11_21 
REMARK   12  A    between atoms: N3_24  and  C14_25 
REMARK   13  A    between atoms: C14_25  and  O6_26 
REMARK   14  A    between atoms: C15_28  and  N4_29 
REMARK   15  A    between atoms: C15_28  and  C21_38 
REMARK       I    between atoms: N4_29  and  C16_31 
REMARK   16  A    between atoms: C16_31  and  O8_33 
REMARK   17  A    between atoms: O8_33  and  C17_34 
ROOT
HETATM    1  C9  UNL     1      16.348  21.650  17.161  1.00  0.00     0.253 C 
HETATM    2  O5  UNL     1      17.088  20.736  16.660  1.00  0.00    -0.270 OA
HETATM    3  N2  UNL     1      16.736  22.115  18.426  1.00  0.00    -0.356 N 
ATOM      4  H2  UNL     1      16.175  22.849  18.859  1.00  0.00     0.162 HD
ENDROOT
BRANCH   3   5
HETATM    5  C10 UNL     1      17.876  21.623  19.148  1.00  0.00     0.148 C 
BRANCH   5   6
HETATM    6  C11 UNL     1      18.375  22.689  20.074  1.00  0.00     0.105 C 
HETATM    7  C12 UNL     1      19.086  22.090  21.239  1.00  0.00     0.047 C 
HETATM    8  C13 UNL     1      20.308  22.227  20.355  1.00  0.00     0.127 C 
HETATM    9  N3  UNL     1      19.677  23.265  19.637  1.00  0.00    -0.354 N 
BRANCH   9  10
HETATM   10  C14 UNL     1      19.934  24.390  18.856  1.00  0.00     0.162 C 
HETATM   11  C15 UNL     1      20.768  25.563  18.991  1.00  0.00     0.072 C 
BRANCH  10  12
HETATM   12  O6  UNL     1      19.231  24.353  17.716  1.00  0.00    -0.345 OA
ATOM     13  H6  UNL     1      19.087  23.457  17.436  1.00  0.00     0.219 HD
ENDBRANCH  10  12
BRANCH  11  14
HETATM   14  N4  UNL     1      20.476  26.466  17.905  1.00  0.00    -0.301 N 
HETATM   15  C16 UNL     1      21.309  27.270  17.131  1.00  0.00     0.365 C 
HETATM   16  O7  UNL     1      22.543  27.393  17.227  1.00  0.00    -0.238 OA
ATOM     17  H4  UNL     1      19.487  26.525  17.662  1.00  0.00     0.171 HD
BRANCH  15  18
HETATM   18  O8  UNL     1      20.735  28.057  16.100  1.00  0.00    -0.294 OA
BRANCH  18  19
HETATM   19  C17 UNL     1      20.473  27.485  14.847  1.00  0.00     0.061 C 
HETATM   20  C18 UNL     1      21.105  26.153  14.612  1.00  0.00     0.046 C 
HETATM   21  C19 UNL     1      18.997  27.407  14.540  1.00  0.00     0.046 C 
HETATM   22  C20 UNL     1      21.074  28.451  13.816  1.00  0.00     0.046 C 
ENDBRANCH  18  19
ENDBRANCH  15  18
ENDBRANCH  11  14
BRANCH  11  23
HETATM   23  C21 UNL     1      21.099  26.143  20.302  1.00  0.00    -0.004 C 
HETATM   24  C22 UNL     1      22.406  25.497  20.803  1.00  0.00     0.021 C 
HETATM   25  C23 UNL     1      21.234  27.614  20.405  1.00  0.00     0.021 C 
HETATM   26  C24 UNL     1      20.067  25.644  21.372  1.00  0.00     0.021 C 
ENDBRANCH  11  23
ENDBRANCH   9  10
ENDBRANCH   5   6
ENDBRANCH   3   5
BRANCH   1  27
HETATM   27  C7  UNL     1      15.217  22.068  16.347  1.00  0.00     0.147 C 
BRANCH  27  28
HETATM   28  C6  UNL     1      14.540  20.745  15.852  1.00  0.00     0.058 C 
BRANCH  28  29
HETATM   29  C5  UNL     1      13.169  20.637  16.473  1.00  0.00     0.107 C 
BRANCH  29  30
HETATM   30  C4  UNL     1      13.157  19.601  17.532  1.00  0.00     0.231 C 
HETATM   31  N1  UNL     1      12.231  19.621  18.612  1.00  0.00    -0.254 N 
ATOM     32  H1  UNL     1      11.554  20.383  18.656  1.00  0.00     0.181 HD
HETATM   33  O3  UNL     1      13.986  18.629  17.520  1.00  0.00    -0.273 OA
BRANCH  31  34
HETATM   34  S1  UNL     1      12.199  18.432  19.839  1.00  0.00     0.233 S 
HETATM   35  O1  UNL     1      11.317  18.932  20.977  1.00  0.00    -0.206 OA
HETATM   36  O2  UNL     1      13.605  18.245  20.347  1.00  0.00    -0.206 OA
BRANCH  34  37
HETATM   37  C3  UNL     1      11.597  16.872  19.333  1.00  0.00     0.163 C 
BRANCH  37  38
HETATM   38  C2  UNL     1      10.504  16.909  18.303  1.00  0.00     0.012 C 
HETATM   39  C1  UNL     1      10.958  16.711  16.892  1.00  0.00     0.006 C 
ENDBRANCH  37  38
ENDBRANCH  34  37
ENDBRANCH  31  34
ENDBRANCH  29  30
ENDBRANCH  28  29
ENDBRANCH  27  28
BRANCH  27  40
HETATM   40  O4  UNL     1      14.217  22.627  17.084  1.00  0.00    -0.374 OA
HETATM   41  C8  UNL     1      14.375  23.227  18.255  1.00  0.00     0.203 C 
ENDBRANCH  27  40
BRANCH  27  42
HETATM   42  C25 UNL     1      15.511  22.908  15.147  1.00  0.00    -0.011 C 
HETATM   43  C26 UNL     1      16.679  23.836  15.272  1.00  0.00     0.018 C 
HETATM   44  C27 UNL     1      15.622  22.208  13.838  1.00  0.00     0.018 C 
HETATM   45  C28 UNL     1      14.275  23.823  14.977  1.00  0.00     0.018 C 
ENDBRANCH  27  42
ENDBRANCH   1  27
TORSDOF 17
ENDMDL
