MODEL 1
REMARK VINA RESULT: -8.737638125      0.000      0.000
REMARK  15 active torsions:
REMARK  status: ('A' for Active; 'I' for Inactive)
REMARK    1  A    between atoms: C2_2  and  C3_3 
REMARK    2  A    between atoms: C3_3  and  N1_4 
REMARK       I    between atoms: N1_4  and  C4_6 
REMARK    3  A    between atoms: C4_6  and  C5_8 
REMARK       I    between atoms: N2_9  and  C6_10 
REMARK    4  A    between atoms: C6_10  and  C7_12 
REMARK    5  A    between atoms: C7_12  and  C8_13 
REMARK    6  A    between atoms: C7_12  and  C10_15 
REMARK    7  A    between atoms: C10_15  and  N3_16 
REMARK    8  A    between atoms: C10_15  and  C16_25 
REMARK       I    between atoms: N3_16  and  C11_18 
REMARK    9  A    between atoms: C11_18  and  O4_20 
REMARK   10  A    between atoms: O4_20  and  C12_21 
REMARK       I    between atoms: C16_25  and  N4_27 
REMARK       I    between atoms: N5_30  and  C19_31 
REMARK   11  A    between atoms: C19_31  and  O7_33 
REMARK   12  A    between atoms: O7_33  and  C20_34 
REMARK   13  A    between atoms: C20_34  and  C21_35 
REMARK   14  A    between atoms: C21_35  and  C22_36 
REMARK   15  A    between atoms: C22_36  and  C23_37 
ROOT
HETATM    1  C10 UNL     1      16.432  22.803  17.561  1.00  0.00     0.192 C 
ENDROOT
BRANCH   1   2
HETATM    2  C7  UNL     1      17.849  22.794  18.111  1.00  0.00     0.110 C 
BRANCH   2   3
HETATM    3  C6  UNL     1      18.387  24.213  17.943  1.00  0.00     0.228 C 
HETATM    4  N2  UNL     1      19.129  24.657  16.840  1.00  0.00    -0.312 N 
HETATM    5  C5  UNL     1      19.622  25.991  16.676  1.00  0.00     0.216 C 
HETATM    6  C27 UNL     1      19.509  23.868  15.716  1.00  0.00     0.361 C 
HETATM    7  C28 UNL     1      20.436  25.946  15.415  1.00  0.00     0.149 C 
HETATM    8  N6  UNL     1      20.686  24.513  15.187  1.00  0.00    -0.049 N 
HETATM    9  C29 UNL     1      21.793  26.569  15.597  1.00  0.00     0.049 C 
HETATM   10  C30 UNL     1      19.710  26.503  14.215  1.00  0.00     0.049 C 
ATOM     11  H62 UNL     1      21.564  24.172  15.579  1.00  0.00     0.280 HD
ATOM     12  H61 UNL     1      20.898  24.272  14.219  1.00  0.00     0.280 HD
HETATM   13  O2  UNL     1      18.137  25.058  18.875  1.00  0.00    -0.273 OA
BRANCH   5  14
HETATM   14  C4  UNL     1      20.417  26.497  17.826  1.00  0.00     0.243 C 
HETATM   15  N1  UNL     1      21.233  25.582  18.527  1.00  0.00    -0.356 N 
ATOM     16  H1  UNL     1      21.252  24.607  18.226  1.00  0.00     0.162 HD
HETATM   17  O1  UNL     1      20.422  27.686  18.225  1.00  0.00    -0.271 OA
BRANCH  15  18
HETATM   18  C3  UNL     1      22.050  25.987  19.669  1.00  0.00     0.149 C 
BRANCH  18  19
HETATM   19  C2  UNL     1      21.786  25.064  20.803  1.00  0.00    -0.018 C 
HETATM   20  C1  UNL     1      20.549  24.998  21.287  1.00  0.00     0.008 C 
ENDBRANCH  18  19
ENDBRANCH  15  18
ENDBRANCH   5  14
ENDBRANCH   2   3
BRANCH   2  21
HETATM   21  C8  UNL     1      17.920  22.558  19.587  1.00  0.00     0.012 C 
HETATM   22  C9  UNL     1      19.053  21.787  20.127  1.00  0.00     0.006 C 
ENDBRANCH   2  21
ENDBRANCH   1   2
BRANCH   1  23
HETATM   23  N3  UNL     1      15.547  22.160  18.553  1.00  0.00    -0.323 N 
HETATM   24  C11 UNL     1      15.516  20.768  18.753  1.00  0.00     0.362 C 
HETATM   25  O3  UNL     1      16.290  20.055  18.037  1.00  0.00    -0.238 OA
ATOM     26  H3  UNL     1      14.933  22.750  19.115  1.00  0.00     0.165 HD
BRANCH  24  27
HETATM   27  O4  UNL     1      14.721  20.120  19.653  1.00  0.00    -0.294 OA
BRANCH  27  28
HETATM   28  C12 UNL     1      13.794  19.147  19.234  1.00  0.00     0.061 C 
HETATM   29  C13 UNL     1      14.456  18.042  18.435  1.00  0.00     0.046 C 
HETATM   30  C14 UNL     1      13.156  18.504  20.459  1.00  0.00     0.046 C 
HETATM   31  C15 UNL     1      12.712  19.785  18.388  1.00  0.00     0.046 C 
ENDBRANCH  27  28
ENDBRANCH  24  27
ENDBRANCH   1  23
BRANCH   1  32
HETATM   32  C16 UNL     1      16.247  22.140  16.261  1.00  0.00     0.243 C 
HETATM   33  O5  UNL     1      17.265  21.584  15.682  1.00  0.00    -0.271 OA
HETATM   34  N4  UNL     1      15.043  22.027  15.538  1.00  0.00    -0.347 N 
HETATM   35  C17 UNL     1      15.059  21.372  14.237  1.00  0.00     0.146 C 
HETATM   36  C26 UNL     1      13.813  22.516  16.064  1.00  0.00     0.146 C 
HETATM   37  C18 UNL     1      13.971  20.336  14.235  1.00  0.00     0.148 C 
HETATM   38  N5  UNL     1      12.735  21.044  14.503  1.00  0.00    -0.325 N 
HETATM   39  C19 UNL     1      11.681  21.097  13.551  1.00  0.00     0.362 C 
HETATM   40  C25 UNL     1      12.595  21.697  15.771  1.00  0.00     0.148 C 
HETATM   41  O6  UNL     1      10.645  21.721  13.840  1.00  0.00    -0.238 OA
BRANCH  39  42
HETATM   42  O7  UNL     1      11.865  20.454  12.357  1.00  0.00    -0.304 OA
BRANCH  42  43
HETATM   43  C20 UNL     1      11.031  19.443  11.913  1.00  0.00     0.180 C 
BRANCH  43  44
HETATM   44  C21 UNL     1      11.169  18.203  12.727  1.00  0.00     0.027 C 
BRANCH  44  45
HETATM   45  C22 UNL     1      10.755  16.962  11.983  1.00  0.00     0.002 C 
BRANCH  45  46
HETATM   46  C23 UNL     1      11.732  15.856  12.290  1.00  0.00    -0.004 C 
HETATM   47  C24 UNL     1      13.016  16.207  11.551  1.00  0.00     0.005 C 
ENDBRANCH  45  46
ENDBRANCH  44  45
ENDBRANCH  43  44
ENDBRANCH  42  43
ENDBRANCH  39  42
ENDBRANCH   1  32
TORSDOF 15
ENDMDL
MODEL 2
REMARK VINA RESULT: -8.460527445      3.738      7.177
REMARK  15 active torsions:
REMARK  status: ('A' for Active; 'I' for Inactive)
REMARK    1  A    between atoms: C2_2  and  C3_3 
REMARK    2  A    between atoms: C3_3  and  N1_4 
REMARK       I    between atoms: N1_4  and  C4_6 
REMARK    3  A    between atoms: C4_6  and  C5_8 
REMARK       I    between atoms: N2_9  and  C6_10 
REMARK    4  A    between atoms: C6_10  and  C7_12 
REMARK    5  A    between atoms: C7_12  and  C8_13 
REMARK    6  A    between atoms: C7_12  and  C10_15 
REMARK    7  A    between atoms: C10_15  and  N3_16 
REMARK    8  A    between atoms: C10_15  and  C16_25 
REMARK       I    between atoms: N3_16  and  C11_18 
REMARK    9  A    between atoms: C11_18  and  O4_20 
REMARK   10  A    between atoms: O4_20  and  C12_21 
REMARK       I    between atoms: C16_25  and  N4_27 
REMARK       I    between atoms: N5_30  and  C19_31 
REMARK   11  A    between atoms: C19_31  and  O7_33 
REMARK   12  A    between atoms: O7_33  and  C20_34 
REMARK   13  A    between atoms: C20_34  and  C21_35 
REMARK   14  A    between atoms: C21_35  and  C22_36 
REMARK   15  A    between atoms: C22_36  and  C23_37 
ROOT
HETATM    1  C10 UNL     1      20.454  25.034  19.236  1.00  0.00     0.192 C 
ENDROOT
BRANCH   1   2
HETATM    2  C7  UNL     1      21.504  25.751  20.069  1.00  0.00     0.110 C 
BRANCH   2   3
HETATM    3  C6  UNL     1      22.718  25.943  19.164  1.00  0.00     0.228 C 
HETATM    4  N2  UNL     1      23.986  25.400  19.408  1.00  0.00    -0.312 N 
HETATM    5  C5  UNL     1      25.121  25.567  18.552  1.00  0.00     0.216 C 
HETATM    6  C27 UNL     1      24.352  24.600  20.530  1.00  0.00     0.361 C 
HETATM    7  C28 UNL     1      26.254  24.905  19.283  1.00  0.00     0.149 C 
HETATM    8  N6  UNL     1      25.776  24.780  20.670  1.00  0.00    -0.049 N 
HETATM    9  C29 UNL     1      27.471  25.786  19.353  1.00  0.00     0.049 C 
HETATM   10  C30 UNL     1      26.577  23.527  18.761  1.00  0.00     0.049 C 
ATOM     11  H62 UNL     1      26.043  25.554  21.279  1.00  0.00     0.280 HD
ATOM     12  H61 UNL     1      26.240  24.050  21.211  1.00  0.00     0.280 HD
HETATM   13  O2  UNL     1      22.563  26.646  18.103  1.00  0.00    -0.273 OA
BRANCH   5  14
HETATM   14  C4  UNL     1      25.434  26.983  18.219  1.00  0.00     0.243 C 
HETATM   15  N1  UNL     1      25.538  27.341  16.858  1.00  0.00    -0.356 N 
ATOM     16  H1  UNL     1      25.396  26.623  16.146  1.00  0.00     0.162 HD
HETATM   17  O1  UNL     1      25.614  27.893  19.063  1.00  0.00    -0.271 OA
BRANCH  15  18
HETATM   18  C3  UNL     1      25.840  28.707  16.434  1.00  0.00     0.149 C 
BRANCH  18  19
HETATM   19  C2  UNL     1      24.592  29.349  15.945  1.00  0.00    -0.018 C 
HETATM   20  C1  UNL     1      23.686  28.586  15.341  1.00  0.00     0.008 C 
ENDBRANCH  18  19
ENDBRANCH  15  18
ENDBRANCH   5  14
ENDBRANCH   2   3
BRANCH   2  21
HETATM   21  C8  UNL     1      21.119  27.147  20.450  1.00  0.00     0.012 C 
HETATM   22  C9  UNL     1      21.042  27.495  21.879  1.00  0.00     0.006 C 
ENDBRANCH   2  21
ENDBRANCH   1   2
BRANCH   1  23
HETATM   23  N3  UNL     1      19.802  26.026  18.359  1.00  0.00    -0.323 N 
HETATM   24  C11 UNL     1      19.675  25.846  16.969  1.00  0.00     0.362 C 
HETATM   25  O3  UNL     1      20.151  24.775  16.471  1.00  0.00    -0.238 OA
ATOM     26  H3  UNL     1      19.428  26.878  18.778  1.00  0.00     0.165 HD
BRANCH  24  27
HETATM   27  O4  UNL     1      19.083  26.727  16.112  1.00  0.00    -0.294 OA
BRANCH  27  28
HETATM   28  C12 UNL     1      19.644  27.000  14.851  1.00  0.00     0.061 C 
HETATM   29  C13 UNL     1      20.834  26.110  14.556  1.00  0.00     0.046 C 
HETATM   30  C14 UNL     1      18.601  26.737  13.772  1.00  0.00     0.046 C 
HETATM   31  C15 UNL     1      20.082  28.448  14.775  1.00  0.00     0.046 C 
ENDBRANCH  27  28
ENDBRANCH  24  27
ENDBRANCH   1  23
BRANCH   1  32
HETATM   32  C16 UNL     1      19.417  24.317  19.994  1.00  0.00     0.243 C 
HETATM   33  O5  UNL     1      19.184  24.655  21.224  1.00  0.00    -0.271 OA
HETATM   34  N4  UNL     1      18.607  23.265  19.525  1.00  0.00    -0.347 N 
HETATM   35  C17 UNL     1      17.660  22.640  20.437  1.00  0.00     0.146 C 
HETATM   36  C26 UNL     1      18.681  22.819  18.173  1.00  0.00     0.146 C 
HETATM   37  C18 UNL     1      16.320  22.617  19.758  1.00  0.00     0.148 C 
HETATM   38  N5  UNL     1      16.501  21.874  18.527  1.00  0.00    -0.325 N 
HETATM   39  C19 UNL     1      15.828  20.646  18.287  1.00  0.00     0.362 C 
HETATM   40  C25 UNL     1      17.386  22.416  17.538  1.00  0.00     0.148 C 
HETATM   41  O6  UNL     1      16.025  20.055  17.211  1.00  0.00    -0.238 OA
BRANCH  39  42
HETATM   42  O7  UNL     1      14.991  20.175  19.263  1.00  0.00    -0.304 OA
BRANCH  42  43
HETATM   43  C20 UNL     1      13.825  19.485  18.982  1.00  0.00     0.180 C 
BRANCH  43  44
HETATM   44  C21 UNL     1      13.616  18.336  19.906  1.00  0.00     0.027 C 
BRANCH  44  45
HETATM   45  C22 UNL     1      12.456  18.537  20.844  1.00  0.00     0.002 C 
BRANCH  45  46
HETATM   46  C23 UNL     1      11.798  17.208  21.107  1.00  0.00    -0.004 C 
HETATM   47  C24 UNL     1      10.743  17.035  20.022  1.00  0.00     0.005 C 
ENDBRANCH  45  46
ENDBRANCH  44  45
ENDBRANCH  43  44
ENDBRANCH  42  43
ENDBRANCH  39  42
ENDBRANCH   1  32
TORSDOF 15
ENDMDL
MODEL 3
REMARK VINA RESULT: -8.400051513      2.369     10.450
REMARK  15 active torsions:
REMARK  status: ('A' for Active; 'I' for Inactive)
REMARK    1  A    between atoms: C2_2  and  C3_3 
REMARK    2  A    between atoms: C3_3  and  N1_4 
REMARK       I    between atoms: N1_4  and  C4_6 
REMARK    3  A    between atoms: C4_6  and  C5_8 
REMARK       I    between atoms: N2_9  and  C6_10 
REMARK    4  A    between atoms: C6_10  and  C7_12 
REMARK    5  A    between atoms: C7_12  and  C8_13 
REMARK    6  A    between atoms: C7_12  and  C10_15 
REMARK    7  A    between atoms: C10_15  and  N3_16 
REMARK    8  A    between atoms: C10_15  and  C16_25 
REMARK       I    between atoms: N3_16  and  C11_18 
REMARK    9  A    between atoms: C11_18  and  O4_20 
REMARK   10  A    between atoms: O4_20  and  C12_21 
REMARK       I    between atoms: C16_25  and  N4_27 
REMARK       I    between atoms: N5_30  and  C19_31 
REMARK   11  A    between atoms: C19_31  and  O7_33 
REMARK   12  A    between atoms: O7_33  and  C20_34 
REMARK   13  A    between atoms: C20_34  and  C21_35 
REMARK   14  A    between atoms: C21_35  and  C22_36 
REMARK   15  A    between atoms: C22_36  and  C23_37 
ROOT
HETATM    1  C10 UNL     1      16.874  22.783  16.928  1.00  0.00     0.192 C 
ENDROOT
BRANCH   1   2
HETATM    2  C7  UNL     1      16.198  21.689  16.117  1.00  0.00     0.110 C 
BRANCH   2   3
HETATM    3  C6  UNL     1      14.870  21.395  16.811  1.00  0.00     0.228 C 
HETATM    4  N2  UNL     1      14.629  20.283  17.628  1.00  0.00    -0.312 N 
HETATM    5  C5  UNL     1      13.388  20.014  18.290  1.00  0.00     0.216 C 
HETATM    6  C27 UNL     1      15.563  19.251  17.934  1.00  0.00     0.361 C 
HETATM    7  C28 UNL     1      13.583  18.676  18.942  1.00  0.00     0.149 C 
HETATM    8  N6  UNL     1      14.757  18.101  18.263  1.00  0.00    -0.049 N 
HETATM    9  C29 UNL     1      12.447  17.735  18.650  1.00  0.00     0.049 C 
HETATM   10  C30 UNL     1      13.881  18.769  20.418  1.00  0.00     0.049 C 
ATOM     11  H62 UNL     1      14.532  17.504  17.467  1.00  0.00     0.280 HD
ATOM     12  H61 UNL     1      15.246  17.386  18.801  1.00  0.00     0.280 HD
HETATM   13  O2  UNL     1      13.911  22.228  16.636  1.00  0.00    -0.273 OA
BRANCH   5  14
HETATM   14  C4  UNL     1      12.201  20.021  17.394  1.00  0.00     0.243 C 
HETATM   15  N1  UNL     1      12.373  19.604  16.056  1.00  0.00    -0.356 N 
ATOM     16  H1  UNL     1      13.300  19.314  15.745  1.00  0.00     0.162 HD
HETATM   17  O1  UNL     1      11.046  20.370  17.738  1.00  0.00    -0.271 OA
BRANCH  15  18
HETATM   18  C3  UNL     1      11.266  19.576  15.102  1.00  0.00     0.149 C 
BRANCH  18  19
HETATM   19  C2  UNL     1      11.509  20.596  14.049  1.00  0.00    -0.018 C 
HETATM   20  C1  UNL     1      11.219  21.866  14.322  1.00  0.00     0.008 C 
ENDBRANCH  18  19
ENDBRANCH  15  18
ENDBRANCH   5  14
ENDBRANCH   2   3
BRANCH   2  21
HETATM   21  C8  UNL     1      15.795  22.121  14.742  1.00  0.00     0.012 C 
HETATM   22  C9  UNL     1      15.007  21.195  13.911  1.00  0.00     0.006 C 
ENDBRANCH   2  21
ENDBRANCH   1   2
BRANCH   1  23
HETATM   23  N3  UNL     1      17.558  23.697  15.992  1.00  0.00    -0.323 N 
HETATM   24  C11 UNL     1      17.309  25.081  15.964  1.00  0.00     0.362 C 
HETATM   25  O3  UNL     1      16.455  25.541  16.789  1.00  0.00    -0.238 OA
ATOM     26  H3  UNL     1      18.238  23.309  15.338  1.00  0.00     0.165 HD
BRANCH  24  27
HETATM   27  O4  UNL     1      17.910  25.973  15.123  1.00  0.00    -0.294 OA
BRANCH  27  28
HETATM   28  C12 UNL     1      19.300  26.184  15.165  1.00  0.00     0.061 C 
HETATM   29  C13 UNL     1      20.065  24.889  15.349  1.00  0.00     0.046 C 
HETATM   30  C14 UNL     1      19.753  26.797  13.846  1.00  0.00     0.046 C 
HETATM   31  C15 UNL     1      19.652  27.128  16.297  1.00  0.00     0.046 C 
ENDBRANCH  27  28
ENDBRANCH  24  27
ENDBRANCH   1  23
BRANCH   1  32
HETATM   32  C16 UNL     1      17.844  22.324  17.935  1.00  0.00     0.243 C 
HETATM   33  O5  UNL     1      18.115  21.059  18.024  1.00  0.00    -0.271 OA
HETATM   34  N4  UNL     1      18.549  23.128  18.853  1.00  0.00    -0.347 N 
HETATM   35  C17 UNL     1      19.438  22.491  19.813  1.00  0.00     0.146 C 
HETATM   36  C26 UNL     1      18.425  24.548  18.841  1.00  0.00     0.146 C 
HETATM   37  C18 UNL     1      20.766  23.190  19.739  1.00  0.00     0.148 C 
HETATM   38  N5  UNL     1      20.508  24.585  20.036  1.00  0.00    -0.325 N 
HETATM   39  C19 UNL     1      21.061  25.222  21.180  1.00  0.00     0.362 C 
HETATM   40  C25 UNL     1      19.672  25.322  19.135  1.00  0.00     0.148 C 
HETATM   41  O6  UNL     1      20.803  26.421  21.382  1.00  0.00    -0.238 OA
BRANCH  39  42
HETATM   42  O7  UNL     1      21.856  24.472  22.007  1.00  0.00    -0.304 OA
BRANCH  42  43
HETATM   43  C20 UNL     1      23.138  24.853  22.361  1.00  0.00     0.180 C 
BRANCH  43  44
HETATM   44  C21 UNL     1      23.864  25.500  21.233  1.00  0.00     0.027 C 
BRANCH  44  45
HETATM   45  C22 UNL     1      25.127  24.776  20.852  1.00  0.00     0.002 C 
BRANCH  45  46
HETATM   46  C23 UNL     1      25.024  24.327  19.418  1.00  0.00    -0.004 C 
HETATM   47  C24 UNL     1      26.091  23.256  19.231  1.00  0.00     0.005 C 
ENDBRANCH  45  46
ENDBRANCH  44  45
ENDBRANCH  43  44
ENDBRANCH  42  43
ENDBRANCH  39  42
ENDBRANCH   1  32
TORSDOF 15
ENDMDL
MODEL 4
REMARK VINA RESULT: -7.991818658      2.358     10.167
REMARK  15 active torsions:
REMARK  status: ('A' for Active; 'I' for Inactive)
REMARK    1  A    between atoms: C2_2  and  C3_3 
REMARK    2  A    between atoms: C3_3  and  N1_4 
REMARK       I    between atoms: N1_4  and  C4_6 
REMARK    3  A    between atoms: C4_6  and  C5_8 
REMARK       I    between atoms: N2_9  and  C6_10 
REMARK    4  A    between atoms: C6_10  and  C7_12 
REMARK    5  A    between atoms: C7_12  and  C8_13 
REMARK    6  A    between atoms: C7_12  and  C10_15 
REMARK    7  A    between atoms: C10_15  and  N3_16 
REMARK    8  A    between atoms: C10_15  and  C16_25 
REMARK       I    between atoms: N3_16  and  C11_18 
REMARK    9  A    between atoms: C11_18  and  O4_20 
REMARK   10  A    between atoms: O4_20  and  C12_21 
REMARK       I    between atoms: C16_25  and  N4_27 
REMARK       I    between atoms: N5_30  and  C19_31 
REMARK   11  A    between atoms: C19_31  and  O7_33 
REMARK   12  A    between atoms: O7_33  and  C20_34 
REMARK   13  A    between atoms: C20_34  and  C21_35 
REMARK   14  A    between atoms: C21_35  and  C22_36 
REMARK   15  A    between atoms: C22_36  and  C23_37 
ROOT
HETATM    1  C10 UNL     1      16.076  23.804  15.809  1.00  0.00     0.192 C 
ENDROOT
BRANCH   1   2
HETATM    2  C7  UNL     1      15.840  22.365  15.382  1.00  0.00     0.110 C 
BRANCH   2   3
HETATM    3  C6  UNL     1      14.535  21.927  16.043  1.00  0.00     0.228 C 
HETATM    4  N2  UNL     1      14.429  20.904  16.994  1.00  0.00    -0.312 N 
HETATM    5  C5  UNL     1      13.208  20.503  17.625  1.00  0.00     0.216 C 
HETATM    6  C27 UNL     1      15.502  20.107  17.488  1.00  0.00     0.361 C 
HETATM    7  C28 UNL     1      13.582  19.317  18.467  1.00  0.00     0.149 C 
HETATM    8  N6  UNL     1      14.885  18.882  17.935  1.00  0.00    -0.049 N 
HETATM    9  C29 UNL     1      12.650  18.156  18.253  1.00  0.00     0.049 C 
HETATM   10  C30 UNL     1      13.749  19.652  19.929  1.00  0.00     0.049 C 
ATOM     11  H62 UNL     1      14.826  18.157  17.220  1.00  0.00     0.280 HD
ATOM     12  H61 UNL     1      15.449  18.343  18.591  1.00  0.00     0.280 HD
HETATM   13  O2  UNL     1      13.462  22.543  15.705  1.00  0.00    -0.273 OA
BRANCH   5  14
HETATM   14  C4  UNL     1      12.107  20.179  16.678  1.00  0.00     0.243 C 
HETATM   15  N1  UNL     1      12.447  19.626  15.425  1.00  0.00    -0.356 N 
ATOM     16  H1  UNL     1      13.431  19.466  15.205  1.00  0.00     0.162 HD
HETATM   17  O1  UNL     1      10.888  20.358  16.910  1.00  0.00    -0.271 OA
BRANCH  15  18
HETATM   18  C3  UNL     1      11.435  19.274  14.430  1.00  0.00     0.149 C 
BRANCH  18  19
HETATM   19  C2  UNL     1      11.422  20.313  13.367  1.00  0.00    -0.018 C 
HETATM   20  C1  UNL     1      11.387  19.915  12.098  1.00  0.00     0.008 C 
ENDBRANCH  18  19
ENDBRANCH  15  18
ENDBRANCH   5  14
ENDBRANCH   2   3
BRANCH   2  21
HETATM   21  C8  UNL     1      15.569  22.207  13.918  1.00  0.00     0.012 C 
HETATM   22  C9  UNL     1      14.909  20.978  13.448  1.00  0.00     0.006 C 
ENDBRANCH   2  21
ENDBRANCH   1   2
BRANCH   1  23
HETATM   23  N3  UNL     1      17.244  24.321  15.067  1.00  0.00    -0.323 N 
HETATM   24  C11 UNL     1      17.472  25.695  14.872  1.00  0.00     0.362 C 
HETATM   25  O3  UNL     1      16.624  26.507  15.363  1.00  0.00    -0.238 OA
ATOM     26  H3  UNL     1      17.912  23.653  14.680  1.00  0.00     0.165 HD
BRANCH  24  27
HETATM   27  O4  UNL     1      18.532  26.229  14.197  1.00  0.00    -0.294 OA
BRANCH  27  28
HETATM   28  C12 UNL     1      19.751  26.489  14.851  1.00  0.00     0.061 C 
HETATM   29  C13 UNL     1      20.717  25.327  14.731  1.00  0.00     0.046 C 
HETATM   30  C14 UNL     1      20.414  27.700  14.208  1.00  0.00     0.046 C 
HETATM   31  C15 UNL     1      19.507  26.777  16.318  1.00  0.00     0.046 C 
ENDBRANCH  27  28
ENDBRANCH  24  27
ENDBRANCH   1  23
BRANCH   1  32
HETATM   32  C16 UNL     1      16.298  24.016  17.248  1.00  0.00     0.243 C 
HETATM   33  O5  UNL     1      15.281  24.242  18.020  1.00  0.00    -0.271 OA
HETATM   34  N4  UNL     1      17.536  23.997  17.920  1.00  0.00    -0.347 N 
HETATM   35  C17 UNL     1      17.569  24.275  19.349  1.00  0.00     0.146 C 
HETATM   36  C26 UNL     1      18.747  23.688  17.235  1.00  0.00     0.146 C 
HETATM   37  C18 UNL     1      18.347  23.173  20.010  1.00  0.00     0.148 C 
HETATM   38  N5  UNL     1      19.660  23.179  19.397  1.00  0.00    -0.325 N 
HETATM   39  C19 UNL     1      20.835  23.465  20.144  1.00  0.00     0.362 C 
HETATM   40  C25 UNL     1      19.751  22.881  17.998  1.00  0.00     0.148 C 
HETATM   41  O6  UNL     1      21.933  23.454  19.562  1.00  0.00    -0.238 OA
BRANCH  39  42
HETATM   42  O7  UNL     1      20.692  23.739  21.479  1.00  0.00    -0.304 OA
BRANCH  42  43
HETATM   43  C20 UNL     1      21.016  24.966  22.031  1.00  0.00     0.180 C 
BRANCH  43  44
HETATM   44  C21 UNL     1      20.495  26.101  21.219  1.00  0.00     0.027 C 
BRANCH  44  45
HETATM   45  C22 UNL     1      21.567  27.074  20.810  1.00  0.00     0.002 C 
BRANCH  45  46
HETATM   46  C23 UNL     1      21.352  27.469  19.372  1.00  0.00    -0.004 C 
HETATM   47  C24 UNL     1      22.500  26.848  18.586  1.00  0.00     0.005 C 
ENDBRANCH  45  46
ENDBRANCH  44  45
ENDBRANCH  43  44
ENDBRANCH  42  43
ENDBRANCH  39  42
ENDBRANCH   1  32
TORSDOF 15
ENDMDL
MODEL 5
REMARK VINA RESULT: -7.989156502      2.472      5.183
REMARK  15 active torsions:
REMARK  status: ('A' for Active; 'I' for Inactive)
REMARK    1  A    between atoms: C2_2  and  C3_3 
REMARK    2  A    between atoms: C3_3  and  N1_4 
REMARK       I    between atoms: N1_4  and  C4_6 
REMARK    3  A    between atoms: C4_6  and  C5_8 
REMARK       I    between atoms: N2_9  and  C6_10 
REMARK    4  A    between atoms: C6_10  and  C7_12 
REMARK    5  A    between atoms: C7_12  and  C8_13 
REMARK    6  A    between atoms: C7_12  and  C10_15 
REMARK    7  A    between atoms: C10_15  and  N3_16 
REMARK    8  A    between atoms: C10_15  and  C16_25 
REMARK       I    between atoms: N3_16  and  C11_18 
REMARK    9  A    between atoms: C11_18  and  O4_20 
REMARK   10  A    between atoms: O4_20  and  C12_21 
REMARK       I    between atoms: C16_25  and  N4_27 
REMARK       I    between atoms: N5_30  and  C19_31 
REMARK   11  A    between atoms: C19_31  and  O7_33 
REMARK   12  A    between atoms: O7_33  and  C20_34 
REMARK   13  A    between atoms: C20_34  and  C21_35 
REMARK   14  A    between atoms: C21_35  and  C22_36 
REMARK   15  A    between atoms: C22_36  and  C23_37 
ROOT
HETATM    1  C10 UNL     1      17.208  23.204  16.763  1.00  0.00     0.192 C 
ENDROOT
BRANCH   1   2
HETATM    2  C7  UNL     1      17.639  24.636  16.489  1.00  0.00     0.110 C 
BRANCH   2   3
HETATM    3  C6  UNL     1      19.040  24.785  17.076  1.00  0.00     0.228 C 
HETATM    4  N2  UNL     1      19.334  24.777  18.446  1.00  0.00    -0.312 N 
HETATM    5  C5  UNL     1      20.650  24.903  18.996  1.00  0.00     0.216 C 
HETATM    6  C27 UNL     1      18.388  24.642  19.504  1.00  0.00     0.361 C 
HETATM    7  C28 UNL     1      20.441  24.949  20.483  1.00  0.00     0.149 C 
HETATM    8  N6  UNL     1      19.011  25.264  20.646  1.00  0.00    -0.049 N 
HETATM    9  C29 UNL     1      21.182  26.092  21.121  1.00  0.00     0.049 C 
HETATM   10  C30 UNL     1      20.723  23.634  21.167  1.00  0.00     0.049 C 
ATOM     11  H62 UNL     1      18.809  26.259  20.744  1.00  0.00     0.280 HD
ATOM     12  H61 UNL     1      18.618  24.983  21.544  1.00  0.00     0.280 HD
HETATM   13  O2  UNL     1      20.016  24.922  16.256  1.00  0.00    -0.273 OA
BRANCH   5  14
HETATM   14  C4  UNL     1      21.407  26.087  18.510  1.00  0.00     0.243 C 
HETATM   15  N1  UNL     1      22.701  25.881  17.986  1.00  0.00    -0.356 N 
ATOM     16  H1  UNL     1      23.077  24.934  17.956  1.00  0.00     0.162 HD
HETATM   17  O1  UNL     1      20.980  27.266  18.529  1.00  0.00    -0.271 OA
BRANCH  15  18
HETATM   18  C3  UNL     1      23.520  26.983  17.483  1.00  0.00     0.149 C 
BRANCH  18  19
HETATM   19  C2  UNL     1      23.447  27.002  15.999  1.00  0.00    -0.018 C 
HETATM   20  C1  UNL     1      23.034  28.116  15.401  1.00  0.00     0.008 C 
ENDBRANCH  18  19
ENDBRANCH  15  18
ENDBRANCH   5  14
ENDBRANCH   2   3
BRANCH   2  21
HETATM   21  C8  UNL     1      17.826  24.941  15.036  1.00  0.00     0.012 C 
HETATM   22  C9  UNL     1      17.977  26.346  14.620  1.00  0.00     0.006 C 
ENDBRANCH   2  21
ENDBRANCH   1   2
BRANCH   1  23
HETATM   23  N3  UNL     1      16.705  22.624  15.502  1.00  0.00    -0.323 N 
HETATM   24  C11 UNL     1      15.401  22.857  15.025  1.00  0.00     0.362 C 
HETATM   25  O3  UNL     1      14.644  23.601  15.727  1.00  0.00    -0.238 OA
ATOM     26  H3  UNL     1      17.327  22.029  14.955  1.00  0.00     0.165 HD
BRANCH  24  27
HETATM   27  O4  UNL     1      14.884  22.349  13.869  1.00  0.00    -0.294 OA
BRANCH  27  28
HETATM   28  C12 UNL     1      13.800  21.451  13.893  1.00  0.00     0.061 C 
HETATM   29  C13 UNL     1      13.671  20.685  12.592  1.00  0.00     0.046 C 
HETATM   30  C14 UNL     1      14.020  20.431  15.002  1.00  0.00     0.046 C 
HETATM   31  C15 UNL     1      12.508  22.198  14.154  1.00  0.00     0.046 C 
ENDBRANCH  27  28
ENDBRANCH  24  27
ENDBRANCH   1  23
BRANCH   1  32
HETATM   32  C16 UNL     1      16.182  23.034  17.804  1.00  0.00     0.243 C 
HETATM   33  O5  UNL     1      15.588  24.081  18.286  1.00  0.00    -0.271 OA
HETATM   34  N4  UNL     1      15.746  21.818  18.365  1.00  0.00    -0.347 N 
HETATM   35  C17 UNL     1      14.749  21.846  19.426  1.00  0.00     0.146 C 
HETATM   36  C26 UNL     1      16.242  20.566  17.897  1.00  0.00     0.146 C 
HETATM   37  C18 UNL     1      13.654  20.889  19.048  1.00  0.00     0.148 C 
HETATM   38  N5  UNL     1      14.283  19.594  18.888  1.00  0.00    -0.325 N 
HETATM   39  C19 UNL     1      13.954  18.493  19.726  1.00  0.00     0.362 C 
HETATM   40  C25 UNL     1      15.256  19.441  17.847  1.00  0.00     0.148 C 
HETATM   41  O6  UNL     1      14.528  17.407  19.540  1.00  0.00    -0.238 OA
BRANCH  39  42
HETATM   42  O7  UNL     1      13.015  18.692  20.703  1.00  0.00    -0.304 OA
BRANCH  42  43
HETATM   43  C20 UNL     1      11.882  17.908  20.824  1.00  0.00     0.180 C 
BRANCH  43  44
HETATM   44  C21 UNL     1      11.004  18.001  19.624  1.00  0.00     0.027 C 
BRANCH  44  45
HETATM   45  C22 UNL     1      10.781  16.673  18.952  1.00  0.00     0.002 C 
BRANCH  45  46
HETATM   46  C23 UNL     1      11.400  16.706  17.578  1.00  0.00    -0.004 C 
HETATM   47  C24 UNL     1      11.344  18.160  17.124  1.00  0.00     0.005 C 
ENDBRANCH  45  46
ENDBRANCH  44  45
ENDBRANCH  43  44
ENDBRANCH  42  43
ENDBRANCH  39  42
ENDBRANCH   1  32
TORSDOF 15
ENDMDL
