MODEL 1
REMARK VINA RESULT: -8.018991149      0.000      0.000
REMARK  12 active torsions:
REMARK  status: ('A' for Active; 'I' for Inactive)
REMARK    1  A    between atoms: C2_2  and  C3_3 
REMARK    2  A    between atoms: C3_3  and  C4_4 
REMARK    3  A    between atoms: C3_3  and  N1_10 
REMARK    4  A    between atoms: C4_4  and  C5_5 
REMARK       I    between atoms: N1_10  and  C9_12 
REMARK    5  A    between atoms: C9_12  and  C10_14 
REMARK    6  A    between atoms: N2_15  and  O2_16 
REMARK    7  A    between atoms: C11_18  and  C12_19 
REMARK    8  A    between atoms: C11_18  and  C14_21 
REMARK    9  A    between atoms: C16_25  and  C17_26 
REMARK   10  A    between atoms: C16_25  and  C23_35 
REMARK   11  A    between atoms: C17_26  and  C18_27 
REMARK       I    between atoms: C18_27  and  N4_29 
REMARK       I    between atoms: C23_35  and  N5_37 
REMARK   12  A    between atoms: N6_40  and  C26_41 
ROOT
HETATM    1  C10 UNL     1      14.082  21.400  17.055  1.00  0.00     0.197 C 
HETATM    2  N2  UNL     1      14.151  21.198  15.794  1.00  0.00    -0.210 N 
HETATM    3  C11 UNL     1      14.789  22.166  14.907  1.00  0.00     0.130 C 
HETATM    4  N3  UNL     1      15.777  22.984  15.466  1.00  0.00    -0.361 N 
ATOM      5  H3  UNL     1      16.436  23.484  14.868  1.00  0.00     0.158 HD
HETATM    6  C16 UNL     1      15.847  23.110  16.895  1.00  0.00     0.195 C 
HETATM    7  N7  UNL     1      14.656  22.600  17.543  1.00  0.00    -0.336 N 
ATOM      8  H7  UNL     1      14.240  23.095  18.332  1.00  0.00     0.164 HD
ENDROOT
BRANCH   6   9
HETATM    9  C17 UNL     1      15.984  24.564  17.276  1.00  0.00     0.167 C 
BRANCH   9  10
HETATM   10  C18 UNL     1      16.710  25.387  16.294  1.00  0.00     0.224 C 
HETATM   11  O3  UNL     1      16.079  25.936  15.365  1.00  0.00    -0.273 OA
HETATM   12  N4  UNL     1      18.110  25.595  16.344  1.00  0.00    -0.348 N 
HETATM   13  C19 UNL     1      18.732  26.421  15.328  1.00  0.00     0.152 C 
HETATM   14  C22 UNL     1      18.945  25.006  17.383  1.00  0.00     0.152 C 
HETATM   15  C20 UNL     1      19.940  27.170  15.838  1.00  0.00     0.187 C 
HETATM   16  O4  UNL     1      20.651  26.488  16.795  1.00  0.00    -0.388 OA
HETATM   17  C21 UNL     1      19.850  26.142  17.879  1.00  0.00     0.187 C 
ENDBRANCH   9  10
ENDBRANCH   6   9
BRANCH   6  18
HETATM   18  C23 UNL     1      16.970  22.264  17.372  1.00  0.00     0.269 C 
HETATM   19  O5  UNL     1      17.608  21.621  16.454  1.00  0.00    -0.268 OA
HETATM   20  N5  UNL     1      17.423  22.073  18.669  1.00  0.00    -0.345 N 
HETATM   21  C24 UNL     1      18.584  21.184  18.865  1.00  0.00     0.156 C 
HETATM   22  C29 UNL     1      16.935  22.611  19.908  1.00  0.00     0.156 C 
HETATM   23  C25 UNL     1      19.363  21.610  20.107  1.00  0.00     0.292 C 
HETATM   24  N6  UNL     1      19.325  23.037  20.194  1.00  0.00     0.091 N 
HETATM   25  C28 UNL     1      18.005  23.571  20.464  1.00  0.00     0.292 C 
BRANCH  24  26
HETATM   26  C26 UNL     1      20.294  23.589  21.104  1.00  0.00     0.268 C 
HETATM   27  C27 UNL     1      21.535  24.100  20.435  1.00  0.00     0.037 C 
ENDBRANCH  24  26
ENDBRANCH   6  18
BRANCH   3  28
HETATM   28  C12 UNL     1      13.616  22.932  14.308  1.00  0.00     0.051 C 
HETATM   29  C13 UNL     1      13.188  24.130  15.061  1.00  0.00     0.009 C 
ENDBRANCH   3  28
BRANCH   3  30
HETATM   30  C14 UNL     1      15.380  21.308  13.808  1.00  0.00     0.051 C 
HETATM   31  C15 UNL     1      15.423  21.904  12.457  1.00  0.00     0.009 C 
ENDBRANCH   3  30
BRANCH   1  32
HETATM   32  C9  UNL     1      13.435  20.432  17.956  1.00  0.00     0.287 C 
HETATM   33  N1  UNL     1      14.011  19.154  18.186  1.00  0.00    -0.350 N 
ATOM     34  H1  UNL     1      14.884  18.911  17.719  1.00  0.00     0.163 HD
HETATM   35  O1  UNL     1      12.358  20.712  18.541  1.00  0.00    -0.264 OA
BRANCH  33  36
HETATM   36  C3  UNL     1      13.391  18.193  19.063  1.00  0.00     0.085 C 
BRANCH  36  37
HETATM   37  C2  UNL     1      12.593  18.849  20.157  1.00  0.00     0.021 C 
HETATM   38  C1  UNL     1      12.183  17.904  21.248  1.00  0.00     0.007 C 
ENDBRANCH  36  37
BRANCH  36  39
HETATM   39  C4  UNL     1      12.611  17.218  18.248  1.00  0.00     0.040 C 
BRANCH  39  40
HETATM   40  C5  UNL     1      11.172  17.620  18.052  1.00  0.00     0.049 C 
HETATM   41  C6  UNL     1      10.839  17.834  16.611  1.00  0.00     0.016 C 
HETATM   42  C7  UNL     1      10.603  16.477  15.990  1.00  0.00     0.011 C 
HETATM   43  C8  UNL     1       9.460  15.849  16.774  1.00  0.00     0.074 C 
HETATM   44  S1  UNL     1      10.045  16.234  18.475  1.00  0.00    -0.164 SA
ENDBRANCH  39  40
ENDBRANCH  36  39
ENDBRANCH  33  36
ENDBRANCH   1  32
BRANCH   2  45
HETATM   45  O2  UNL     1      13.615  20.057  15.252  1.00  0.00    -0.283 OA
ATOM     46  H2  UNL     1      14.085  19.589  14.574  1.00  0.00     0.245 HD
ENDBRANCH   2  45
TORSDOF 12
ENDMDL
MODEL 2
REMARK VINA RESULT: -7.484278115      5.227     11.728
REMARK  12 active torsions:
REMARK  status: ('A' for Active; 'I' for Inactive)
REMARK    1  A    between atoms: C2_2  and  C3_3 
REMARK    2  A    between atoms: C3_3  and  C4_4 
REMARK    3  A    between atoms: C3_3  and  N1_10 
REMARK    4  A    between atoms: C4_4  and  C5_5 
REMARK       I    between atoms: N1_10  and  C9_12 
REMARK    5  A    between atoms: C9_12  and  C10_14 
REMARK    6  A    between atoms: N2_15  and  O2_16 
REMARK    7  A    between atoms: C11_18  and  C12_19 
REMARK    8  A    between atoms: C11_18  and  C14_21 
REMARK    9  A    between atoms: C16_25  and  C17_26 
REMARK   10  A    between atoms: C16_25  and  C23_35 
REMARK   11  A    between atoms: C17_26  and  C18_27 
REMARK       I    between atoms: C18_27  and  N4_29 
REMARK       I    between atoms: C23_35  and  N5_37 
REMARK   12  A    between atoms: N6_40  and  C26_41 
ROOT
HETATM    1  C10 UNL     1      10.825  17.627  14.943  1.00  0.00     0.197 C 
HETATM    2  N2  UNL     1      10.846  18.272  13.838  1.00  0.00    -0.210 N 
HETATM    3  C11 UNL     1      10.715  17.583  12.558  1.00  0.00     0.130 C 
HETATM    4  N3  UNL     1      10.026  16.366  12.560  1.00  0.00    -0.361 N 
ATOM      5  H3  UNL     1       9.671  15.969  11.689  1.00  0.00     0.158 HD
HETATM    6  C16 UNL     1       9.827  15.682  13.808  1.00  0.00     0.195 C 
HETATM    7  N7  UNL     1      10.664  16.221  14.860  1.00  0.00    -0.336 N 
ATOM      8  H7  UNL     1      11.128  15.603  15.525  1.00  0.00     0.164 HD
ENDROOT
BRANCH   6   9
HETATM    9  C17 UNL     1      10.175  14.221  13.654  1.00  0.00     0.167 C 
BRANCH   9  10
HETATM   10  C18 UNL     1       9.886  13.396  14.839  1.00  0.00     0.224 C 
HETATM   11  O3  UNL     1      10.630  13.474  15.840  1.00  0.00    -0.273 OA
HETATM   12  N4  UNL     1       8.789  12.503  14.909  1.00  0.00    -0.348 N 
HETATM   13  C19 UNL     1       8.590  11.733  16.121  1.00  0.00     0.152 C 
HETATM   14  C22 UNL     1       7.854  12.333  13.803  1.00  0.00     0.152 C 
HETATM   15  C20 UNL     1       7.134  11.446  16.402  1.00  0.00     0.187 C 
HETATM   16  O4  UNL     1       6.373  11.282  15.270  1.00  0.00    -0.388 OA
HETATM   17  C21 UNL     1       6.456  12.390  14.433  1.00  0.00     0.187 C 
ENDBRANCH   9  10
ENDBRANCH   6   9
BRANCH   6  18
HETATM   18  C23 UNL     1       8.425  15.916  14.236  1.00  0.00     0.269 C 
HETATM   19  O5  UNL     1       8.258  16.137  15.494  1.00  0.00    -0.268 OA
HETATM   20  N5  UNL     1       7.272  15.926  13.463  1.00  0.00    -0.345 N 
HETATM   21  C24 UNL     1       5.994  16.206  14.144  1.00  0.00     0.156 C 
HETATM   22  C29 UNL     1       7.100  15.698  12.055  1.00  0.00     0.156 C 
HETATM   23  C25 UNL     1       5.018  16.862  13.171  1.00  0.00     0.292 C 
HETATM   24  N6  UNL     1       5.760  17.727  12.305  1.00  0.00     0.091 N 
HETATM   25  C28 UNL     1       6.657  17.025  11.410  1.00  0.00     0.292 C 
BRANCH  24  26
HETATM   26  C26 UNL     1       4.941  18.660  11.578  1.00  0.00     0.268 C 
HETATM   27  C27 UNL     1       5.714  19.562  10.660  1.00  0.00     0.037 C 
ENDBRANCH  24  26
ENDBRANCH   6  18
BRANCH   3  28
HETATM   28  C12 UNL     1      12.150  17.482  12.056  1.00  0.00     0.051 C 
HETATM   29  C13 UNL     1      12.586  16.131  11.644  1.00  0.00     0.009 C 
ENDBRANCH   3  28
BRANCH   3  30
HETATM   30  C14 UNL     1       9.998  18.590  11.683  1.00  0.00     0.051 C 
HETATM   31  C15 UNL     1      10.020  18.334  10.229  1.00  0.00     0.009 C 
ENDBRANCH   3  30
BRANCH   1  32
HETATM   32  C9  UNL     1      10.962  18.313  16.238  1.00  0.00     0.287 C 
HETATM   33  N1  UNL     1      11.828  17.804  17.243  1.00  0.00    -0.350 N 
ATOM     34  H1  UNL     1      12.359  16.953  17.058  1.00  0.00     0.163 HD
HETATM   35  O1  UNL     1      10.317  19.363  16.486  1.00  0.00    -0.264 OA
BRANCH  33  36
HETATM   36  C3  UNL     1      11.975  18.461  18.517  1.00  0.00     0.085 C 
BRANCH  36  37
HETATM   37  C2  UNL     1      11.485  17.610  19.658  1.00  0.00     0.021 C 
HETATM   38  C1  UNL     1      12.146  17.927  20.968  1.00  0.00     0.007 C 
ENDBRANCH  36  37
BRANCH  36  39
HETATM   39  C4  UNL     1      13.384  18.923  18.670  1.00  0.00     0.040 C 
BRANCH  39  40
HETATM   40  C5  UNL     1      13.566  20.390  18.377  1.00  0.00     0.049 C 
HETATM   41  C6  UNL     1      14.783  20.950  19.038  1.00  0.00     0.016 C 
HETATM   42  C7  UNL     1      15.977  20.575  18.191  1.00  0.00     0.011 C 
HETATM   43  C8  UNL     1      15.721  21.176  16.817  1.00  0.00     0.074 C 
HETATM   44  S1  UNL     1      13.969  20.656  16.606  1.00  0.00    -0.164 SA
ENDBRANCH  39  40
ENDBRANCH  36  39
ENDBRANCH  33  36
ENDBRANCH   1  32
BRANCH   2  45
HETATM   45  O2  UNL     1      10.999  19.635  13.844  1.00  0.00    -0.283 OA
ATOM     46  H2  UNL     1      10.583  20.155  14.520  1.00  0.00     0.245 HD
ENDBRANCH   2  45
TORSDOF 12
ENDMDL
MODEL 3
REMARK VINA RESULT: -7.350310681      4.485      9.224
REMARK  12 active torsions:
REMARK  status: ('A' for Active; 'I' for Inactive)
REMARK    1  A    between atoms: C2_2  and  C3_3 
REMARK    2  A    between atoms: C3_3  and  C4_4 
REMARK    3  A    between atoms: C3_3  and  N1_10 
REMARK    4  A    between atoms: C4_4  and  C5_5 
REMARK       I    between atoms: N1_10  and  C9_12 
REMARK    5  A    between atoms: C9_12  and  C10_14 
REMARK    6  A    between atoms: N2_15  and  O2_16 
REMARK    7  A    between atoms: C11_18  and  C12_19 
REMARK    8  A    between atoms: C11_18  and  C14_21 
REMARK    9  A    between atoms: C16_25  and  C17_26 
REMARK   10  A    between atoms: C16_25  and  C23_35 
REMARK   11  A    between atoms: C17_26  and  C18_27 
REMARK       I    between atoms: C18_27  and  N4_29 
REMARK       I    between atoms: C23_35  and  N5_37 
REMARK   12  A    between atoms: N6_40  and  C26_41 
ROOT
HETATM    1  C10 UNL     1      20.652  24.934  19.415  1.00  0.00     0.197 C 
HETATM    2  N2  UNL     1      20.549  25.514  20.551  1.00  0.00    -0.210 N 
HETATM    3  C11 UNL     1      21.725  26.026  21.247  1.00  0.00     0.130 C 
HETATM    4  N3  UNL     1      22.825  26.382  20.459  1.00  0.00    -0.361 N 
ATOM      5  H3  UNL     1      23.561  26.980  20.835  1.00  0.00     0.158 HD
HETATM    6  C16 UNL     1      22.901  25.890  19.111  1.00  0.00     0.195 C 
HETATM    7  N7  UNL     1      21.956  24.819  18.871  1.00  0.00    -0.336 N 
ATOM      8  H7  UNL     1      22.223  24.002  18.324  1.00  0.00     0.164 HD
ENDROOT
BRANCH   6   9
HETATM    9  C17 UNL     1      24.283  25.345  18.842  1.00  0.00     0.167 C 
BRANCH   9  10
HETATM   10  C18 UNL     1      25.372  26.090  19.497  1.00  0.00     0.224 C 
HETATM   11  O3  UNL     1      25.371  27.340  19.460  1.00  0.00    -0.273 OA
HETATM   12  N4  UNL     1      26.439  25.458  20.180  1.00  0.00    -0.348 N 
HETATM   13  C19 UNL     1      27.465  26.280  20.790  1.00  0.00     0.152 C 
HETATM   14  C22 UNL     1      26.540  24.007  20.288  1.00  0.00     0.152 C 
HETATM   15  C20 UNL     1      28.055  25.657  22.033  1.00  0.00     0.187 C 
HETATM   16  O4  UNL     1      28.115  24.285  21.990  1.00  0.00    -0.388 OA
HETATM   17  C21 UNL     1      26.861  23.725  21.762  1.00  0.00     0.187 C 
ENDBRANCH   9  10
ENDBRANCH   6   9
BRANCH   6  18
HETATM   18  C23 UNL     1      22.512  26.997  18.201  1.00  0.00     0.269 C 
HETATM   19  O5  UNL     1      21.679  27.850  18.689  1.00  0.00    -0.268 OA
HETATM   20  N5  UNL     1      22.925  27.233  16.898  1.00  0.00    -0.345 N 
HETATM   21  C24 UNL     1      22.394  28.430  16.219  1.00  0.00     0.156 C 
HETATM   22  C29 UNL     1      23.815  26.481  16.057  1.00  0.00     0.156 C 
HETATM   23  C25 UNL     1      23.397  28.929  15.182  1.00  0.00     0.292 C 
HETATM   24  N6  UNL     1      24.716  28.725  15.698  1.00  0.00     0.091 N 
HETATM   25  C28 UNL     1      25.081  27.329  15.828  1.00  0.00     0.292 C 
BRANCH  24  26
HETATM   26  C26 UNL     1      25.735  29.455  14.990  1.00  0.00     0.268 C 
HETATM   27  C27 UNL     1      27.070  28.772  14.972  1.00  0.00     0.037 C 
ENDBRANCH  24  26
ENDBRANCH   6  18
BRANCH   3  28
HETATM   28  C12 UNL     1      22.027  24.950  22.282  1.00  0.00     0.051 C 
HETATM   29  C13 UNL     1      23.454  24.785  22.631  1.00  0.00     0.009 C 
ENDBRANCH   3  28
BRANCH   3  30
HETATM   30  C14 UNL     1      21.200  27.236  21.991  1.00  0.00     0.051 C 
HETATM   31  C15 UNL     1      21.266  27.185  23.466  1.00  0.00     0.009 C 
ENDBRANCH   3  30
BRANCH   1  32
HETATM   32  C9  UNL     1      19.472  24.409  18.709  1.00  0.00     0.287 C 
HETATM   33  N1  UNL     1      19.332  24.573  17.305  1.00  0.00    -0.350 N 
ATOM     34  H1  UNL     1      20.061  25.061  16.786  1.00  0.00     0.163 HD
HETATM   35  O1  UNL     1      18.562  23.804  19.330  1.00  0.00    -0.264 OA
BRANCH  33  36
HETATM   36  C3  UNL     1      18.184  24.067  16.596  1.00  0.00     0.085 C 
BRANCH  36  37
HETATM   37  C2  UNL     1      17.974  24.762  15.279  1.00  0.00     0.021 C 
HETATM   38  C1  UNL     1      18.914  25.909  15.049  1.00  0.00     0.007 C 
ENDBRANCH  36  37
BRANCH  36  39
HETATM   39  C4  UNL     1      18.291  22.583  16.486  1.00  0.00     0.040 C 
BRANCH  39  40
HETATM   40  C5  UNL     1      16.954  21.888  16.473  1.00  0.00     0.049 C 
HETATM   41  C6  UNL     1      16.949  20.661  17.326  1.00  0.00     0.016 C 
HETATM   42  C7  UNL     1      16.768  21.102  18.760  1.00  0.00     0.011 C 
HETATM   43  C8  UNL     1      15.449  21.858  18.803  1.00  0.00     0.074 C 
HETATM   44  S1  UNL     1      15.679  22.909  17.312  1.00  0.00    -0.164 SA
ENDBRANCH  39  40
ENDBRANCH  36  39
ENDBRANCH  33  36
ENDBRANCH   1  32
BRANCH   2  45
HETATM   45  O2  UNL     1      19.318  25.658  21.137  1.00  0.00    -0.283 OA
ATOM     46  H2  UNL     1      19.034  26.513  21.438  1.00  0.00     0.245 HD
ENDBRANCH   2  45
TORSDOF 12
ENDMDL
MODEL 4
REMARK VINA RESULT: -7.330309443      1.945      2.713
REMARK  12 active torsions:
REMARK  status: ('A' for Active; 'I' for Inactive)
REMARK    1  A    between atoms: C2_2  and  C3_3 
REMARK    2  A    between atoms: C3_3  and  C4_4 
REMARK    3  A    between atoms: C3_3  and  N1_10 
REMARK    4  A    between atoms: C4_4  and  C5_5 
REMARK       I    between atoms: N1_10  and  C9_12 
REMARK    5  A    between atoms: C9_12  and  C10_14 
REMARK    6  A    between atoms: N2_15  and  O2_16 
REMARK    7  A    between atoms: C11_18  and  C12_19 
REMARK    8  A    between atoms: C11_18  and  C14_21 
REMARK    9  A    between atoms: C16_25  and  C17_26 
REMARK   10  A    between atoms: C16_25  and  C23_35 
REMARK   11  A    between atoms: C17_26  and  C18_27 
REMARK       I    between atoms: C18_27  and  N4_29 
REMARK       I    between atoms: C23_35  and  N5_37 
REMARK   12  A    between atoms: N6_40  and  C26_41 
ROOT
HETATM    1  C10 UNL     1      12.367  20.270  16.354  1.00  0.00     0.197 C 
HETATM    2  N2  UNL     1      12.210  19.905  15.138  1.00  0.00    -0.210 N 
HETATM    3  C11 UNL     1      12.505  20.811  14.033  1.00  0.00     0.130 C 
HETATM    4  N3  UNL     1      13.452  21.814  14.269  1.00  0.00    -0.361 N 
ATOM      5  H3  UNL     1      13.895  22.302  13.490  1.00  0.00     0.158 HD
HETATM    6  C16 UNL     1      13.788  22.145  15.626  1.00  0.00     0.195 C 
HETATM    7  N7  UNL     1      12.841  21.588  16.570  1.00  0.00    -0.336 N 
ATOM      8  H7  UNL     1      12.524  22.133  17.372  1.00  0.00     0.164 HD
ENDROOT
BRANCH   6   9
HETATM    9  C17 UNL     1      13.781  23.644  15.805  1.00  0.00     0.167 C 
BRANCH   9  10
HETATM   10  C18 UNL     1      14.620  24.131  16.913  1.00  0.00     0.224 C 
HETATM   11  O3  UNL     1      14.182  24.085  18.083  1.00  0.00    -0.273 OA
HETATM   12  N4  UNL     1      15.922  24.657  16.723  1.00  0.00    -0.348 N 
HETATM   13  C19 UNL     1      16.667  25.112  17.880  1.00  0.00     0.152 C 
HETATM   14  C22 UNL     1      16.534  24.755  15.404  1.00  0.00     0.152 C 
HETATM   15  C20 UNL     1      18.159  24.929  17.726  1.00  0.00     0.187 C 
HETATM   16  O4  UNL     1      18.605  25.075  16.435  1.00  0.00    -0.388 OA
HETATM   17  C21 UNL     1      17.956  24.201  15.567  1.00  0.00     0.187 C 
ENDBRANCH   9  10
ENDBRANCH   6   9
BRANCH   6  18
HETATM   18  C23 UNL     1      15.098  21.517  15.935  1.00  0.00     0.269 C 
HETATM   19  O5  UNL     1      15.914  21.419  14.943  1.00  0.00    -0.268 OA
HETATM   20  N5  UNL     1      15.558  21.023  17.147  1.00  0.00    -0.345 N 
HETATM   21  C24 UNL     1      16.922  20.463  17.184  1.00  0.00     0.156 C 
HETATM   22  C29 UNL     1      14.908  20.956  18.427  1.00  0.00     0.156 C 
HETATM   23  C25 UNL     1      17.517  20.629  18.580  1.00  0.00     0.292 C 
HETATM   24  N6  UNL     1      17.065  21.877  19.115  1.00  0.00     0.091 N 
HETATM   25  C28 UNL     1      15.642  21.916  19.383  1.00  0.00     0.292 C 
BRANCH  24  26
HETATM   26  C26 UNL     1      17.812  22.320  20.262  1.00  0.00     0.268 C 
HETATM   27  C27 UNL     1      19.218  21.798  20.312  1.00  0.00     0.037 C 
ENDBRANCH  24  26
ENDBRANCH   6  18
BRANCH   3  28
HETATM   28  C12 UNL     1      11.135  21.336  13.624  1.00  0.00     0.051 C 
HETATM   29  C13 UNL     1      10.579  22.401  14.486  1.00  0.00     0.009 C 
ENDBRANCH   3  28
BRANCH   3  30
HETATM   30  C14 UNL     1      12.984  19.887  12.933  1.00  0.00     0.051 C 
HETATM   31  C15 UNL     1      12.026  19.606  11.844  1.00  0.00     0.009 C 
ENDBRANCH   3  30
BRANCH   1  32
HETATM   32  C9  UNL     1      12.066  19.365  17.476  1.00  0.00     0.287 C 
HETATM   33  N1  UNL     1      12.540  18.026  17.478  1.00  0.00    -0.350 N 
ATOM     34  H1  UNL     1      13.096  17.694  16.690  1.00  0.00     0.163 HD
HETATM   35  O1  UNL     1      11.383  19.755  18.456  1.00  0.00    -0.264 OA
BRANCH  33  36
HETATM   36  C3  UNL     1      12.255  17.126  18.566  1.00  0.00     0.085 C 
BRANCH  36  37
HETATM   37  C2  UNL     1      12.672  17.688  19.898  1.00  0.00     0.021 C 
HETATM   38  C1  UNL     1      11.746  17.320  21.020  1.00  0.00     0.007 C 
ENDBRANCH  36  37
BRANCH  36  39
HETATM   39  C4  UNL     1      10.821  16.722  18.504  1.00  0.00     0.040 C 
BRANCH  39  40
HETATM   40  C5  UNL     1      10.565  15.570  17.567  1.00  0.00     0.049 C 
HETATM   41  C6  UNL     1       9.598  14.583  18.137  1.00  0.00     0.016 C 
HETATM   42  C7  UNL     1       8.207  15.134  17.930  1.00  0.00     0.011 C 
HETATM   43  C8  UNL     1       8.048  15.317  16.428  1.00  0.00     0.074 C 
HETATM   44  S1  UNL     1       9.657  16.133  16.073  1.00  0.00    -0.164 SA
ENDBRANCH  39  40
ENDBRANCH  36  39
ENDBRANCH  33  36
ENDBRANCH   1  32
BRANCH   2  45
HETATM   45  O2  UNL     1      11.753  18.643  14.857  1.00  0.00    -0.283 OA
ATOM     46  H2  UNL     1      11.757  18.327  13.961  1.00  0.00     0.245 HD
ENDBRANCH   2  45
TORSDOF 12
ENDMDL
MODEL 5
REMARK VINA RESULT: -7.314454520      5.233     11.787
REMARK  12 active torsions:
REMARK  status: ('A' for Active; 'I' for Inactive)
REMARK    1  A    between atoms: C2_2  and  C3_3 
REMARK    2  A    between atoms: C3_3  and  C4_4 
REMARK    3  A    between atoms: C3_3  and  N1_10 
REMARK    4  A    between atoms: C4_4  and  C5_5 
REMARK       I    between atoms: N1_10  and  C9_12 
REMARK    5  A    between atoms: C9_12  and  C10_14 
REMARK    6  A    between atoms: N2_15  and  O2_16 
REMARK    7  A    between atoms: C11_18  and  C12_19 
REMARK    8  A    between atoms: C11_18  and  C14_21 
REMARK    9  A    between atoms: C16_25  and  C17_26 
REMARK   10  A    between atoms: C16_25  and  C23_35 
REMARK   11  A    between atoms: C17_26  and  C18_27 
REMARK       I    between atoms: C18_27  and  N4_29 
REMARK       I    between atoms: C23_35  and  N5_37 
REMARK   12  A    between atoms: N6_40  and  C26_41 
ROOT
HETATM    1  C10 UNL     1      10.785  17.469  14.908  1.00  0.00     0.197 C 
HETATM    2  N2  UNL     1      10.774  18.165  13.834  1.00  0.00    -0.210 N 
HETATM    3  C11 UNL     1      10.580  17.540  12.530  1.00  0.00     0.130 C 
HETATM    4  N3  UNL     1       9.868  16.336  12.503  1.00  0.00    -0.361 N 
ATOM      5  H3  UNL     1       9.471  15.987  11.630  1.00  0.00     0.158 HD
HETATM    6  C16 UNL     1       9.706  15.597  13.725  1.00  0.00     0.195 C 
HETATM    7  N7  UNL     1      10.595  16.072  14.766  1.00  0.00    -0.336 N 
ATOM      8  H7  UNL     1      11.073  15.415  15.382  1.00  0.00     0.164 HD
ENDROOT
BRANCH   6   9
HETATM    9  C17 UNL     1      10.020  14.140  13.489  1.00  0.00     0.167 C 
BRANCH   9  10
HETATM   10  C18 UNL     1       9.384  13.564  12.292  1.00  0.00     0.224 C 
HETATM   11  O3  UNL     1       9.846  13.830  11.161  1.00  0.00    -0.273 OA
HETATM   12  N4  UNL     1       8.256  12.709  12.352  1.00  0.00    -0.348 N 
HETATM   13  C19 UNL     1       7.701  12.196  11.115  1.00  0.00     0.152 C 
HETATM   14  C22 UNL     1       7.636  12.330  13.615  1.00  0.00     0.152 C 
HETATM   15  C20 UNL     1       7.088  10.824  11.272  1.00  0.00     0.187 C 
HETATM   16  O4  UNL     1       6.516  10.610  12.502  1.00  0.00    -0.388 OA
HETATM   17  C21 UNL     1       7.429  10.811  13.534  1.00  0.00     0.187 C 
ENDBRANCH   9  10
ENDBRANCH   6   9
BRANCH   6  18
HETATM   18  C23 UNL     1       8.327  15.834  14.220  1.00  0.00     0.269 C 
HETATM   19  O5  UNL     1       7.498  16.301  13.350  1.00  0.00    -0.268 OA
HETATM   20  N5  UNL     1       7.813  15.621  15.491  1.00  0.00    -0.345 N 
HETATM   21  C24 UNL     1       6.386  15.925  15.712  1.00  0.00     0.156 C 
HETATM   22  C29 UNL     1       8.456  15.139  16.681  1.00  0.00     0.156 C 
HETATM   23  C25 UNL     1       5.829  15.034  16.819  1.00  0.00     0.292 C 
HETATM   24  N6  UNL     1       6.447  13.748  16.714  1.00  0.00     0.091 N 
HETATM   25  C28 UNL     1       7.864  13.756  17.014  1.00  0.00     0.292 C 
BRANCH  24  26
HETATM   26  C26 UNL     1       5.773  12.719  17.462  1.00  0.00     0.268 C 
HETATM   27  C27 UNL     1       6.053  11.329  16.971  1.00  0.00     0.037 C 
ENDBRANCH  24  26
ENDBRANCH   6  18
BRANCH   3  28
HETATM   28  C12 UNL     1      11.991  17.438  11.966  1.00  0.00     0.051 C 
HETATM   29  C13 UNL     1      12.426  16.078  11.582  1.00  0.00     0.009 C 
ENDBRANCH   3  28
BRANCH   3  30
HETATM   30  C14 UNL     1       9.847  18.599  11.733  1.00  0.00     0.051 C 
HETATM   31  C15 UNL     1      10.252  18.761  10.322  1.00  0.00     0.009 C 
ENDBRANCH   3  30
BRANCH   1  32
HETATM   32  C9  UNL     1      10.987  18.090  16.227  1.00  0.00     0.287 C 
HETATM   33  N1  UNL     1      11.878  17.517  17.173  1.00  0.00    -0.350 N 
ATOM     34  H1  UNL     1      12.382  16.665  16.928  1.00  0.00     0.163 HD
HETATM   35  O1  UNL     1      10.376  19.141  16.547  1.00  0.00    -0.264 OA
BRANCH  33  36
HETATM   36  C3  UNL     1      12.088  18.110  18.469  1.00  0.00     0.085 C 
BRANCH  36  37
HETATM   37  C2  UNL     1      11.742  17.169  19.590  1.00  0.00     0.021 C 
HETATM   38  C1  UNL     1      12.011  17.736  20.954  1.00  0.00     0.007 C 
ENDBRANCH  36  37
BRANCH  36  39
HETATM   39  C4  UNL     1      13.476  18.650  18.542  1.00  0.00     0.040 C 
BRANCH  39  40
HETATM   40  C5  UNL     1      13.551  20.137  18.306  1.00  0.00     0.049 C 
HETATM   41  C6  UNL     1      14.715  20.760  19.005  1.00  0.00     0.016 C 
HETATM   42  C7  UNL     1      15.943  20.508  18.161  1.00  0.00     0.011 C 
HETATM   43  C8  UNL     1      15.658  21.140  16.807  1.00  0.00     0.074 C 
HETATM   44  S1  UNL     1      13.953  20.500  16.552  1.00  0.00    -0.164 SA
ENDBRANCH  39  40
ENDBRANCH  36  39
ENDBRANCH  33  36
ENDBRANCH   1  32
BRANCH   2  45
HETATM   45  O2  UNL     1      10.954  19.523  13.897  1.00  0.00    -0.283 OA
ATOM     46  H2  UNL     1      10.236  20.084  14.166  1.00  0.00     0.245 HD
ENDBRANCH   2  45
TORSDOF 12
ENDMDL
