MODEL 1
REMARK VINA RESULT: -7.356616136      0.000      0.000
REMARK  14 active torsions:
REMARK  status: ('A' for Active; 'I' for Inactive)
REMARK    1  A    between atoms: O1_2  and  C2_3 
REMARK    2  A    between atoms: C3_4  and  O2_5 
REMARK    3  A    between atoms: O2_5  and  C4_6 
REMARK    4  A    between atoms: C6_9  and  O3_11 
REMARK    5  A    between atoms: C8_13  and  O4_14 
REMARK    6  A    between atoms: C9_16  and  O5_17 
REMARK    7  A    between atoms: C10_19  and  O6_20 
REMARK    8  A    between atoms: O6_20  and  S2_21 
REMARK    9  A    between atoms: C11_25  and  O10_26 
REMARK   10  A    between atoms: O10_26  and  S3_27 
REMARK   11  A    between atoms: C12_31  and  O14_32 
REMARK   12  A    between atoms: O14_32  and  S4_33 
REMARK   13  A    between atoms: C13_37  and  O18_38 
REMARK   14  A    between atoms: O18_38  and  S5_39 
ROOT
HETATM    1  C2  UNL     1      45.364  39.256  31.994  1.00  0.00     0.185 C 
HETATM    2  C3  UNL     1      43.882  39.318  31.759  1.00  0.00     0.187 C 
HETATM    3  C10 UNL     1      43.206  40.463  32.455  1.00  0.00     0.209 C 
HETATM    4  C11 UNL     1      43.542  40.540  33.927  1.00  0.00     0.211 C 
HETATM    5  C12 UNL     1      44.662  39.596  34.299  1.00  0.00     0.211 C 
HETATM    6  C13 UNL     1      45.775  39.879  33.314  1.00  0.00     0.209 C 
ENDROOT
BRANCH   2   7
HETATM    7  O2  UNL     1      43.679  39.448  30.405  1.00  0.00    -0.362 OA
BRANCH   7   8
HETATM    8  C4  UNL     1      42.864  38.470  29.856  1.00  0.00     0.214 C 
HETATM    9  S1  UNL     1      43.901  37.606  28.634  1.00  0.00    -0.132 SA
HETATM   10  C5  UNL     1      44.884  36.412  29.626  1.00  0.00     0.116 C 
HETATM   11  C6  UNL     1      43.840  35.419  30.154  1.00  0.00     0.091 C 
HETATM   12  C7  UNL     1      43.746  34.340  29.065  1.00  0.00     0.049 C 
HETATM   13  C8  UNL     1      42.481  36.027  30.271  1.00  0.00     0.184 C 
HETATM   14  C9  UNL     1      42.459  37.414  30.865  1.00  0.00     0.188 C 
BRANCH  11  15
HETATM   15  O3  UNL     1      44.275  34.778  31.295  1.00  0.00    -0.387 OA
ATOM     16  H3  UNL     1      44.432  33.853  31.143  1.00  0.00     0.210 HD
ENDBRANCH  11  15
BRANCH  13  17
HETATM   17  O4  UNL     1      41.724  35.210  31.125  1.00  0.00    -0.390 OA
ATOM     18  H4  UNL     1      40.911  35.666  31.311  1.00  0.00     0.210 HD
ENDBRANCH  13  17
BRANCH  14  19
HETATM   19  O5  UNL     1      41.102  37.668  31.176  1.00  0.00    -0.389 OA
ATOM     20  H5  UNL     1      40.899  37.127  31.929  1.00  0.00     0.210 HD
ENDBRANCH  14  19
ENDBRANCH   7   8
ENDBRANCH   2   7
BRANCH   1  21
HETATM   21  O1  UNL     1      46.129  39.739  30.940  1.00  0.00    -0.385 OA
HETATM   22  C1  UNL     1      47.147  38.900  30.552  1.00  0.00     0.202 C 
ENDBRANCH   1  21
BRANCH   3  23
HETATM   23  O6  UNL     1      43.513  41.672  31.834  1.00  0.00    -0.246 OA
BRANCH  23  24
HETATM   24  S2  UNL     1      42.411  42.878  32.091  1.00  0.00     0.252 S 
HETATM   25  O7  UNL     1      42.247  43.749  30.875  1.00  0.00    -0.572 OA
HETATM   26  O8  UNL     1      41.042  42.372  32.464  1.00  0.00    -0.572 OA
HETATM   27  O9  UNL     1      42.942  43.898  33.346  1.00  0.00    -0.572 OA
ENDBRANCH  23  24
ENDBRANCH   3  23
BRANCH   6  28
HETATM   28  O18 UNL     1      46.912  39.251  33.776  1.00  0.00    -0.246 OA
BRANCH  28  29
HETATM   29  S5  UNL     1      48.115  40.317  34.224  1.00  0.00     0.252 S 
HETATM   30  O19 UNL     1      49.017  40.520  33.043  1.00  0.00    -0.572 OA
HETATM   31  O20 UNL     1      48.937  39.661  35.320  1.00  0.00    -0.572 OA
HETATM   32  O21 UNL     1      47.527  41.743  34.840  1.00  0.00    -0.572 OA
ENDBRANCH  28  29
ENDBRANCH   6  28
BRANCH   4  33
HETATM   33  O10 UNL     1      42.430  40.333  34.737  1.00  0.00    -0.246 OA
BRANCH  33  34
HETATM   34  S3  UNL     1      42.320  41.471  35.963  1.00  0.00     0.252 S 
HETATM   35  O11 UNL     1      43.615  42.214  36.058  1.00  0.00    -0.572 OA
HETATM   36  O12 UNL     1      41.983  40.790  37.271  1.00  0.00    -0.572 OA
HETATM   37  O13 UNL     1      41.110  42.599  35.674  1.00  0.00    -0.572 OA
ENDBRANCH  33  34
ENDBRANCH   4  33
BRANCH   5  38
HETATM   38  O14 UNL     1      44.291  38.280  34.354  1.00  0.00    -0.246 OA
BRANCH  38  39
HETATM   39  S4  UNL     1      44.607  37.557  35.830  1.00  0.00     0.252 S 
HETATM   40  O15 UNL     1      46.019  37.020  35.897  1.00  0.00    -0.572 OA
HETATM   41  O16 UNL     1      44.449  38.537  36.963  1.00  0.00    -0.572 OA
HETATM   42  O17 UNL     1      43.578  36.267  36.127  1.00  0.00    -0.572 OA
ENDBRANCH  38  39
ENDBRANCH   5  38
TORSDOF 14
ENDMDL
MODEL 2
REMARK VINA RESULT: -7.238021791      1.017      1.634
REMARK  14 active torsions:
REMARK  status: ('A' for Active; 'I' for Inactive)
REMARK    1  A    between atoms: O1_2  and  C2_3 
REMARK    2  A    between atoms: C3_4  and  O2_5 
REMARK    3  A    between atoms: O2_5  and  C4_6 
REMARK    4  A    between atoms: C6_9  and  O3_11 
REMARK    5  A    between atoms: C8_13  and  O4_14 
REMARK    6  A    between atoms: C9_16  and  O5_17 
REMARK    7  A    between atoms: C10_19  and  O6_20 
REMARK    8  A    between atoms: O6_20  and  S2_21 
REMARK    9  A    between atoms: C11_25  and  O10_26 
REMARK   10  A    between atoms: O10_26  and  S3_27 
REMARK   11  A    between atoms: C12_31  and  O14_32 
REMARK   12  A    between atoms: O14_32  and  S4_33 
REMARK   13  A    between atoms: C13_37  and  O18_38 
REMARK   14  A    between atoms: O18_38  and  S5_39 
ROOT
HETATM    1  C2  UNL     1      45.700  39.414  32.303  1.00  0.00     0.185 C 
HETATM    2  C3  UNL     1      44.223  39.636  32.144  1.00  0.00     0.187 C 
HETATM    3  C10 UNL     1      43.665  40.684  33.062  1.00  0.00     0.209 C 
HETATM    4  C11 UNL     1      44.044  40.464  34.508  1.00  0.00     0.211 C 
HETATM    5  C12 UNL     1      45.089  39.382  34.659  1.00  0.00     0.211 C 
HETATM    6  C13 UNL     1      46.196  39.751  33.696  1.00  0.00     0.209 C 
ENDROOT
BRANCH   2   7
HETATM    7  O2  UNL     1      43.997  40.026  30.845  1.00  0.00    -0.362 OA
BRANCH   7   8
HETATM    8  C4  UNL     1      42.910  39.407  30.246  1.00  0.00     0.214 C 
HETATM    9  S1  UNL     1      43.589  37.935  29.417  1.00  0.00    -0.132 SA
HETATM   10  C5  UNL     1      43.731  36.680  30.753  1.00  0.00     0.116 C 
HETATM   11  C6  UNL     1      42.276  36.383  31.141  1.00  0.00     0.091 C 
HETATM   12  C7  UNL     1      41.850  35.244  30.203  1.00  0.00     0.049 C 
HETATM   13  C8  UNL     1      41.364  37.531  30.859  1.00  0.00     0.184 C 
HETATM   14  C9  UNL     1      41.909  38.882  31.255  1.00  0.00     0.188 C 
BRANCH  11  15
HETATM   15  O3  UNL     1      42.181  35.882  32.423  1.00  0.00    -0.387 OA
ATOM     16  H3  UNL     1      41.547  35.176  32.479  1.00  0.00     0.210 HD
ENDBRANCH  11  15
BRANCH  13  17
HETATM   17  O4  UNL     1      40.193  37.334  31.608  1.00  0.00    -0.390 OA
ATOM     18  H4  UNL     1      39.780  38.183  31.722  1.00  0.00     0.210 HD
ENDBRANCH  13  17
BRANCH  14  19
HETATM   19  O5  UNL     1      40.803  39.763  31.206  1.00  0.00    -0.389 OA
ATOM     20  H5  UNL     1      40.120  39.357  31.727  1.00  0.00     0.210 HD
ENDBRANCH  14  19
ENDBRANCH   7   8
ENDBRANCH   2   7
BRANCH   1  21
HETATM   21  O1  UNL     1      46.476  40.019  31.323  1.00  0.00    -0.385 OA
HETATM   22  C1  UNL     1      47.240  39.142  30.590  1.00  0.00     0.202 C 
ENDBRANCH   1  21
BRANCH   3  23
HETATM   23  O6  UNL     1      44.059  41.957  32.656  1.00  0.00    -0.246 OA
BRANCH  23  24
HETATM   24  S2  UNL     1      42.867  43.103  32.732  1.00  0.00     0.252 S 
HETATM   25  O7  UNL     1      43.062  44.031  33.900  1.00  0.00    -0.572 OA
HETATM   26  O8  UNL     1      42.777  43.958  31.495  1.00  0.00    -0.572 OA
HETATM   27  O9  UNL     1      41.354  42.358  32.955  1.00  0.00    -0.572 OA
ENDBRANCH  23  24
ENDBRANCH   3  23
BRANCH   6  28
HETATM   28  O18 UNL     1      47.287  38.961  33.990  1.00  0.00    -0.246 OA
BRANCH  28  29
HETATM   29  S5  UNL     1      48.645  39.841  34.395  1.00  0.00     0.252 S 
HETATM   30  O19 UNL     1      49.610  38.916  35.074  1.00  0.00    -0.572 OA
HETATM   31  O20 UNL     1      48.235  40.897  35.407  1.00  0.00    -0.572 OA
HETATM   32  O21 UNL     1      49.316  40.637  33.102  1.00  0.00    -0.572 OA
ENDBRANCH  28  29
ENDBRANCH   6  28
BRANCH   4  33
HETATM   33  O10 UNL     1      42.940  40.201  35.313  1.00  0.00    -0.246 OA
BRANCH  33  34
HETATM   34  S3  UNL     1      42.774  41.325  36.546  1.00  0.00     0.252 S 
HETATM   35  O11 UNL     1      43.982  42.208  36.568  1.00  0.00    -0.572 OA
HETATM   36  O12 UNL     1      42.590  40.615  37.869  1.00  0.00    -0.572 OA
HETATM   37  O13 UNL     1      41.431  42.310  36.329  1.00  0.00    -0.572 OA
ENDBRANCH  33  34
ENDBRANCH   4  33
BRANCH   5  38
HETATM   38  O14 UNL     1      44.608  38.112  34.492  1.00  0.00    -0.246 OA
BRANCH  38  39
HETATM   39  S4  UNL     1      44.982  37.083  35.757  1.00  0.00     0.252 S 
HETATM   40  O15 UNL     1      44.298  35.743  35.607  1.00  0.00    -0.572 OA
HETATM   41  O16 UNL     1      46.464  36.821  35.828  1.00  0.00    -0.572 OA
HETATM   42  O17 UNL     1      44.507  37.714  37.236  1.00  0.00    -0.572 OA
ENDBRANCH  38  39
ENDBRANCH   5  38
TORSDOF 14
ENDMDL
MODEL 3
REMARK VINA RESULT: -7.202742120      0.346      1.433
REMARK  14 active torsions:
REMARK  status: ('A' for Active; 'I' for Inactive)
REMARK    1  A    between atoms: O1_2  and  C2_3 
REMARK    2  A    between atoms: C3_4  and  O2_5 
REMARK    3  A    between atoms: O2_5  and  C4_6 
REMARK    4  A    between atoms: C6_9  and  O3_11 
REMARK    5  A    between atoms: C8_13  and  O4_14 
REMARK    6  A    between atoms: C9_16  and  O5_17 
REMARK    7  A    between atoms: C10_19  and  O6_20 
REMARK    8  A    between atoms: O6_20  and  S2_21 
REMARK    9  A    between atoms: C11_25  and  O10_26 
REMARK   10  A    between atoms: O10_26  and  S3_27 
REMARK   11  A    between atoms: C12_31  and  O14_32 
REMARK   12  A    between atoms: O14_32  and  S4_33 
REMARK   13  A    between atoms: C13_37  and  O18_38 
REMARK   14  A    between atoms: O18_38  and  S5_39 
ROOT
HETATM    1  C2  UNL     1      45.396  39.183  31.919  1.00  0.00     0.185 C 
HETATM    2  C3  UNL     1      43.902  39.298  31.807  1.00  0.00     0.187 C 
HETATM    3  C10 UNL     1      43.320  40.435  32.596  1.00  0.00     0.209 C 
HETATM    4  C11 UNL     1      43.775  40.446  34.037  1.00  0.00     0.211 C 
HETATM    5  C12 UNL     1      44.891  39.456  34.284  1.00  0.00     0.211 C 
HETATM    6  C13 UNL     1      45.930  39.743  33.223  1.00  0.00     0.209 C 
ENDROOT
BRANCH   2   7
HETATM    7  O2  UNL     1      43.597  39.485  30.479  1.00  0.00    -0.362 OA
BRANCH   7   8
HETATM    8  C4  UNL     1      42.747  38.525  29.951  1.00  0.00     0.214 C 
HETATM    9  S1  UNL     1      43.705  37.699  28.641  1.00  0.00    -0.132 SA
HETATM   10  C5  UNL     1      44.743  36.474  29.535  1.00  0.00     0.116 C 
HETATM   11  C6  UNL     1      43.731  35.466  30.094  1.00  0.00     0.091 C 
HETATM   12  C7  UNL     1      43.568  34.421  28.980  1.00  0.00     0.049 C 
HETATM   13  C8  UNL     1      42.383  36.071  30.312  1.00  0.00     0.184 C 
HETATM   14  C9  UNL     1      42.401  37.439  30.949  1.00  0.00     0.188 C 
BRANCH  11  15
HETATM   15  O3  UNL     1      44.233  34.789  31.186  1.00  0.00    -0.387 OA
ATOM     16  H3  UNL     1      44.336  35.360  31.939  1.00  0.00     0.210 HD
ENDBRANCH  11  15
BRANCH  13  17
HETATM   17  O4  UNL     1      41.678  35.229  31.185  1.00  0.00    -0.390 OA
ATOM     18  H4  UNL     1      41.085  35.773  31.691  1.00  0.00     0.210 HD
ENDBRANCH  13  17
BRANCH  14  19
HETATM   19  O5  UNL     1      41.067  37.684  31.350  1.00  0.00    -0.389 OA
ATOM     20  H5  UNL     1      41.122  38.145  32.179  1.00  0.00     0.210 HD
ENDBRANCH  14  19
ENDBRANCH   7   8
ENDBRANCH   2   7
BRANCH   1  21
HETATM   21  O1  UNL     1      46.090  39.683  30.824  1.00  0.00    -0.385 OA
HETATM   22  C1  UNL     1      47.081  38.853  30.359  1.00  0.00     0.202 C 
ENDBRANCH   1  21
BRANCH   3  23
HETATM   23  O6  UNL     1      43.616  41.656  31.996  1.00  0.00    -0.246 OA
BRANCH  23  24
HETATM   24  S2  UNL     1      42.532  42.864  32.320  1.00  0.00     0.252 S 
HETATM   25  O7  UNL     1      41.188  42.312  32.712  1.00  0.00    -0.572 OA
HETATM   26  O8  UNL     1      42.974  43.787  33.424  1.00  0.00    -0.572 OA
HETATM   27  O9  UNL     1      42.277  43.809  30.928  1.00  0.00    -0.572 OA
ENDBRANCH  23  24
ENDBRANCH   3  23
BRANCH   6  28
HETATM   28  O18 UNL     1      47.079  39.066  33.569  1.00  0.00    -0.246 OA
BRANCH  28  29
HETATM   29  S5  UNL     1      48.332  40.077  34.006  1.00  0.00     0.252 S 
HETATM   30  O19 UNL     1      47.739  41.370  34.481  1.00  0.00    -0.572 OA
HETATM   31  O20 UNL     1      49.147  40.379  32.760  1.00  0.00    -0.572 OA
HETATM   32  O21 UNL     1      49.365  39.395  35.113  1.00  0.00    -0.572 OA
ENDBRANCH  28  29
ENDBRANCH   6  28
BRANCH   4  33
HETATM   33  O10 UNL     1      42.725  40.240  34.927  1.00  0.00    -0.246 OA
BRANCH  33  34
HETATM   34  S3  UNL     1      42.702  41.383  36.153  1.00  0.00     0.252 S 
HETATM   35  O11 UNL     1      41.502  42.261  35.981  1.00  0.00    -0.572 OA
HETATM   36  O12 UNL     1      43.980  42.192  36.128  1.00  0.00    -0.572 OA
HETATM   37  O13 UNL     1      42.599  40.679  37.674  1.00  0.00    -0.572 OA
ENDBRANCH  33  34
ENDBRANCH   4  33
BRANCH   5  38
HETATM   38  O14 UNL     1      44.483  38.150  34.322  1.00  0.00    -0.246 OA
BRANCH  38  39
HETATM   39  S4  UNL     1      44.978  37.335  35.697  1.00  0.00     0.252 S 
HETATM   40  O15 UNL     1      44.361  35.957  35.780  1.00  0.00    -0.572 OA
HETATM   41  O16 UNL     1      46.473  37.156  35.717  1.00  0.00    -0.572 OA
HETATM   42  O17 UNL     1      44.545  38.151  37.097  1.00  0.00    -0.572 OA
ENDBRANCH  38  39
ENDBRANCH   5  38
TORSDOF 14
ENDMDL
MODEL 4
REMARK VINA RESULT: -6.967531846      2.395      6.065
REMARK  14 active torsions:
REMARK  status: ('A' for Active; 'I' for Inactive)
REMARK    1  A    between atoms: O1_2  and  C2_3 
REMARK    2  A    between atoms: C3_4  and  O2_5 
REMARK    3  A    between atoms: O2_5  and  C4_6 
REMARK    4  A    between atoms: C6_9  and  O3_11 
REMARK    5  A    between atoms: C8_13  and  O4_14 
REMARK    6  A    between atoms: C9_16  and  O5_17 
REMARK    7  A    between atoms: C10_19  and  O6_20 
REMARK    8  A    between atoms: O6_20  and  S2_21 
REMARK    9  A    between atoms: C11_25  and  O10_26 
REMARK   10  A    between atoms: O10_26  and  S3_27 
REMARK   11  A    between atoms: C12_31  and  O14_32 
REMARK   12  A    between atoms: O14_32  and  S4_33 
REMARK   13  A    between atoms: C13_37  and  O18_38 
REMARK   14  A    between atoms: O18_38  and  S5_39 
ROOT
HETATM    1  C2  UNL     1      44.778  39.202  32.469  1.00  0.00     0.185 C 
HETATM    2  C3  UNL     1      45.486  38.379  33.507  1.00  0.00     0.187 C 
HETATM    3  C10 UNL     1      44.596  37.912  34.622  1.00  0.00     0.209 C 
HETATM    4  C11 UNL     1      43.797  39.033  35.247  1.00  0.00     0.211 C 
HETATM    5  C12 UNL     1      43.902  40.313  34.450  1.00  0.00     0.211 C 
HETATM    6  C13 UNL     1      43.569  39.931  33.024  1.00  0.00     0.209 C 
ENDROOT
BRANCH   2   7
HETATM    7  O2  UNL     1      46.012  37.275  32.876  1.00  0.00    -0.362 OA
BRANCH   7   8
HETATM    8  C4  UNL     1      47.345  37.035  33.171  1.00  0.00     0.214 C 
HETATM    9  S1  UNL     1      48.281  37.700  31.757  1.00  0.00    -0.132 SA
HETATM   10  C5  UNL     1      48.399  39.503  32.091  1.00  0.00     0.116 C 
HETATM   11  C6  UNL     1      49.289  39.593  33.338  1.00  0.00     0.091 C 
HETATM   12  C7  UNL     1      50.720  39.665  32.787  1.00  0.00     0.049 C 
HETATM   13  C8  UNL     1      49.218  38.362  34.181  1.00  0.00     0.184 C 
HETATM   14  C9  UNL     1      47.826  37.813  34.379  1.00  0.00     0.188 C 
BRANCH  11  15
HETATM   15  O3  UNL     1      49.083  40.768  34.030  1.00  0.00    -0.387 OA
ATOM     16  H3  UNL     1      49.643  40.830  34.795  1.00  0.00     0.210 HD
ENDBRANCH  11  15
BRANCH  13  17
HETATM   17  O4  UNL     1      49.706  38.693  35.454  1.00  0.00    -0.390 OA
ATOM     18  H4  UNL     1      49.602  37.928  36.008  1.00  0.00     0.210 HD
ENDBRANCH  13  17
BRANCH  14  19
HETATM   19  O5  UNL     1      47.939  36.874  35.431  1.00  0.00    -0.389 OA
ATOM     20  H5  UNL     1      47.060  36.551  35.591  1.00  0.00     0.210 HD
ENDBRANCH  14  19
ENDBRANCH   7   8
ENDBRANCH   2   7
BRANCH   1  21
HETATM   21  O1  UNL     1      44.468  38.509  31.306  1.00  0.00    -0.385 OA
HETATM   22  C1  UNL     1      45.043  39.029  30.171  1.00  0.00     0.202 C 
ENDBRANCH   1  21
BRANCH   3  23
HETATM   23  O6  UNL     1      43.738  36.906  34.183  1.00  0.00    -0.246 OA
BRANCH  23  24
HETATM   24  S2  UNL     1      43.904  35.465  34.979  1.00  0.00     0.252 S 
HETATM   25  O7  UNL     1      42.760  34.533  34.684  1.00  0.00    -0.572 OA
HETATM   26  O8  UNL     1      45.174  34.732  34.636  1.00  0.00    -0.572 OA
HETATM   27  O9  UNL     1      43.895  35.721  36.661  1.00  0.00    -0.572 OA
ENDBRANCH  23  24
ENDBRANCH   3  23
BRANCH   6  28
HETATM   28  O18 UNL     1      43.377  41.095  32.313  1.00  0.00    -0.246 OA
BRANCH  28  29
HETATM   29  S5  UNL     1      41.776  41.555  32.224  1.00  0.00     0.252 S 
HETATM   30  O19 UNL     1      40.998  40.412  31.644  1.00  0.00    -0.572 OA
HETATM   31  O20 UNL     1      41.676  42.717  31.251  1.00  0.00    -0.572 OA
HETATM   32  O21 UNL     1      41.167  42.079  33.677  1.00  0.00    -0.572 OA
ENDBRANCH  28  29
ENDBRANCH   6  28
BRANCH   4  33
HETATM   33  O10 UNL     1      44.139  39.250  36.579  1.00  0.00    -0.246 OA
BRANCH  33  34
HETATM   34  S3  UNL     1      42.825  39.081  37.605  1.00  0.00     0.252 S 
HETATM   35  O11 UNL     1      43.235  38.272  38.796  1.00  0.00    -0.572 OA
HETATM   36  O12 UNL     1      41.676  38.428  36.869  1.00  0.00    -0.572 OA
HETATM   37  O13 UNL     1      42.265  40.561  38.167  1.00  0.00    -0.572 OA
ENDBRANCH  33  34
ENDBRANCH   4  33
BRANCH   5  38
HETATM   38  O14 UNL     1      45.100  40.961  34.585  1.00  0.00    -0.246 OA
BRANCH  38  39
HETATM   39  S4  UNL     1      44.966  42.471  35.292  1.00  0.00     0.252 S 
HETATM   40  O15 UNL     1      44.387  42.385  36.686  1.00  0.00    -0.572 OA
HETATM   41  O16 UNL     1      46.311  43.140  35.410  1.00  0.00    -0.572 OA
HETATM   42  O17 UNL     1      43.968  43.490  34.408  1.00  0.00    -0.572 OA
ENDBRANCH  38  39
ENDBRANCH   5  38
TORSDOF 14
ENDMDL
MODEL 5
REMARK VINA RESULT: -6.913283581      2.230      6.041
REMARK  14 active torsions:
REMARK  status: ('A' for Active; 'I' for Inactive)
REMARK    1  A    between atoms: O1_2  and  C2_3 
REMARK    2  A    between atoms: C3_4  and  O2_5 
REMARK    3  A    between atoms: O2_5  and  C4_6 
REMARK    4  A    between atoms: C6_9  and  O3_11 
REMARK    5  A    between atoms: C8_13  and  O4_14 
REMARK    6  A    between atoms: C9_16  and  O5_17 
REMARK    7  A    between atoms: C10_19  and  O6_20 
REMARK    8  A    between atoms: O6_20  and  S2_21 
REMARK    9  A    between atoms: C11_25  and  O10_26 
REMARK   10  A    between atoms: O10_26  and  S3_27 
REMARK   11  A    between atoms: C12_31  and  O14_32 
REMARK   12  A    between atoms: O14_32  and  S4_33 
REMARK   13  A    between atoms: C13_37  and  O18_38 
REMARK   14  A    between atoms: O18_38  and  S5_39 
ROOT
HETATM    1  C2  UNL     1      44.887  39.680  31.924  1.00  0.00     0.185 C 
HETATM    2  C3  UNL     1      45.657  38.738  32.805  1.00  0.00     0.187 C 
HETATM    3  C10 UNL     1      44.824  38.088  33.871  1.00  0.00     0.209 C 
HETATM    4  C11 UNL     1      44.022  39.080  34.681  1.00  0.00     0.211 C 
HETATM    5  C12 UNL     1      44.062  40.465  34.075  1.00  0.00     0.211 C 
HETATM    6  C13 UNL     1      43.682  40.283  32.622  1.00  0.00     0.209 C 
ENDROOT
BRANCH   2   7
HETATM    7  O2  UNL     1      46.186  37.755  32.002  1.00  0.00    -0.362 OA
BRANCH   7   8
HETATM    8  C4  UNL     1      47.428  37.295  32.412  1.00  0.00     0.214 C 
HETATM    9  S1  UNL     1      48.642  38.284  31.481  1.00  0.00    -0.132 SA
HETATM   10  C5  UNL     1      48.771  39.857  32.423  1.00  0.00     0.116 C 
HETATM   11  C6  UNL     1      49.412  39.442  33.754  1.00  0.00     0.091 C 
HETATM   12  C7  UNL     1      50.924  39.542  33.503  1.00  0.00     0.049 C 
HETATM   13  C8  UNL     1      49.131  38.018  34.105  1.00  0.00     0.184 C 
HETATM   14  C9  UNL     1      47.705  37.582  33.873  1.00  0.00     0.188 C 
BRANCH  11  15
HETATM   15  O3  UNL     1      49.129  40.342  34.761  1.00  0.00    -0.387 OA
ATOM     16  H3  UNL     1      48.364  40.082  35.262  1.00  0.00     0.210 HD
ENDBRANCH  11  15
BRANCH  13  17
HETATM   17  O4  UNL     1      49.382  37.863  35.476  1.00  0.00    -0.390 OA
ATOM     18  H4  UNL     1      49.250  36.946  35.690  1.00  0.00     0.210 HD
ENDBRANCH  13  17
BRANCH  14  19
HETATM   19  O5  UNL     1      47.576  36.344  34.547  1.00  0.00    -0.389 OA
ATOM     20  H5  UNL     1      46.985  35.818  34.021  1.00  0.00     0.210 HD
ENDBRANCH  14  19
ENDBRANCH   7   8
ENDBRANCH   2   7
BRANCH   1  21
HETATM   21  O1  UNL     1      44.549  39.154  30.683  1.00  0.00    -0.385 OA
HETATM   22  C1  UNL     1      43.233  38.774  30.573  1.00  0.00     0.202 C 
ENDBRANCH   1  21
BRANCH   3  23
HETATM   23  O6  UNL     1      43.977  37.129  33.320  1.00  0.00    -0.246 OA
BRANCH  23  24
HETATM   24  S2  UNL     1      44.136  35.615  33.970  1.00  0.00     0.252 S 
HETATM   25  O7  UNL     1      44.669  35.667  35.375  1.00  0.00    -0.572 OA
HETATM   26  O8  UNL     1      42.844  34.841  34.012  1.00  0.00    -0.572 OA
HETATM   27  O9  UNL     1      45.252  34.706  33.063  1.00  0.00    -0.572 OA
ENDBRANCH  23  24
ENDBRANCH   3  23
BRANCH   6  28
HETATM   28  O18 UNL     1      43.433  41.531  32.095  1.00  0.00    -0.246 OA
BRANCH  28  29
HETATM   29  S5  UNL     1      41.837  41.996  32.235  1.00  0.00     0.252 S 
HETATM   30  O19 UNL     1      40.984  40.895  31.679  1.00  0.00    -0.572 OA
HETATM   31  O20 UNL     1      41.627  43.222  31.362  1.00  0.00    -0.572 OA
HETATM   32  O21 UNL     1      41.414  42.420  33.784  1.00  0.00    -0.572 OA
ENDBRANCH  28  29
ENDBRANCH   6  28
BRANCH   4  33
HETATM   33  O10 UNL     1      44.411  39.113  36.017  1.00  0.00    -0.246 OA
BRANCH  33  34
HETATM   34  S3  UNL     1      43.172  38.650  37.047  1.00  0.00     0.252 S 
HETATM   35  O11 UNL     1      41.985  38.243  36.232  1.00  0.00    -0.572 OA
HETATM   36  O12 UNL     1      42.830  39.786  37.985  1.00  0.00    -0.572 OA
HETATM   37  O13 UNL     1      43.602  37.339  38.005  1.00  0.00    -0.572 OA
ENDBRANCH  33  34
ENDBRANCH   4  33
BRANCH   5  38
HETATM   38  O14 UNL     1      45.246  41.124  34.261  1.00  0.00    -0.246 OA
BRANCH  38  39
HETATM   39  S4  UNL     1      45.099  42.520  35.172  1.00  0.00     0.252 S 
HETATM   40  O15 UNL     1      44.302  43.579  34.445  1.00  0.00    -0.572 OA
HETATM   41  O16 UNL     1      44.395  42.249  36.476  1.00  0.00    -0.572 OA
HETATM   42  O17 UNL     1      46.594  43.191  35.532  1.00  0.00    -0.572 OA
ENDBRANCH  38  39
ENDBRANCH   5  38
TORSDOF 14
ENDMDL
