MODEL 1
REMARK VINA RESULT: -9.344650606      0.000      0.000
REMARK  16 active torsions:
REMARK  status: ('A' for Active; 'I' for Inactive)
REMARK    1  A    between atoms: O1_2  and  N1_3 
REMARK    2  A    between atoms: C2_5  and  C3_6 
REMARK    3  A    between atoms: C2_5  and  C18_44 
REMARK       I    between atoms: C3_6  and  N2_8 
REMARK    4  A    between atoms: N2_8  and  C4_10 
REMARK    5  A    between atoms: C6_14  and  C7_15 
REMARK    6  A    between atoms: C9_19  and  S1_20 
REMARK    7  A    between atoms: S1_20  and  C10_21 
REMARK    8  A    between atoms: C12_25  and  O6_26 
REMARK    9  A    between atoms: C13_28  and  O7_29 
REMARK   10  A    between atoms: C15_35  and  C16_36 
REMARK   11  A    between atoms: C16_36  and  O9_37 
REMARK   12  A    between atoms: N6_39  and  O10_41 
REMARK   13  A    between atoms: C19_46  and  N7_47 
REMARK   14  A    between atoms: N7_47  and  O11_48 
REMARK   15  A    between atoms: N7_47  and  O12_50 
REMARK   16  A    between atoms: C21_53  and  N8_54 
ROOT
HETATM    1  C4  UNL     1      43.445  41.595  32.641  1.00  0.00     0.201 C 
HETATM    2  C5  UNL     1      42.024  42.106  32.854  1.00  0.00     0.246 C 
HETATM    3  O3  UNL     1      41.144  42.674  32.204  1.00  0.00    -0.271 OA
HETATM    4  N3  UNL     1      42.154  41.626  34.173  1.00  0.00    -0.323 N 
HETATM    5  C6  UNL     1      41.984  41.083  35.491  1.00  0.00     0.219 C 
HETATM    6  C8  UNL     1      43.312  40.632  35.965  1.00  0.00    -0.026 C 
HETATM    7  C9  UNL     1      43.584  39.805  36.946  1.00  0.00     0.059 C 
HETATM    8  C15 UNL     1      44.316  41.321  35.072  1.00  0.00     0.119 C 
HETATM    9  C17 UNL     1      43.572  41.995  34.026  1.00  0.00     0.136 C 
ENDROOT
BRANCH   1  10
HETATM   10  N2  UNL     1      43.294  40.231  32.217  1.00  0.00    -0.340 N 
HETATM   11  C3  UNL     1      44.323  39.662  31.469  1.00  0.00     0.272 C 
HETATM   12  O2  UNL     1      45.346  40.372  31.212  1.00  0.00    -0.266 OA
ATOM     13  H2  UNL     1      42.460  39.695  32.456  1.00  0.00     0.163 HD
BRANCH  11  14
HETATM   14  C2  UNL     1      44.302  38.296  30.951  1.00  0.00     0.141 C 
HETATM   15  N1  UNL     1      45.113  37.415  31.267  1.00  0.00    -0.260 N 
ATOM     16  H1  UNL     1      44.902  36.540  30.788  1.00  0.00     0.194 HD
BRANCH  15  17
HETATM   17  O1  UNL     1      46.171  37.281  32.043  1.00  0.00    -0.285 OA
HETATM   18  C1  UNL     1      47.512  37.587  31.828  1.00  0.00     0.237 C 
ENDBRANCH  15  17
BRANCH  14  19
HETATM   19  C18 UNL     1      43.224  37.958  29.963  1.00  0.00     0.073 A 
HETATM   20  S2  UNL     1      43.534  37.526  28.306  1.00  0.00    -0.069 SA
HETATM   21  C19 UNL     1      41.952  37.179  27.824  1.00  0.00     0.109 A 
HETATM   22  C20 UNL     1      41.227  37.405  28.943  1.00  0.00     0.073 A 
HETATM   23  C21 UNL     1      41.890  37.816  30.070  1.00  0.00     0.124 A 
BRANCH  21  24
HETATM   24  N7  UNL     1      41.468  36.744  26.524  1.00  0.00    -0.029 NA
BRANCH  24  25
HETATM   25  O11 UNL     1      41.367  37.762  25.667  1.00  0.00    -0.284 OA
ATOM     26  H11 UNL     1      40.934  38.511  26.060  1.00  0.00     0.240 HD
ENDBRANCH  24  25
BRANCH  24  27
HETATM   27  O12 UNL     1      40.250  36.172  26.727  1.00  0.00    -0.284 OA
ATOM     28  H12 UNL     1      40.161  35.477  26.085  1.00  0.00     0.240 HD
ENDBRANCH  24  27
ENDBRANCH  21  24
BRANCH  23  29
HETATM   29  N8  UNL     1      41.110  38.069  31.273  1.00  0.00    -0.114 N 
HETATM   30  O13 UNL     1      40.597  39.229  31.455  1.00  0.00    -0.532 OA
HETATM   31  O14 UNL     1      40.852  37.182  32.241  1.00  0.00    -0.532 OA
ENDBRANCH  23  29
ENDBRANCH  14  19
ENDBRANCH  11  14
ENDBRANCH   1  10
BRANCH   8  32
HETATM   32  C16 UNL     1      45.446  40.469  34.718  1.00  0.00     0.145 C 
HETATM   33  N6  UNL     1      46.687  40.886  34.846  1.00  0.00    -0.250 N 
ATOM     34  H6  UNL     1      47.471  40.283  34.596  1.00  0.00     0.196 HD
BRANCH  32  35
HETATM   35  O9  UNL     1      45.371  39.170  34.222  1.00  0.00    -0.348 OA
ATOM     36  H9  UNL     1      45.124  38.396  34.714  1.00  0.00     0.219 HD
ENDBRANCH  32  35
BRANCH  33  37
HETATM   37  O10 UNL     1      46.897  42.155  35.325  1.00  0.00    -0.288 OA
ATOM     38  H10 UNL     1      47.749  42.359  35.693  1.00  0.00     0.244 HD
ENDBRANCH  33  37
ENDBRANCH   8  32
BRANCH   5  39
HETATM   39  C7  UNL     1      41.369  42.128  36.377  1.00  0.00     0.201 C 
HETATM   40  O4  UNL     1      40.346  42.744  35.936  1.00  0.00    -0.646 OA
HETATM   41  O5  UNL     1      41.860  42.434  37.619  1.00  0.00    -0.646 OA
ENDBRANCH   5  39
BRANCH   7  42
HETATM   42  S1  UNL     1      42.311  39.051  37.915  1.00  0.00    -0.065 SA
BRANCH  42  43
HETATM   43  C10 UNL     1      42.283  39.786  39.529  1.00  0.00     0.151 C 
HETATM   44  N4  UNL     1      43.420  39.704  40.232  1.00  0.00    -0.344 N 
HETATM   45  C11 UNL     1      43.897  40.612  41.144  1.00  0.00     0.129 C 
ATOM     46  H4  UNL     1      43.994  38.876  40.072  1.00  0.00     0.167 HD
HETATM   47  C12 UNL     1      43.205  41.683  41.699  1.00  0.00     0.120 C 
HETATM   48  C13 UNL     1      41.858  41.938  41.661  1.00  0.00     0.169 C 
HETATM   49  C14 UNL     1      40.920  41.250  40.902  1.00  0.00     0.283 C 
HETATM   50  O8  UNL     1      39.734  41.485  41.176  1.00  0.00    -0.265 OA
HETATM   51  N5  UNL     1      41.136  40.353  39.901  1.00  0.00    -0.301 N 
ATOM     52  H5  UNL     1      40.312  40.078  39.366  1.00  0.00     0.171 HD
BRANCH  47  53
HETATM   53  O6  UNL     1      44.024  42.588  42.369  1.00  0.00    -0.357 OA
ATOM     54  H6  UNL     1      44.505  42.202  43.091  1.00  0.00     0.218 HD
ENDBRANCH  47  53
BRANCH  48  55
HETATM   55  O7  UNL     1      41.410  42.974  42.451  1.00  0.00    -0.354 OA
ATOM     56  H7  UNL     1      40.504  43.235  42.330  1.00  0.00     0.218 HD
ENDBRANCH  48  55
ENDBRANCH  42  43
ENDBRANCH   7  42
TORSDOF 16
ENDMDL
MODEL 2
REMARK VINA RESULT: -9.222805273      2.320     10.125
REMARK  16 active torsions:
REMARK  status: ('A' for Active; 'I' for Inactive)
REMARK    1  A    between atoms: O1_2  and  N1_3 
REMARK    2  A    between atoms: C2_5  and  C3_6 
REMARK    3  A    between atoms: C2_5  and  C18_44 
REMARK       I    between atoms: C3_6  and  N2_8 
REMARK    4  A    between atoms: N2_8  and  C4_10 
REMARK    5  A    between atoms: C6_14  and  C7_15 
REMARK    6  A    between atoms: C9_19  and  S1_20 
REMARK    7  A    between atoms: S1_20  and  C10_21 
REMARK    8  A    between atoms: C12_25  and  O6_26 
REMARK    9  A    between atoms: C13_28  and  O7_29 
REMARK   10  A    between atoms: C15_35  and  C16_36 
REMARK   11  A    between atoms: C16_36  and  O9_37 
REMARK   12  A    between atoms: N6_39  and  O10_41 
REMARK   13  A    between atoms: C19_46  and  N7_47 
REMARK   14  A    between atoms: N7_47  and  O11_48 
REMARK   15  A    between atoms: N7_47  and  O12_50 
REMARK   16  A    between atoms: C21_53  and  N8_54 
ROOT
HETATM    1  C4  UNL     1      44.329  40.872  34.959  1.00  0.00     0.201 C 
HETATM    2  C5  UNL     1      45.008  39.506  35.011  1.00  0.00     0.246 C 
HETATM    3  O3  UNL     1      45.859  38.927  35.688  1.00  0.00    -0.271 OA
HETATM    4  N3  UNL     1      44.204  39.175  33.901  1.00  0.00    -0.323 N 
HETATM    5  C6  UNL     1      43.393  38.554  32.892  1.00  0.00     0.219 C 
HETATM    6  C8  UNL     1      42.620  39.622  32.219  1.00  0.00    -0.026 C 
HETATM    7  C9  UNL     1      41.543  39.500  31.479  1.00  0.00     0.059 C 
HETATM    8  C15 UNL     1      43.325  40.912  32.565  1.00  0.00     0.119 C 
HETATM    9  C17 UNL     1      44.351  40.595  33.538  1.00  0.00     0.136 C 
ENDROOT
BRANCH   1  10
HETATM   10  N2  UNL     1      43.157  40.740  35.778  1.00  0.00    -0.340 N 
HETATM   11  C3  UNL     1      43.160  41.359  37.027  1.00  0.00     0.272 C 
HETATM   12  O2  UNL     1      44.192  42.017  37.371  1.00  0.00    -0.266 OA
ATOM     13  H2  UNL     1      42.347  40.210  35.456  1.00  0.00     0.163 HD
BRANCH  11  14
HETATM   14  C2  UNL     1      42.052  41.296  37.977  1.00  0.00     0.141 C 
HETATM   15  N1  UNL     1      41.133  42.123  38.036  1.00  0.00    -0.260 N 
ATOM     16  H1  UNL     1      40.469  41.874  38.769  1.00  0.00     0.194 HD
BRANCH  15  17
HETATM   17  O1  UNL     1      40.764  43.232  37.426  1.00  0.00    -0.285 OA
HETATM   18  C1  UNL     1      40.001  43.438  36.279  1.00  0.00     0.237 C 
ENDBRANCH  15  17
BRANCH  14  19
HETATM   19  C18 UNL     1      42.049  40.148  38.946  1.00  0.00     0.073 A 
HETATM   20  S2  UNL     1      41.450  38.561  38.560  1.00  0.00    -0.069 SA
HETATM   21  C19 UNL     1      41.838  37.775  40.004  1.00  0.00     0.109 A 
HETATM   22  C20 UNL     1      42.415  38.748  40.745  1.00  0.00     0.073 A 
HETATM   23  C21 UNL     1      42.527  39.998  40.194  1.00  0.00     0.124 A 
BRANCH  21  24
HETATM   24  N7  UNL     1      41.613  36.388  40.378  1.00  0.00    -0.029 NA
BRANCH  24  25
HETATM   25  O11 UNL     1      41.260  36.272  41.660  1.00  0.00    -0.284 OA
ATOM     26  H11 UNL     1      41.516  35.431  42.021  1.00  0.00     0.240 HD
ENDBRANCH  24  25
BRANCH  24  27
HETATM   27  O12 UNL     1      42.777  35.722  40.145  1.00  0.00    -0.284 OA
ATOM     28  H12 UNL     1      42.564  34.797  40.111  1.00  0.00     0.240 HD
ENDBRANCH  24  27
ENDBRANCH  21  24
BRANCH  23  29
HETATM   29  N8  UNL     1      43.138  41.050  40.994  1.00  0.00    -0.114 N 
HETATM   30  O13 UNL     1      42.567  41.426  42.078  1.00  0.00    -0.532 OA
HETATM   31  O14 UNL     1      44.283  41.683  40.714  1.00  0.00    -0.532 OA
ENDBRANCH  23  29
ENDBRANCH  14  19
ENDBRANCH  11  14
ENDBRANCH   1  10
BRANCH   8  32
HETATM   32  C16 UNL     1      42.406  42.016  32.820  1.00  0.00     0.145 C 
HETATM   33  N6  UNL     1      42.449  43.123  32.112  1.00  0.00    -0.250 N 
ATOM     34  H6  UNL     1      41.802  43.890  32.298  1.00  0.00     0.196 HD
BRANCH  32  35
HETATM   35  O9  UNL     1      41.411  42.048  33.795  1.00  0.00    -0.348 OA
ATOM     36  H9  UNL     1      40.725  42.700  33.874  1.00  0.00     0.219 HD
ENDBRANCH  32  35
BRANCH  33  37
HETATM   37  O10 UNL     1      43.389  43.218  31.117  1.00  0.00    -0.288 OA
ATOM     38  H10 UNL     1      43.938  43.994  31.092  1.00  0.00     0.244 HD
ENDBRANCH  33  37
ENDBRANCH   8  32
BRANCH   5  39
HETATM   39  C7  UNL     1      44.278  37.789  31.951  1.00  0.00     0.201 C 
HETATM   40  O4  UNL     1      44.578  36.593  32.270  1.00  0.00    -0.646 OA
HETATM   41  O5  UNL     1      44.762  38.321  30.786  1.00  0.00    -0.646 OA
ENDBRANCH   5  39
BRANCH   7  42
HETATM   42  S1  UNL     1      40.804  37.926  31.155  1.00  0.00    -0.065 SA
BRANCH  42  43
HETATM   43  C10 UNL     1      41.553  37.205  29.719  1.00  0.00     0.151 C 
HETATM   44  N4  UNL     1      42.436  36.224  29.946  1.00  0.00    -0.344 N 
HETATM   45  C11 UNL     1      42.693  35.140  29.145  1.00  0.00     0.129 C 
ATOM     46  H4  UNL     1      42.977  36.290  30.808  1.00  0.00     0.167 HD
HETATM   47  C12 UNL     1      42.268  34.947  27.836  1.00  0.00     0.120 C 
HETATM   48  C13 UNL     1      41.719  35.863  26.975  1.00  0.00     0.169 C 
HETATM   49  C14 UNL     1      41.316  37.151  27.304  1.00  0.00     0.283 C 
HETATM   50  O8  UNL     1      41.056  37.892  26.346  1.00  0.00    -0.265 OA
HETATM   51  N5  UNL     1      41.174  37.702  28.542  1.00  0.00    -0.301 N 
ATOM     52  H5  UNL     1      40.719  38.614  28.572  1.00  0.00     0.171 HD
BRANCH  47  53
HETATM   53  O6  UNL     1      42.440  33.643  27.380  1.00  0.00    -0.357 OA
ATOM     54  H6  UNL     1      42.092  33.496  26.508  1.00  0.00     0.218 HD
ENDBRANCH  47  53
BRANCH  48  55
HETATM   55  O7  UNL     1      41.556  35.454  25.669  1.00  0.00    -0.354 OA
ATOM     56  H7  UNL     1      42.135  35.851  25.028  1.00  0.00     0.218 HD
ENDBRANCH  48  55
ENDBRANCH  42  43
ENDBRANCH   7  42
TORSDOF 16
ENDMDL
MODEL 3
REMARK VINA RESULT: -9.125642838      2.508     10.052
REMARK  16 active torsions:
REMARK  status: ('A' for Active; 'I' for Inactive)
REMARK    1  A    between atoms: O1_2  and  N1_3 
REMARK    2  A    between atoms: C2_5  and  C3_6 
REMARK    3  A    between atoms: C2_5  and  C18_44 
REMARK       I    between atoms: C3_6  and  N2_8 
REMARK    4  A    between atoms: N2_8  and  C4_10 
REMARK    5  A    between atoms: C6_14  and  C7_15 
REMARK    6  A    between atoms: C9_19  and  S1_20 
REMARK    7  A    between atoms: S1_20  and  C10_21 
REMARK    8  A    between atoms: C12_25  and  O6_26 
REMARK    9  A    between atoms: C13_28  and  O7_29 
REMARK   10  A    between atoms: C15_35  and  C16_36 
REMARK   11  A    between atoms: C16_36  and  O9_37 
REMARK   12  A    between atoms: N6_39  and  O10_41 
REMARK   13  A    between atoms: C19_46  and  N7_47 
REMARK   14  A    between atoms: N7_47  and  O11_48 
REMARK   15  A    between atoms: N7_47  and  O12_50 
REMARK   16  A    between atoms: C21_53  and  N8_54 
ROOT
HETATM    1  C4  UNL     1      44.187  40.963  34.896  1.00  0.00     0.201 C 
HETATM    2  C5  UNL     1      44.894  39.614  34.986  1.00  0.00     0.246 C 
HETATM    3  O3  UNL     1      45.734  39.061  35.699  1.00  0.00    -0.271 OA
HETATM    4  N3  UNL     1      44.139  39.254  33.851  1.00  0.00    -0.323 N 
HETATM    5  C6  UNL     1      43.379  38.606  32.820  1.00  0.00     0.219 C 
HETATM    6  C8  UNL     1      42.607  39.649  32.109  1.00  0.00    -0.026 C 
HETATM    7  C9  UNL     1      41.561  39.495  31.332  1.00  0.00     0.059 C 
HETATM    8  C15 UNL     1      43.269  40.958  32.468  1.00  0.00     0.119 C 
HETATM    9  C17 UNL     1      44.266  40.674  33.480  1.00  0.00     0.136 C 
ENDROOT
BRANCH   1  10
HETATM   10  N2  UNL     1      42.989  40.811  35.674  1.00  0.00    -0.340 N 
HETATM   11  C3  UNL     1      43.034  41.176  37.018  1.00  0.00     0.272 C 
HETATM   12  O2  UNL     1      44.124  41.635  37.483  1.00  0.00    -0.266 OA
ATOM     13  H2  UNL     1      42.133  40.448  35.256  1.00  0.00     0.163 HD
BRANCH  11  14
HETATM   14  C2  UNL     1      41.904  41.059  37.938  1.00  0.00     0.141 C 
HETATM   15  N1  UNL     1      41.000  41.898  38.046  1.00  0.00    -0.260 N 
ATOM     16  H1  UNL     1      40.315  41.604  38.743  1.00  0.00     0.194 HD
BRANCH  15  17
HETATM   17  O1  UNL     1      40.665  43.060  37.521  1.00  0.00    -0.285 OA
HETATM   18  C1  UNL     1      39.991  43.376  36.345  1.00  0.00     0.237 C 
ENDBRANCH  15  17
BRANCH  14  19
HETATM   19  C18 UNL     1      41.858  39.837  38.809  1.00  0.00     0.073 A 
HETATM   20  S2  UNL     1      41.346  39.857  40.473  1.00  0.00    -0.069 SA
HETATM   21  C19 UNL     1      41.430  38.200  40.793  1.00  0.00     0.109 A 
HETATM   22  C20 UNL     1      41.850  37.674  39.620  1.00  0.00     0.073 A 
HETATM   23  C21 UNL     1      42.078  38.531  38.574  1.00  0.00     0.124 A 
BRANCH  21  24
HETATM   24  N7  UNL     1      41.130  37.492  42.027  1.00  0.00    -0.029 NA
BRANCH  24  25
HETATM   25  O11 UNL     1      41.140  36.169  41.854  1.00  0.00    -0.284 OA
ATOM     26  H11 UNL     1      41.437  35.930  40.983  1.00  0.00     0.240 HD
ENDBRANCH  24  25
BRANCH  24  27
HETATM   27  O12 UNL     1      39.898  37.908  42.431  1.00  0.00    -0.284 OA
ATOM     28  H12 UNL     1      39.405  37.129  42.659  1.00  0.00     0.240 HD
ENDBRANCH  24  27
ENDBRANCH  21  24
BRANCH  23  29
HETATM   29  N8  UNL     1      42.539  37.968  37.313  1.00  0.00    -0.114 N 
HETATM   30  O13 UNL     1      43.622  37.284  37.290  1.00  0.00    -0.532 OA
HETATM   31  O14 UNL     1      41.923  38.084  36.131  1.00  0.00    -0.532 OA
ENDBRANCH  23  29
ENDBRANCH  14  19
ENDBRANCH  11  14
ENDBRANCH   1  10
BRANCH   8  32
HETATM   32  C16 UNL     1      42.316  42.042  32.678  1.00  0.00     0.145 C 
HETATM   33  N6  UNL     1      42.411  43.178  32.022  1.00  0.00    -0.250 N 
ATOM     34  H6  UNL     1      41.740  43.930  32.176  1.00  0.00     0.196 HD
BRANCH  32  35
HETATM   35  O9  UNL     1      41.236  42.027  33.558  1.00  0.00    -0.348 OA
ATOM     36  H9  UNL     1      40.826  42.786  33.954  1.00  0.00     0.219 HD
ENDBRANCH  32  35
BRANCH  33  37
HETATM   37  O10 UNL     1      43.438  43.321  31.122  1.00  0.00    -0.288 OA
ATOM     38  H10 UNL     1      44.107  42.646  31.096  1.00  0.00     0.244 HD
ENDBRANCH  33  37
ENDBRANCH   8  32
BRANCH   5  39
HETATM   39  C7  UNL     1      44.315  37.853  31.919  1.00  0.00     0.201 C 
HETATM   40  O4  UNL     1      44.629  36.667  32.258  1.00  0.00    -0.646 OA
HETATM   41  O5  UNL     1      44.831  38.387  30.768  1.00  0.00    -0.646 OA
ENDBRANCH   5  39
BRANCH   7  42
HETATM   42  S1  UNL     1      40.870  37.902  30.998  1.00  0.00    -0.065 SA
BRANCH  42  43
HETATM   43  C10 UNL     1      41.633  37.219  29.549  1.00  0.00     0.151 C 
HETATM   44  N4  UNL     1      42.554  36.270  29.762  1.00  0.00    -0.344 N 
HETATM   45  C11 UNL     1      42.844  35.202  28.951  1.00  0.00     0.129 C 
ATOM     46  H4  UNL     1      43.099  36.351  30.620  1.00  0.00     0.167 HD
HETATM   47  C12 UNL     1      42.415  35.002  27.644  1.00  0.00     0.120 C 
HETATM   48  C13 UNL     1      41.824  35.903  26.795  1.00  0.00     0.169 C 
HETATM   49  C14 UNL     1      41.377  37.172  27.137  1.00  0.00     0.283 C 
HETATM   50  O8  UNL     1      41.080  37.910  26.186  1.00  0.00    -0.265 OA
HETATM   51  N5  UNL     1      41.225  37.709  28.379  1.00  0.00    -0.301 N 
ATOM     52  H5  UNL     1      40.736  38.604  28.420  1.00  0.00     0.171 HD
BRANCH  47  53
HETATM   53  O6  UNL     1      42.631  33.709  27.178  1.00  0.00    -0.357 OA
ATOM     54  H6  UNL     1      43.475  33.592  26.758  1.00  0.00     0.218 HD
ENDBRANCH  47  53
BRANCH  48  55
HETATM   55  O7  UNL     1      41.665  35.497  25.487  1.00  0.00    -0.354 OA
ATOM     56  H7  UNL     1      41.693  34.560  25.331  1.00  0.00     0.218 HD
ENDBRANCH  48  55
ENDBRANCH  42  43
ENDBRANCH   7  42
TORSDOF 16
ENDMDL
MODEL 4
REMARK VINA RESULT: -9.106648016      0.746      1.291
REMARK  16 active torsions:
REMARK  status: ('A' for Active; 'I' for Inactive)
REMARK    1  A    between atoms: O1_2  and  N1_3 
REMARK    2  A    between atoms: C2_5  and  C3_6 
REMARK    3  A    between atoms: C2_5  and  C18_44 
REMARK       I    between atoms: C3_6  and  N2_8 
REMARK    4  A    between atoms: N2_8  and  C4_10 
REMARK    5  A    between atoms: C6_14  and  C7_15 
REMARK    6  A    between atoms: C9_19  and  S1_20 
REMARK    7  A    between atoms: S1_20  and  C10_21 
REMARK    8  A    between atoms: C12_25  and  O6_26 
REMARK    9  A    between atoms: C13_28  and  O7_29 
REMARK   10  A    between atoms: C15_35  and  C16_36 
REMARK   11  A    between atoms: C16_36  and  O9_37 
REMARK   12  A    between atoms: N6_39  and  O10_41 
REMARK   13  A    between atoms: C19_46  and  N7_47 
REMARK   14  A    between atoms: N7_47  and  O11_48 
REMARK   15  A    between atoms: N7_47  and  O12_50 
REMARK   16  A    between atoms: C21_53  and  N8_54 
ROOT
HETATM    1  C4  UNL     1      43.357  41.665  32.778  1.00  0.00     0.201 C 
HETATM    2  C5  UNL     1      41.916  42.144  32.916  1.00  0.00     0.246 C 
HETATM    3  O3  UNL     1      41.044  42.650  32.208  1.00  0.00    -0.271 OA
HETATM    4  N3  UNL     1      42.013  41.737  34.262  1.00  0.00    -0.323 N 
HETATM    5  C6  UNL     1      41.813  41.260  35.601  1.00  0.00     0.219 C 
HETATM    6  C8  UNL     1      43.136  40.875  36.142  1.00  0.00    -0.026 C 
HETATM    7  C9  UNL     1      43.397  40.108  37.174  1.00  0.00     0.059 C 
HETATM    8  C15 UNL     1      44.151  41.545  35.247  1.00  0.00     0.119 C 
HETATM    9  C17 UNL     1      43.425  42.141  34.143  1.00  0.00     0.136 C 
ENDROOT
BRANCH   1  10
HETATM   10  N2  UNL     1      43.259  40.276  32.423  1.00  0.00    -0.340 N 
HETATM   11  C3  UNL     1      44.190  39.766  31.520  1.00  0.00     0.272 C 
HETATM   12  O2  UNL     1      45.083  40.549  31.067  1.00  0.00    -0.266 OA
ATOM     13  H2  UNL     1      42.532  39.682  32.820  1.00  0.00     0.163 HD
BRANCH  11  14
HETATM   14  C2  UNL     1      44.203  38.382  31.049  1.00  0.00     0.141 C 
HETATM   15  N1  UNL     1      45.016  37.525  31.420  1.00  0.00    -0.260 N 
ATOM     16  H1  UNL     1      44.831  36.631  30.965  1.00  0.00     0.194 HD
BRANCH  15  17
HETATM   17  O1  UNL     1      46.051  37.433  32.231  1.00  0.00    -0.285 OA
HETATM   18  C1  UNL     1      47.413  37.617  32.006  1.00  0.00     0.237 C 
ENDBRANCH  15  17
BRANCH  14  19
HETATM   19  C18 UNL     1      43.160  37.995  30.041  1.00  0.00     0.073 A 
HETATM   20  S2  UNL     1      43.526  37.518  28.408  1.00  0.00    -0.069 SA
HETATM   21  C19 UNL     1      41.965  37.128  27.892  1.00  0.00     0.109 A 
HETATM   22  C20 UNL     1      41.203  37.376  28.982  1.00  0.00     0.073 A 
HETATM   23  C21 UNL     1      41.827  37.833  30.114  1.00  0.00     0.124 A 
BRANCH  21  24
HETATM   24  N7  UNL     1      41.527  36.645  26.593  1.00  0.00    -0.029 NA
BRANCH  24  25
HETATM   25  O11 UNL     1      41.539  37.613  25.674  1.00  0.00    -0.284 OA
ATOM     26  H11 UNL     1      41.041  37.371  24.902  1.00  0.00     0.240 HD
ENDBRANCH  24  25
BRANCH  24  27
HETATM   27  O12 UNL     1      40.265  36.161  26.757  1.00  0.00    -0.284 OA
ATOM     28  H12 UNL     1      39.671  36.827  26.433  1.00  0.00     0.240 HD
ENDBRANCH  24  27
ENDBRANCH  21  24
BRANCH  23  29
HETATM   29  N8  UNL     1      41.007  38.109  31.285  1.00  0.00    -0.114 N 
HETATM   30  O13 UNL     1      40.509  39.279  31.441  1.00  0.00    -0.532 OA
HETATM   31  O14 UNL     1      40.698  37.234  32.249  1.00  0.00    -0.532 OA
ENDBRANCH  23  29
ENDBRANCH  14  19
ENDBRANCH  11  14
ENDBRANCH   1  10
BRANCH   8  32
HETATM   32  C16 UNL     1      45.316  40.710  34.978  1.00  0.00     0.145 C 
HETATM   33  N6  UNL     1      46.539  41.180  35.088  1.00  0.00    -0.250 N 
ATOM     34  H6  UNL     1      47.348  40.588  34.897  1.00  0.00     0.196 HD
BRANCH  32  35
HETATM   35  O9  UNL     1      45.295  39.373  34.585  1.00  0.00    -0.348 OA
ATOM     36  H9  UNL     1      45.349  38.620  35.161  1.00  0.00     0.219 HD
ENDBRANCH  32  35
BRANCH  33  37
HETATM   37  O10 UNL     1      46.696  42.490  35.468  1.00  0.00    -0.288 OA
ATOM     38  H10 UNL     1      47.321  42.684  36.157  1.00  0.00     0.244 HD
ENDBRANCH  33  37
ENDBRANCH   8  32
BRANCH   5  39
HETATM   39  C7  UNL     1      41.139  42.331  36.409  1.00  0.00     0.201 C 
HETATM   40  O4  UNL     1      40.107  42.883  35.907  1.00  0.00    -0.646 OA
HETATM   41  O5  UNL     1      41.586  42.726  37.642  1.00  0.00    -0.646 OA
ENDBRANCH   5  39
BRANCH   7  42
HETATM   42  S1  UNL     1      42.113  39.369  38.140  1.00  0.00    -0.065 SA
BRANCH  42  43
HETATM   43  C10 UNL     1      41.757  40.400  39.539  1.00  0.00     0.151 C 
HETATM   44  N4  UNL     1      40.580  40.189  40.141  1.00  0.00    -0.344 N 
HETATM   45  C11 UNL     1      40.292  40.343  41.474  1.00  0.00     0.129 C 
ATOM     46  H4  UNL     1      39.813  39.879  39.543  1.00  0.00     0.167 HD
HETATM   47  C12 UNL     1      41.082  40.963  42.434  1.00  0.00     0.120 C 
HETATM   48  C13 UNL     1      42.185  41.758  42.246  1.00  0.00     0.169 C 
HETATM   49  C14 UNL     1      42.841  41.967  41.041  1.00  0.00     0.283 C 
HETATM   50  O8  UNL     1      43.672  42.888  41.036  1.00  0.00    -0.265 OA
HETATM   51  N5  UNL     1      42.689  41.295  39.867  1.00  0.00    -0.301 N 
ATOM     52  H5  UNL     1      43.377  41.503  39.143  1.00  0.00     0.171 HD
BRANCH  47  53
HETATM   53  O6  UNL     1      40.667  40.720  43.740  1.00  0.00    -0.357 OA
ATOM     54  H6  UNL     1      41.032  39.927  44.114  1.00  0.00     0.218 HD
ENDBRANCH  47  53
BRANCH  48  55
HETATM   55  O7  UNL     1      42.674  42.399  43.364  1.00  0.00    -0.354 OA
ATOM     56  H7  UNL     1      42.054  42.930  43.850  1.00  0.00     0.218 HD
ENDBRANCH  48  55
ENDBRANCH  42  43
ENDBRANCH   7  42
TORSDOF 16
ENDMDL
MODEL 5
REMARK VINA RESULT: -8.990076526      2.395     10.034
REMARK  16 active torsions:
REMARK  status: ('A' for Active; 'I' for Inactive)
REMARK    1  A    between atoms: O1_2  and  N1_3 
REMARK    2  A    between atoms: C2_5  and  C3_6 
REMARK    3  A    between atoms: C2_5  and  C18_44 
REMARK       I    between atoms: C3_6  and  N2_8 
REMARK    4  A    between atoms: N2_8  and  C4_10 
REMARK    5  A    between atoms: C6_14  and  C7_15 
REMARK    6  A    between atoms: C9_19  and  S1_20 
REMARK    7  A    between atoms: S1_20  and  C10_21 
REMARK    8  A    between atoms: C12_25  and  O6_26 
REMARK    9  A    between atoms: C13_28  and  O7_29 
REMARK   10  A    between atoms: C15_35  and  C16_36 
REMARK   11  A    between atoms: C16_36  and  O9_37 
REMARK   12  A    between atoms: N6_39  and  O10_41 
REMARK   13  A    between atoms: C19_46  and  N7_47 
REMARK   14  A    between atoms: N7_47  and  O11_48 
REMARK   15  A    between atoms: N7_47  and  O12_50 
REMARK   16  A    between atoms: C21_53  and  N8_54 
ROOT
HETATM    1  C4  UNL     1      44.308  40.940  34.989  1.00  0.00     0.201 C 
HETATM    2  C5  UNL     1      45.008  39.587  35.064  1.00  0.00     0.246 C 
HETATM    3  O3  UNL     1      45.859  39.029  35.759  1.00  0.00    -0.271 OA
HETATM    4  N3  UNL     1      44.228  39.232  33.945  1.00  0.00    -0.323 N 
HETATM    5  C6  UNL     1      43.443  38.588  32.929  1.00  0.00     0.219 C 
HETATM    6  C8  UNL     1      42.662  39.637  32.235  1.00  0.00    -0.026 C 
HETATM    7  C9  UNL     1      41.600  39.489  31.480  1.00  0.00     0.059 C 
HETATM    8  C15 UNL     1      43.340  40.942  32.580  1.00  0.00     0.119 C 
HETATM    9  C17 UNL     1      44.356  40.651  33.572  1.00  0.00     0.136 C 
ENDROOT
BRANCH   1  10
HETATM   10  N2  UNL     1      43.125  40.794  35.792  1.00  0.00    -0.340 N 
HETATM   11  C3  UNL     1      43.123  41.371  37.060  1.00  0.00     0.272 C 
HETATM   12  O2  UNL     1      44.159  42.004  37.437  1.00  0.00    -0.266 OA
ATOM     13  H2  UNL     1      42.312  40.286  35.444  1.00  0.00     0.163 HD
BRANCH  11  14
HETATM   14  C2  UNL     1      42.003  41.289  37.997  1.00  0.00     0.141 C 
HETATM   15  N1  UNL     1      41.074  42.105  38.049  1.00  0.00    -0.260 N 
ATOM     16  H1  UNL     1      40.404  41.844  38.773  1.00  0.00     0.194 HD
BRANCH  15  17
HETATM   17  O1  UNL     1      40.699  43.212  37.440  1.00  0.00    -0.285 OA
HETATM   18  C1  UNL     1      40.034  43.417  36.234  1.00  0.00     0.237 C 
ENDBRANCH  15  17
BRANCH  14  19
HETATM   19  C18 UNL     1      42.003  40.137  38.959  1.00  0.00     0.073 A 
HETATM   20  S2  UNL     1      41.451  38.538  38.550  1.00  0.00    -0.069 SA
HETATM   21  C19 UNL     1      41.821  37.753  40.000  1.00  0.00     0.109 A 
HETATM   22  C20 UNL     1      42.355  38.735  40.761  1.00  0.00     0.073 A 
HETATM   23  C21 UNL     1      42.451  39.990  40.219  1.00  0.00     0.124 A 
BRANCH  21  24
HETATM   24  N7  UNL     1      41.619  36.359  40.361  1.00  0.00    -0.029 NA
BRANCH  24  25
HETATM   25  O11 UNL     1      41.252  36.226  41.637  1.00  0.00    -0.284 OA
ATOM     26  H11 UNL     1      40.596  36.867  41.883  1.00  0.00     0.240 HD
ENDBRANCH  24  25
BRANCH  24  27
HETATM   27  O12 UNL     1      42.799  35.718  40.138  1.00  0.00    -0.284 OA
ATOM     28  H12 UNL     1      42.635  35.063  39.470  1.00  0.00     0.240 HD
ENDBRANCH  24  27
ENDBRANCH  21  24
BRANCH  23  29
HETATM   29  N8  UNL     1      43.017  41.052  41.040  1.00  0.00    -0.114 N 
HETATM   30  O13 UNL     1      44.284  41.094  41.225  1.00  0.00    -0.532 OA
HETATM   31  O14 UNL     1      42.329  42.031  41.637  1.00  0.00    -0.532 OA
ENDBRANCH  23  29
ENDBRANCH  14  19
ENDBRANCH  11  14
ENDBRANCH   1  10
BRANCH   8  32
HETATM   32  C16 UNL     1      42.398  42.031  32.811  1.00  0.00     0.145 C 
HETATM   33  N6  UNL     1      42.450  43.144  32.113  1.00  0.00    -0.250 N 
ATOM     34  H6  UNL     1      41.787  43.901  32.282  1.00  0.00     0.196 HD
BRANCH  32  35
HETATM   35  O9  UNL     1      41.371  42.044  33.752  1.00  0.00    -0.348 OA
ATOM     36  H9  UNL     1      41.474  42.131  34.693  1.00  0.00     0.219 HD
ENDBRANCH  32  35
BRANCH  33  37
HETATM   37  O10 UNL     1      43.422  43.259  31.150  1.00  0.00    -0.288 OA
ATOM     38  H10 UNL     1      43.944  44.053  31.134  1.00  0.00     0.244 HD
ENDBRANCH  33  37
ENDBRANCH   8  32
BRANCH   5  39
HETATM   39  C7  UNL     1      44.356  37.830  32.009  1.00  0.00     0.201 C 
HETATM   40  O4  UNL     1      44.577  36.606  32.279  1.00  0.00    -0.646 OA
HETATM   41  O5  UNL     1      44.945  38.399  30.911  1.00  0.00    -0.646 OA
ENDBRANCH   5  39
BRANCH   7  42
HETATM   42  S1  UNL     1      40.893  37.900  31.159  1.00  0.00    -0.065 SA
BRANCH  42  43
HETATM   43  C10 UNL     1      41.581  37.237  29.665  1.00  0.00     0.151 C 
HETATM   44  N4  UNL     1      40.998  37.628  28.525  1.00  0.00    -0.344 N 
HETATM   45  C11 UNL     1      41.600  37.799  27.303  1.00  0.00     0.129 C 
ATOM     46  H4  UNL     1      39.997  37.819  28.569  1.00  0.00     0.167 HD
HETATM   47  C12 UNL     1      42.876  37.389  26.935  1.00  0.00     0.120 C 
HETATM   48  C13 UNL     1      43.719  36.530  27.594  1.00  0.00     0.169 C 
HETATM   49  C14 UNL     1      43.526  36.021  28.872  1.00  0.00     0.283 C 
HETATM   50  O8  UNL     1      44.281  35.094  29.198  1.00  0.00    -0.265 OA
HETATM   51  N5  UNL     1      42.615  36.408  29.807  1.00  0.00    -0.301 N 
ATOM     52  H5  UNL     1      42.740  36.011  30.739  1.00  0.00     0.171 HD
BRANCH  47  53
HETATM   53  O6  UNL     1      43.316  37.945  25.737  1.00  0.00    -0.357 OA
ATOM     54  H6  UNL     1      42.926  37.546  24.967  1.00  0.00     0.218 HD
ENDBRANCH  47  53
BRANCH  48  55
HETATM   55  O7  UNL     1      44.856  36.149  26.916  1.00  0.00    -0.354 OA
ATOM     56  H7  UNL     1      45.683  36.442  27.281  1.00  0.00     0.218 HD
ENDBRANCH  48  55
ENDBRANCH  42  43
ENDBRANCH   7  42
TORSDOF 16
ENDMDL
