MODEL 1
REMARK VINA RESULT: -7.965323414      0.000      0.000
REMARK  16 active torsions:
REMARK  status: ('A' for Active; 'I' for Inactive)
REMARK    1  A    between atoms: O1_2  and  C2_3 
REMARK    2  A    between atoms: C4_5  and  C5_6 
REMARK    3  A    between atoms: C5_6  and  C6_7 
REMARK    4  A    between atoms: C5_6  and  O7_27 
REMARK    5  A    between atoms: C5_6  and  C14_31 
REMARK    6  A    between atoms: C6_7  and  N1_8 
REMARK    7  A    between atoms: C9_14  and  N3_15 
REMARK    8  A    between atoms: N4_22  and  S2_23 
REMARK    9  A    between atoms: O7_27  and  C12_28 
REMARK       I    between atoms: C14_31  and  N5_33 
REMARK   10  A    between atoms: N5_33  and  C15_35 
REMARK   11  A    between atoms: C15_35  and  C16_36 
REMARK   12  A    between atoms: C16_36  and  S3_37 
REMARK   13  A    between atoms: S3_37  and  N6_40 
REMARK   14  A    between atoms: N6_40  and  N7_42 
REMARK   15  A    between atoms: C18_46  and  O12_47 
REMARK   16  A    between atoms: C20_49  and  O13_50 
ROOT
HETATM    1  C5  UNL     1      44.549  39.596  32.852  1.00  0.00     0.212 C 
ENDROOT
BRANCH   1   2
HETATM    2  C4  UNL     1      43.742  40.564  33.557  1.00  0.00    -0.003 A 
HETATM    3  C3  UNL     1      43.607  40.805  34.893  1.00  0.00     0.050 A 
HETATM    4  C2  UNL     1      42.770  41.756  35.447  1.00  0.00     0.104 A 
HETATM    5  C20 UNL     1      42.007  42.535  34.619  1.00  0.00     0.133 A 
HETATM    6  C18 UNL     1      42.089  42.354  33.258  1.00  0.00     0.104 A 
HETATM    7  C17 UNL     1      42.935  41.393  32.745  1.00  0.00     0.050 A 
BRANCH   4   8
HETATM    8  O1  UNL     1      42.702  41.922  36.847  1.00  0.00    -0.353 OA
HETATM    9  C1  UNL     1      42.643  40.788  37.681  1.00  0.00     0.210 C 
ENDBRANCH   4   8
BRANCH   5  10
HETATM   10  O13 UNL     1      41.165  43.493  35.167  1.00  0.00    -0.356 OA
ATOM     11  H13 UNL     1      40.613  44.013  34.594  1.00  0.00     0.218 HD
ENDBRANCH   5  10
BRANCH   6  12
HETATM   12  O12 UNL     1      41.314  43.151  32.438  1.00  0.00    -0.353 OA
HETATM   13  C19 UNL     1      41.700  43.720  31.224  1.00  0.00     0.210 C 
ENDBRANCH   6  12
ENDBRANCH   1   2
BRANCH   1  14
HETATM   14  C6  UNL     1      44.824  39.699  31.411  1.00  0.00     0.148 C 
BRANCH  14  15
HETATM   15  N1  UNL     1      44.586  38.762  30.390  1.00  0.00    -0.209 N 
HETATM   16  C7  UNL     1      43.338  38.675  29.892  1.00  0.00     0.295 A 
HETATM   17  O2  UNL     1      42.385  39.416  30.325  1.00  0.00    -0.264 OA
HETATM   18  C8  UNL     1      42.981  37.790  28.865  1.00  0.00     0.128 A 
HETATM   19  N2  UNL     1      41.801  37.605  28.294  1.00  0.00    -0.331 N 
HETATM   20  C10 UNL     1      44.016  37.028  28.411  1.00  0.00     0.111 A 
HETATM   21  C9  UNL     1      41.689  36.701  27.327  1.00  0.00     0.143 A 
ATOM     22  H2  UNL     1      40.990  38.146  28.592  1.00  0.00     0.168 HD
HETATM   23  S1  UNL     1      43.266  36.074  27.185  1.00  0.00    -0.046 SA
HETATM   24  C11 UNL     1      45.287  37.140  28.931  1.00  0.00     0.298 A 
HETATM   25  O3  UNL     1      46.146  36.381  28.422  1.00  0.00    -0.264 OA
HETATM   26  N4  UNL     1      45.600  38.021  29.938  1.00  0.00    -0.113 N 
BRANCH  21  27
HETATM   27  N3  UNL     1      40.599  36.388  26.653  1.00  0.00    -0.380 N 
ATOM     28  H32 UNL     1      39.986  36.987  26.099  1.00  0.00     0.158 HD
ATOM     29  H31 UNL     1      40.170  35.467  26.571  1.00  0.00     0.158 HD
ENDBRANCH  21  27
BRANCH  26  30
HETATM   30  S2  UNL     1      47.250  38.157  30.302  1.00  0.00     0.234 S 
HETATM   31  O4  UNL     1      47.532  37.440  31.663  1.00  0.00    -0.576 OA
HETATM   32  O5  UNL     1      47.556  39.612  30.700  1.00  0.00    -0.576 OA
HETATM   33  O6  UNL     1      48.407  37.693  29.294  1.00  0.00    -0.576 OA
ENDBRANCH  26  30
ENDBRANCH  14  15
ENDBRANCH   1  14
BRANCH   1  34
HETATM   34  O7  UNL     1      44.029  38.271  32.988  1.00  0.00    -0.290 OA
BRANCH  34  35
HETATM   35  C12 UNL     1      42.886  37.860  33.510  1.00  0.00     0.256 C 
HETATM   36  C13 UNL     1      42.862  37.217  34.873  1.00  0.00     0.126 C 
HETATM   37  O8  UNL     1      41.808  37.970  32.943  1.00  0.00    -0.266 OA
ENDBRANCH  34  35
ENDBRANCH   1  34
BRANCH   1  38
HETATM   38  C14 UNL     1      45.796  39.500  33.732  1.00  0.00     0.263 C 
HETATM   39  O9  UNL     1      45.953  38.517  34.470  1.00  0.00    -0.269 OA
HETATM   40  N5  UNL     1      46.799  40.502  33.741  1.00  0.00    -0.357 N 
ATOM     41  H5  UNL     1      46.673  41.308  33.128  1.00  0.00     0.162 HD
BRANCH  40  42
HETATM   42  C15 UNL     1      47.973  40.458  34.548  1.00  0.00     0.139 C 
BRANCH  42  43
HETATM   43  C16 UNL     1      49.152  40.012  33.708  1.00  0.00     0.184 C 
BRANCH  43  44
HETATM   44  S3  UNL     1      49.843  38.497  34.335  1.00  0.00     0.244 S 
HETATM   45  O10 UNL     1      51.017  38.751  35.229  1.00  0.00    -0.204 OA
HETATM   46  O11 UNL     1      50.343  37.651  33.176  1.00  0.00    -0.204 OA
BRANCH  44  47
HETATM   47  N6  UNL     1      48.655  37.647  35.254  1.00  0.00    -0.234 N 
ATOM     48  H6  UNL     1      48.337  37.880  36.195  1.00  0.00     0.199 HD
BRANCH  47  49
HETATM   49  N7  UNL     1      48.204  36.564  34.460  1.00  0.00    -0.336 N 
ATOM     50  H72 UNL     1      47.230  36.295  34.322  1.00  0.00     0.177 HD
ATOM     51  H71 UNL     1      49.029  36.116  34.061  1.00  0.00     0.177 HD
ENDBRANCH  47  49
ENDBRANCH  44  47
ENDBRANCH  43  44
ENDBRANCH  42  43
ENDBRANCH  40  42
ENDBRANCH   1  38
TORSDOF 16
ENDMDL
MODEL 2
REMARK VINA RESULT: -7.669773643      3.636      7.023
REMARK  16 active torsions:
REMARK  status: ('A' for Active; 'I' for Inactive)
REMARK    1  A    between atoms: O1_2  and  C2_3 
REMARK    2  A    between atoms: C4_5  and  C5_6 
REMARK    3  A    between atoms: C5_6  and  C6_7 
REMARK    4  A    between atoms: C5_6  and  O7_27 
REMARK    5  A    between atoms: C5_6  and  C14_31 
REMARK    6  A    between atoms: C6_7  and  N1_8 
REMARK    7  A    between atoms: C9_14  and  N3_15 
REMARK    8  A    between atoms: N4_22  and  S2_23 
REMARK    9  A    between atoms: O7_27  and  C12_28 
REMARK       I    between atoms: C14_31  and  N5_33 
REMARK   10  A    between atoms: N5_33  and  C15_35 
REMARK   11  A    between atoms: C15_35  and  C16_36 
REMARK   12  A    between atoms: C16_36  and  S3_37 
REMARK   13  A    between atoms: S3_37  and  N6_40 
REMARK   14  A    between atoms: N6_40  and  N7_42 
REMARK   15  A    between atoms: C18_46  and  O12_47 
REMARK   16  A    between atoms: C20_49  and  O13_50 
ROOT
HETATM    1  C5  UNL     1      44.976  40.312  34.241  1.00  0.00     0.212 C 
ENDROOT
BRANCH   1   2
HETATM    2  C4  UNL     1      43.766  40.290  33.454  1.00  0.00    -0.003 A 
HETATM    3  C3  UNL     1      42.995  41.310  32.980  1.00  0.00     0.050 A 
HETATM    4  C2  UNL     1      41.830  41.153  32.252  1.00  0.00     0.104 A 
HETATM    5  C20 UNL     1      41.391  39.888  31.963  1.00  0.00     0.133 A 
HETATM    6  C18 UNL     1      42.116  38.805  32.404  1.00  0.00     0.104 A 
HETATM    7  C17 UNL     1      43.271  39.006  33.130  1.00  0.00     0.050 A 
BRANCH   4   8
HETATM    8  O1  UNL     1      41.102  42.278  31.812  1.00  0.00    -0.353 OA
HETATM    9  C1  UNL     1      41.790  43.435  31.396  1.00  0.00     0.210 C 
ENDBRANCH   4   8
BRANCH   5  10
HETATM   10  O13 UNL     1      40.223  39.720  31.231  1.00  0.00    -0.356 OA
ATOM     11  H13 UNL     1      40.195  39.071  30.538  1.00  0.00     0.218 HD
ENDBRANCH   5  10
BRANCH   6  12
HETATM   12  O12 UNL     1      41.660  37.537  32.102  1.00  0.00    -0.353 OA
HETATM   13  C19 UNL     1      42.063  36.742  31.029  1.00  0.00     0.210 C 
ENDBRANCH   6  12
ENDBRANCH   1   2
BRANCH   1  14
HETATM   14  C6  UNL     1      44.990  39.981  35.674  1.00  0.00     0.148 C 
BRANCH  14  15
HETATM   15  N1  UNL     1      43.929  39.976  36.597  1.00  0.00    -0.209 N 
HETATM   16  C7  UNL     1      43.350  41.153  36.901  1.00  0.00     0.295 A 
HETATM   17  O2  UNL     1      43.744  42.255  36.374  1.00  0.00    -0.264 OA
HETATM   18  C8  UNL     1      42.278  41.273  37.796  1.00  0.00     0.128 A 
HETATM   19  N2  UNL     1      41.628  42.361  38.180  1.00  0.00    -0.331 N 
HETATM   20  C10 UNL     1      41.869  40.086  38.327  1.00  0.00     0.111 A 
HETATM   21  C9  UNL     1      40.630  42.240  39.048  1.00  0.00     0.143 A 
ATOM     22  H2  UNL     1      41.889  43.276  37.816  1.00  0.00     0.168 HD
HETATM   23  S1  UNL     1      40.571  40.566  39.357  1.00  0.00    -0.046 SA
HETATM   24  C11 UNL     1      42.472  38.893  37.995  1.00  0.00     0.298 A 
HETATM   25  O3  UNL     1      41.997  37.875  38.555  1.00  0.00    -0.264 OA
HETATM   26  N4  UNL     1      43.522  38.813  37.112  1.00  0.00    -0.113 N 
BRANCH  21  27
HETATM   27  N3  UNL     1      39.879  43.209  39.536  1.00  0.00    -0.380 N 
ATOM     28  H32 UNL     1      40.115  43.930  40.219  1.00  0.00     0.158 HD
ATOM     29  H31 UNL     1      38.906  43.408  39.306  1.00  0.00     0.158 HD
ENDBRANCH  21  27
BRANCH  26  30
HETATM   30  S2  UNL     1      43.994  37.244  36.678  1.00  0.00     0.234 S 
HETATM   31  O4  UNL     1      42.950  36.659  35.670  1.00  0.00    -0.576 OA
HETATM   32  O5  UNL     1      43.766  36.304  37.874  1.00  0.00    -0.576 OA
HETATM   33  O6  UNL     1      45.443  36.904  36.082  1.00  0.00    -0.576 OA
ENDBRANCH  26  30
ENDBRANCH  14  15
ENDBRANCH   1  14
BRANCH   1  34
HETATM   34  O7  UNL     1      45.615  41.591  34.198  1.00  0.00    -0.290 OA
BRANCH  34  35
HETATM   35  C12 UNL     1      46.740  41.995  34.765  1.00  0.00     0.256 C 
HETATM   36  C13 UNL     1      46.745  43.205  35.664  1.00  0.00     0.126 C 
HETATM   37  O8  UNL     1      47.815  41.433  34.604  1.00  0.00    -0.266 OA
ENDBRANCH  34  35
ENDBRANCH   1  34
BRANCH   1  38
HETATM   38  C14 UNL     1      45.942  39.488  33.389  1.00  0.00     0.263 C 
HETATM   39  O9  UNL     1      46.101  39.771  32.193  1.00  0.00    -0.269 OA
HETATM   40  N5  UNL     1      46.675  38.395  33.915  1.00  0.00    -0.357 N 
ATOM     41  H5  UNL     1      46.548  38.165  34.901  1.00  0.00     0.162 HD
BRANCH  40  42
HETATM   42  C15 UNL     1      47.580  37.595  33.157  1.00  0.00     0.139 C 
BRANCH  42  43
HETATM   43  C16 UNL     1      47.256  36.129  33.362  1.00  0.00     0.184 C 
BRANCH  43  44
HETATM   44  S3  UNL     1      45.830  35.654  32.410  1.00  0.00     0.244 S 
HETATM   45  O10 UNL     1      46.022  34.326  31.746  1.00  0.00    -0.204 OA
HETATM   46  O11 UNL     1      45.597  36.673  31.306  1.00  0.00    -0.204 OA
BRANCH  44  47
HETATM   47  N6  UNL     1      44.450  35.534  33.441  1.00  0.00    -0.234 N 
ATOM     48  H6  UNL     1      43.620  36.126  33.411  1.00  0.00     0.199 HD
BRANCH  47  49
HETATM   49  N7  UNL     1      44.685  34.461  34.335  1.00  0.00    -0.336 N 
ATOM     50  H72 UNL     1      44.517  33.475  34.135  1.00  0.00     0.177 HD
ATOM     51  H71 UNL     1      45.047  34.862  35.200  1.00  0.00     0.177 HD
ENDBRANCH  47  49
ENDBRANCH  44  47
ENDBRANCH  43  44
ENDBRANCH  42  43
ENDBRANCH  40  42
ENDBRANCH   1  38
TORSDOF 16
ENDMDL
MODEL 3
REMARK VINA RESULT: -7.606337233      3.423      6.747
REMARK  16 active torsions:
REMARK  status: ('A' for Active; 'I' for Inactive)
REMARK    1  A    between atoms: O1_2  and  C2_3 
REMARK    2  A    between atoms: C4_5  and  C5_6 
REMARK    3  A    between atoms: C5_6  and  C6_7 
REMARK    4  A    between atoms: C5_6  and  O7_27 
REMARK    5  A    between atoms: C5_6  and  C14_31 
REMARK    6  A    between atoms: C6_7  and  N1_8 
REMARK    7  A    between atoms: C9_14  and  N3_15 
REMARK    8  A    between atoms: N4_22  and  S2_23 
REMARK    9  A    between atoms: O7_27  and  C12_28 
REMARK       I    between atoms: C14_31  and  N5_33 
REMARK   10  A    between atoms: N5_33  and  C15_35 
REMARK   11  A    between atoms: C15_35  and  C16_36 
REMARK   12  A    between atoms: C16_36  and  S3_37 
REMARK   13  A    between atoms: S3_37  and  N6_40 
REMARK   14  A    between atoms: N6_40  and  N7_42 
REMARK   15  A    between atoms: C18_46  and  O12_47 
REMARK   16  A    between atoms: C20_49  and  O13_50 
ROOT
HETATM    1  C5  UNL     1      44.956  39.891  34.230  1.00  0.00     0.212 C 
ENDROOT
BRANCH   1   2
HETATM    2  C4  UNL     1      43.741  39.969  33.454  1.00  0.00    -0.003 A 
HETATM    3  C3  UNL     1      43.015  41.049  33.045  1.00  0.00     0.050 A 
HETATM    4  C2  UNL     1      41.839  40.986  32.319  1.00  0.00     0.104 A 
HETATM    5  C20 UNL     1      41.339  39.761  31.966  1.00  0.00     0.133 A 
HETATM    6  C18 UNL     1      42.016  38.624  32.340  1.00  0.00     0.104 A 
HETATM    7  C17 UNL     1      43.184  38.729  33.065  1.00  0.00     0.050 A 
BRANCH   4   8
HETATM    8  O1  UNL     1      41.162  42.168  31.949  1.00  0.00    -0.353 OA
HETATM    9  C1  UNL     1      41.896  43.273  31.476  1.00  0.00     0.210 C 
ENDBRANCH   4   8
BRANCH   5  10
HETATM   10  O13 UNL     1      40.160  39.689  31.237  1.00  0.00    -0.356 OA
ATOM     11  H13 UNL     1      39.361  39.410  31.667  1.00  0.00     0.218 HD
ENDBRANCH   5  10
BRANCH   6  12
HETATM   12  O12 UNL     1      41.498  37.397  31.972  1.00  0.00    -0.353 OA
HETATM   13  C19 UNL     1      42.049  36.504  31.053  1.00  0.00     0.210 C 
ENDBRANCH   6  12
ENDBRANCH   1   2
BRANCH   1  14
HETATM   14  C6  UNL     1      44.949  39.706  35.689  1.00  0.00     0.148 C 
BRANCH  14  15
HETATM   15  N1  UNL     1      43.872  39.782  36.591  1.00  0.00    -0.209 N 
HETATM   16  C7  UNL     1      43.370  40.999  36.873  1.00  0.00     0.295 A 
HETATM   17  O2  UNL     1      43.848  42.066  36.344  1.00  0.00    -0.264 OA
HETATM   18  C8  UNL     1      42.291  41.202  37.745  1.00  0.00     0.128 A 
HETATM   19  N2  UNL     1      41.710  42.335  38.107  1.00  0.00    -0.331 N 
HETATM   20  C10 UNL     1      41.792  40.050  38.279  1.00  0.00     0.111 A 
HETATM   21  C9  UNL     1      40.690  42.291  38.957  1.00  0.00     0.143 A 
ATOM     22  H2  UNL     1      42.040  43.227  37.740  1.00  0.00     0.168 HD
HETATM   23  S1  UNL     1      40.511  40.628  39.279  1.00  0.00    -0.046 SA
HETATM   24  C11 UNL     1      42.318  38.815  37.969  1.00  0.00     0.298 A 
HETATM   25  O3  UNL     1      41.764  37.838  38.529  1.00  0.00    -0.264 OA
HETATM   26  N4  UNL     1      43.377  38.656  37.108  1.00  0.00    -0.113 N 
BRANCH  21  27
HETATM   27  N3  UNL     1      39.998  43.314  39.421  1.00  0.00    -0.380 N 
ATOM     28  H32 UNL     1      39.684  44.156  38.939  1.00  0.00     0.158 HD
ATOM     29  H31 UNL     1      39.651  43.441  40.372  1.00  0.00     0.158 HD
ENDBRANCH  21  27
BRANCH  26  30
HETATM   30  S2  UNL     1      43.749  37.054  36.697  1.00  0.00     0.234 S 
HETATM   31  O4  UNL     1      43.548  36.146  37.955  1.00  0.00    -0.576 OA
HETATM   32  O5  UNL     1      45.271  36.925  36.515  1.00  0.00    -0.576 OA
HETATM   33  O6  UNL     1      43.062  36.288  35.467  1.00  0.00    -0.576 OA
ENDBRANCH  26  30
ENDBRANCH  14  15
ENDBRANCH   1  14
BRANCH   1  34
HETATM   34  O7  UNL     1      45.774  41.052  34.055  1.00  0.00    -0.290 OA
BRANCH  34  35
HETATM   35  C12 UNL     1      46.895  41.397  34.666  1.00  0.00     0.256 C 
HETATM   36  C13 UNL     1      46.975  42.693  35.431  1.00  0.00     0.126 C 
HETATM   37  O8  UNL     1      47.908  40.711  34.652  1.00  0.00    -0.266 OA
ENDBRANCH  34  35
ENDBRANCH   1  34
BRANCH   1  38
HETATM   38  C14 UNL     1      45.774  38.853  33.462  1.00  0.00     0.263 C 
HETATM   39  O9  UNL     1      45.706  37.658  33.781  1.00  0.00    -0.269 OA
HETATM   40  N5  UNL     1      46.623  39.203  32.382  1.00  0.00    -0.357 N 
ATOM     41  H5  UNL     1      46.675  40.187  32.116  1.00  0.00     0.162 HD
BRANCH  40  42
HETATM   42  C15 UNL     1      47.409  38.272  31.642  1.00  0.00     0.139 C 
BRANCH  42  43
HETATM   43  C16 UNL     1      48.872  38.447  31.995  1.00  0.00     0.184 C 
BRANCH  43  44
HETATM   44  S3  UNL     1      49.380  37.252  33.211  1.00  0.00     0.244 S 
HETATM   45  O10 UNL     1      50.761  36.740  32.943  1.00  0.00    -0.204 OA
HETATM   46  O11 UNL     1      48.446  36.054  33.164  1.00  0.00    -0.204 OA
BRANCH  44  47
HETATM   47  N6  UNL     1      49.381  37.974  34.779  1.00  0.00    -0.234 N 
ATOM     48  H6  UNL     1      50.091  38.601  35.156  1.00  0.00     0.199 HD
BRANCH  47  49
HETATM   49  N7  UNL     1      48.211  37.533  35.446  1.00  0.00    -0.336 N 
ATOM     50  H72 UNL     1      48.165  36.769  36.120  1.00  0.00     0.177 HD
ATOM     51  H71 UNL     1      47.440  38.119  35.125  1.00  0.00     0.177 HD
ENDBRANCH  47  49
ENDBRANCH  44  47
ENDBRANCH  43  44
ENDBRANCH  42  43
ENDBRANCH  40  42
ENDBRANCH   1  38
TORSDOF 16
ENDMDL
MODEL 4
REMARK VINA RESULT: -7.598846308      2.362      6.626
REMARK  16 active torsions:
REMARK  status: ('A' for Active; 'I' for Inactive)
REMARK    1  A    between atoms: O1_2  and  C2_3 
REMARK    2  A    between atoms: C4_5  and  C5_6 
REMARK    3  A    between atoms: C5_6  and  C6_7 
REMARK    4  A    between atoms: C5_6  and  O7_27 
REMARK    5  A    between atoms: C5_6  and  C14_31 
REMARK    6  A    between atoms: C6_7  and  N1_8 
REMARK    7  A    between atoms: C9_14  and  N3_15 
REMARK    8  A    between atoms: N4_22  and  S2_23 
REMARK    9  A    between atoms: O7_27  and  C12_28 
REMARK       I    between atoms: C14_31  and  N5_33 
REMARK   10  A    between atoms: N5_33  and  C15_35 
REMARK   11  A    between atoms: C15_35  and  C16_36 
REMARK   12  A    between atoms: C16_36  and  S3_37 
REMARK   13  A    between atoms: S3_37  and  N6_40 
REMARK   14  A    between atoms: N6_40  and  N7_42 
REMARK   15  A    between atoms: C18_46  and  O12_47 
REMARK   16  A    between atoms: C20_49  and  O13_50 
ROOT
HETATM    1  C5  UNL     1      43.165  39.981  33.929  1.00  0.00     0.212 C 
ENDROOT
BRANCH   1   2
HETATM    2  C4  UNL     1      43.031  39.758  35.350  1.00  0.00    -0.003 A 
HETATM    3  C3  UNL     1      43.591  38.812  36.157  1.00  0.00     0.050 A 
HETATM    4  C2  UNL     1      43.357  38.689  37.515  1.00  0.00     0.104 A 
HETATM    5  C20 UNL     1      42.506  39.570  38.127  1.00  0.00     0.133 A 
HETATM    6  C18 UNL     1      41.904  40.555  37.380  1.00  0.00     0.104 A 
HETATM    7  C17 UNL     1      42.161  40.643  36.028  1.00  0.00     0.050 A 
BRANCH   4   8
HETATM    8  O1  UNL     1      43.986  37.669  38.260  1.00  0.00    -0.353 OA
HETATM    9  C1  UNL     1      43.761  36.320  37.923  1.00  0.00     0.210 C 
ENDBRANCH   4   8
BRANCH   5  10
HETATM   10  O13 UNL     1      42.267  39.455  39.490  1.00  0.00    -0.356 OA
ATOM     11  H13 UNL     1      42.398  38.617  39.918  1.00  0.00     0.218 HD
ENDBRANCH   5  10
BRANCH   6  12
HETATM   12  O12 UNL     1      41.050  41.437  38.014  1.00  0.00    -0.353 OA
HETATM   13  C19 UNL     1      40.415  42.538  37.440  1.00  0.00     0.210 C 
ENDBRANCH   6  12
ENDBRANCH   1   2
BRANCH   1  14
HETATM   14  C6  UNL     1      44.410  40.475  33.323  1.00  0.00     0.148 C 
BRANCH  14  15
HETATM   15  N1  UNL     1      45.734  40.352  33.783  1.00  0.00    -0.209 N 
HETATM   16  C7  UNL     1      46.492  39.365  33.268  1.00  0.00     0.295 A 
HETATM   17  O2  UNL     1      46.035  38.553  32.386  1.00  0.00    -0.264 OA
HETATM   18  C8  UNL     1      47.827  39.151  33.637  1.00  0.00     0.128 A 
HETATM   19  N2  UNL     1      48.672  38.223  33.214  1.00  0.00    -0.331 N 
HETATM   20  C10 UNL     1      48.292  40.039  34.562  1.00  0.00     0.111 A 
HETATM   21  C9  UNL     1      49.906  38.207  33.705  1.00  0.00     0.143 A 
ATOM     22  H2  UNL     1      48.381  37.533  32.523  1.00  0.00     0.168 HD
HETATM   23  S1  UNL     1      49.919  39.516  34.794  1.00  0.00    -0.046 SA
HETATM   24  C11 UNL     1      47.499  41.045  35.068  1.00  0.00     0.298 A 
HETATM   25  O3  UNL     1      48.052  41.793  35.911  1.00  0.00    -0.264 OA
HETATM   26  N4  UNL     1      46.194  41.225  34.682  1.00  0.00    -0.113 N 
BRANCH  21  27
HETATM   27  N3  UNL     1      50.872  37.361  33.399  1.00  0.00    -0.380 N 
ATOM     28  H32 UNL     1      50.982  36.381  33.659  1.00  0.00     0.158 HD
ATOM     29  H31 UNL     1      51.699  37.551  32.833  1.00  0.00     0.158 HD
ENDBRANCH  21  27
BRANCH  26  30
HETATM   30  S2  UNL     1      45.448  42.634  35.260  1.00  0.00     0.234 S 
HETATM   31  O4  UNL     1      46.547  43.712  35.541  1.00  0.00    -0.576 OA
HETATM   32  O5  UNL     1      44.948  42.383  36.693  1.00  0.00    -0.576 OA
HETATM   33  O6  UNL     1      44.267  43.381  34.473  1.00  0.00    -0.576 OA
ENDBRANCH  26  30
ENDBRANCH  14  15
ENDBRANCH   1  14
BRANCH   1  34
HETATM   34  O7  UNL     1      42.181  40.898  33.440  1.00  0.00    -0.290 OA
BRANCH  34  35
HETATM   35  C12 UNL     1      41.961  41.325  32.208  1.00  0.00     0.256 C 
HETATM   36  C13 UNL     1      41.944  42.802  31.909  1.00  0.00     0.126 C 
HETATM   37  O8  UNL     1      41.764  40.577  31.261  1.00  0.00    -0.266 OA
ENDBRANCH  34  35
ENDBRANCH   1  34
BRANCH   1  38
HETATM   38  C14 UNL     1      42.645  38.671  33.337  1.00  0.00     0.263 C 
HETATM   39  O9  UNL     1      41.604  38.166  33.780  1.00  0.00    -0.269 OA
HETATM   40  N5  UNL     1      43.313  37.995  32.285  1.00  0.00    -0.357 N 
ATOM     41  H5  UNL     1      44.168  38.414  31.917  1.00  0.00     0.162 HD
BRANCH  40  42
HETATM   42  C15 UNL     1      42.870  36.770  31.707  1.00  0.00     0.139 C 
BRANCH  42  43
HETATM   43  C16 UNL     1      43.613  36.521  30.411  1.00  0.00     0.184 C 
BRANCH  43  44
HETATM   44  S3  UNL     1      43.478  37.921  29.322  1.00  0.00     0.244 S 
HETATM   45  O10 UNL     1      43.979  37.605  27.946  1.00  0.00    -0.204 OA
HETATM   46  O11 UNL     1      44.332  39.061  29.854  1.00  0.00    -0.204 OA
BRANCH  44  47
HETATM   47  N6  UNL     1      41.825  38.399  29.184  1.00  0.00    -0.234 N 
ATOM     48  H6  UNL     1      41.339  39.074  29.776  1.00  0.00     0.199 HD
BRANCH  47  49
HETATM   49  N7  UNL     1      41.268  37.682  28.098  1.00  0.00    -0.336 N 
ATOM     50  H72 UNL     1      40.317  37.315  28.054  1.00  0.00     0.177 HD
ATOM     51  H71 UNL     1      41.991  37.606  27.382  1.00  0.00     0.177 HD
ENDBRANCH  47  49
ENDBRANCH  44  47
ENDBRANCH  43  44
ENDBRANCH  42  43
ENDBRANCH  40  42
ENDBRANCH   1  38
TORSDOF 16
ENDMDL
MODEL 5
REMARK VINA RESULT: -7.530821842      3.467      6.650
REMARK  16 active torsions:
REMARK  status: ('A' for Active; 'I' for Inactive)
REMARK    1  A    between atoms: O1_2  and  C2_3 
REMARK    2  A    between atoms: C4_5  and  C5_6 
REMARK    3  A    between atoms: C5_6  and  C6_7 
REMARK    4  A    between atoms: C5_6  and  O7_27 
REMARK    5  A    between atoms: C5_6  and  C14_31 
REMARK    6  A    between atoms: C6_7  and  N1_8 
REMARK    7  A    between atoms: C9_14  and  N3_15 
REMARK    8  A    between atoms: N4_22  and  S2_23 
REMARK    9  A    between atoms: O7_27  and  C12_28 
REMARK       I    between atoms: C14_31  and  N5_33 
REMARK   10  A    between atoms: N5_33  and  C15_35 
REMARK   11  A    between atoms: C15_35  and  C16_36 
REMARK   12  A    between atoms: C16_36  and  S3_37 
REMARK   13  A    between atoms: S3_37  and  N6_40 
REMARK   14  A    between atoms: N6_40  and  N7_42 
REMARK   15  A    between atoms: C18_46  and  O12_47 
REMARK   16  A    between atoms: C20_49  and  O13_50 
ROOT
HETATM    1  C5  UNL     1      44.808  39.728  34.185  1.00  0.00     0.212 C 
ENDROOT
BRANCH   1   2
HETATM    2  C4  UNL     1      43.584  39.567  33.435  1.00  0.00    -0.003 A 
HETATM    3  C3  UNL     1      42.973  38.444  32.961  1.00  0.00     0.050 A 
HETATM    4  C2  UNL     1      41.802  38.428  32.226  1.00  0.00     0.104 A 
HETATM    5  C20 UNL     1      41.181  39.614  31.936  1.00  0.00     0.133 A 
HETATM    6  C18 UNL     1      41.735  40.792  32.382  1.00  0.00     0.104 A 
HETATM    7  C17 UNL     1      42.905  40.764  33.111  1.00  0.00     0.050 A 
BRANCH   4   8
HETATM    8  O1  UNL     1      41.254  37.208  31.777  1.00  0.00    -0.353 OA
HETATM    9  C1  UNL     1      42.108  36.193  31.302  1.00  0.00     0.210 C 
ENDBRANCH   4   8
BRANCH   5  10
HETATM   10  O13 UNL     1      40.005  39.608  31.199  1.00  0.00    -0.356 OA
ATOM     11  H13 UNL     1      40.029  39.839  30.278  1.00  0.00     0.218 HD
ENDBRANCH   5  10
BRANCH   6  12
HETATM   12  O12 UNL     1      41.094  41.978  32.083  1.00  0.00    -0.353 OA
HETATM   13  C19 UNL     1      41.658  43.096  31.468  1.00  0.00     0.210 C 
ENDBRANCH   6  12
ENDBRANCH   1   2
BRANCH   1  14
HETATM   14  C6  UNL     1      44.850  39.650  35.653  1.00  0.00     0.148 C 
BRANCH  14  15
HETATM   15  N1  UNL     1      43.793  39.718  36.579  1.00  0.00    -0.209 N 
HETATM   16  C7  UNL     1      43.269  40.928  36.851  1.00  0.00     0.295 A 
HETATM   17  O2  UNL     1      43.710  41.996  36.291  1.00  0.00    -0.264 OA
HETATM   18  C8  UNL     1      42.207  41.122  37.744  1.00  0.00     0.128 A 
HETATM   19  N2  UNL     1      41.609  42.249  38.099  1.00  0.00    -0.331 N 
HETATM   20  C10 UNL     1      41.747  39.970  38.310  1.00  0.00     0.111 A 
HETATM   21  C9  UNL     1      40.610  42.198  38.973  1.00  0.00     0.143 A 
ATOM     22  H2  UNL     1      41.910  43.141  37.709  1.00  0.00     0.168 HD
HETATM   23  S1  UNL     1      40.476  40.538  39.329  1.00  0.00    -0.046 SA
HETATM   24  C11 UNL     1      42.294  38.742  38.010  1.00  0.00     0.298 A 
HETATM   25  O3  UNL     1      41.775  37.763  38.600  1.00  0.00    -0.264 OA
HETATM   26  N4  UNL     1      43.335  38.590  37.127  1.00  0.00    -0.113 N 
BRANCH  21  27
HETATM   27  N3  UNL     1      39.906  43.214  39.435  1.00  0.00    -0.380 N 
ATOM     28  H32 UNL     1      39.260  43.832  38.944  1.00  0.00     0.158 HD
ATOM     29  H31 UNL     1      39.888  43.564  40.393  1.00  0.00     0.158 HD
ENDBRANCH  21  27
BRANCH  26  30
HETATM   30  S2  UNL     1      43.735  36.990  36.736  1.00  0.00     0.234 S 
HETATM   31  O4  UNL     1      43.541  36.093  38.003  1.00  0.00    -0.576 OA
HETATM   32  O5  UNL     1      45.260  36.883  36.563  1.00  0.00    -0.576 OA
HETATM   33  O6  UNL     1      43.066  36.199  35.511  1.00  0.00    -0.576 OA
ENDBRANCH  26  30
ENDBRANCH  14  15
ENDBRANCH   1  14
BRANCH   1  34
HETATM   34  O7  UNL     1      45.439  40.982  33.910  1.00  0.00    -0.290 OA
BRANCH  34  35
HETATM   35  C12 UNL     1      46.524  41.519  34.443  1.00  0.00     0.256 C 
HETATM   36  C13 UNL     1      46.425  42.793  35.242  1.00  0.00     0.126 C 
HETATM   37  O8  UNL     1      47.641  41.034  34.330  1.00  0.00    -0.266 OA
ENDBRANCH  34  35
ENDBRANCH   1  34
BRANCH   1  38
HETATM   38  C14 UNL     1      45.763  38.771  33.470  1.00  0.00     0.263 C 
HETATM   39  O9  UNL     1      45.971  37.644  33.942  1.00  0.00    -0.269 OA
HETATM   40  N5  UNL     1      46.432  39.121  32.270  1.00  0.00    -0.357 N 
ATOM     41  H5  UNL     1      46.256  40.047  31.879  1.00  0.00     0.162 HD
BRANCH  40  42
HETATM   42  C15 UNL     1      47.335  38.265  31.574  1.00  0.00     0.139 C 
BRANCH  42  43
HETATM   43  C16 UNL     1      48.761  38.672  31.882  1.00  0.00     0.184 C 
BRANCH  43  44
HETATM   44  S3  UNL     1      49.432  37.687  33.203  1.00  0.00     0.244 S 
HETATM   45  O10 UNL     1      50.925  37.599  33.127  1.00  0.00    -0.204 OA
HETATM   46  O11 UNL     1      48.898  36.268  33.097  1.00  0.00    -0.204 OA
BRANCH  44  47
HETATM   47  N6  UNL     1      49.022  38.389  34.725  1.00  0.00    -0.234 N 
ATOM     48  H6  UNL     1      49.242  39.337  35.033  1.00  0.00     0.199 HD
BRANCH  47  49
HETATM   49  N7  UNL     1      48.323  37.407  35.467  1.00  0.00    -0.336 N 
ATOM     50  H72 UNL     1      48.718  36.533  35.814  1.00  0.00     0.177 HD
ATOM     51  H71 UNL     1      47.365  37.739  35.584  1.00  0.00     0.177 HD
ENDBRANCH  47  49
ENDBRANCH  44  47
ENDBRANCH  43  44
ENDBRANCH  42  43
ENDBRANCH  40  42
ENDBRANCH   1  38
TORSDOF 16
ENDMDL
