MODEL 1
REMARK VINA RESULT: -8.028249260      0.000      0.000
REMARK  14 active torsions:
REMARK  status: ('A' for Active; 'I' for Inactive)
REMARK    1  A    between atoms: C2_2  and  O2_4 
REMARK    2  A    between atoms: O2_4  and  C3_5 
REMARK    3  A    between atoms: C4_6  and  S1_7 
REMARK    4  A    between atoms: C5_10  and  O4_11 
REMARK    5  A    between atoms: O4_11  and  C6_12 
REMARK    6  A    between atoms: C7_13  and  O5_14 
REMARK    7  A    between atoms: C9_17  and  C10_18 
REMARK    8  A    between atoms: C11_21  and  O8_22 
REMARK    9  A    between atoms: O8_22  and  S3_23 
REMARK   10  A    between atoms: C12_27  and  O12_28 
REMARK   11  A    between atoms: O12_28  and  S4_29 
REMARK   12  A    between atoms: C13_33  and  O16_34 
REMARK   13  A    between atoms: C14_36  and  O17_37 
REMARK   14  A    between atoms: O17_37  and  S5_38 
ROOT
HETATM    1  C6  UNL     1      43.538  40.039  35.032  1.00  0.00     0.186 C 
HETATM    2  C7  UNL     1      43.602  39.252  33.760  1.00  0.00     0.150 C 
HETATM    3  C8  UNL     1      45.010  38.987  33.358  1.00  0.00     0.052 C 
HETATM    4  C9  UNL     1      45.951  40.125  33.482  1.00  0.00     0.122 C 
HETATM    5  C11 UNL     1      45.702  41.033  34.648  1.00  0.00     0.192 C 
HETATM    6  C12 UNL     1      44.209  41.388  34.735  1.00  0.00     0.208 C 
ENDROOT
BRANCH   1   7
HETATM    7  O4  UNL     1      42.298  40.175  35.576  1.00  0.00    -0.348 OA
BRANCH   7   8
HETATM    8  C5  UNL     1      42.167  39.721  36.879  1.00  0.00     0.293 C 
HETATM    9  O3  UNL     1      43.306  39.135  37.332  1.00  0.00    -0.340 OA
HETATM   10  C4  UNL     1      43.328  38.596  38.581  1.00  0.00     0.230 C 
HETATM   11  C3  UNL     1      42.202  39.155  39.400  1.00  0.00     0.204 C 
HETATM   12  C14 UNL     1      42.187  40.663  39.192  1.00  0.00     0.211 C 
HETATM   13  C13 UNL     1      41.957  40.984  37.726  1.00  0.00     0.206 C 
BRANCH  10  14
HETATM   14  S1  UNL     1      43.082  36.778  38.494  1.00  0.00    -0.050 SA
HETATM   15  S2  UNL     1      43.745  36.072  36.600  1.00  0.00    -0.011 SA
ENDBRANCH  10  14
BRANCH  11  16
HETATM   16  O2  UNL     1      42.330  38.845  40.777  1.00  0.00    -0.310 OA
BRANCH  16  17
HETATM   17  C2  UNL     1      41.298  38.244  41.494  1.00  0.00     0.255 C 
HETATM   18  C1  UNL     1      40.321  39.021  42.294  1.00  0.00     0.126 C 
HETATM   19  O1  UNL     1      41.231  36.989  41.430  1.00  0.00    -0.266 OA
ENDBRANCH  16  17
ENDBRANCH  11  16
BRANCH  12  20
HETATM   20  O17 UNL     1      41.252  41.301  39.976  1.00  0.00    -0.246 OA
BRANCH  20  21
HETATM   21  S5  UNL     1      41.923  42.656  40.721  1.00  0.00     0.252 S 
HETATM   22  O18 UNL     1      41.177  42.950  41.999  1.00  0.00    -0.572 OA
HETATM   23  O19 UNL     1      43.368  42.462  41.047  1.00  0.00    -0.572 OA
HETATM   24  O20 UNL     1      41.815  43.947  39.641  1.00  0.00    -0.572 OA
ENDBRANCH  20  21
ENDBRANCH  12  20
BRANCH  13  25
HETATM   25  O16 UNL     1      42.694  42.052  37.271  1.00  0.00    -0.388 OA
ATOM     26  H16 UNL     1      42.232  42.877  37.358  1.00  0.00     0.210 HD
ENDBRANCH  13  25
ENDBRANCH   7   8
ENDBRANCH   1   7
BRANCH   2  27
HETATM   27  O5  UNL     1      42.965  38.014  33.844  1.00  0.00    -0.393 OA
ATOM     28  H5  UNL     1      43.223  37.509  34.606  1.00  0.00     0.210 HD
ENDBRANCH   2  27
BRANCH   6  29
HETATM   29  O12 UNL     1      43.834  41.793  33.471  1.00  0.00    -0.246 OA
BRANCH  29  30
HETATM   30  S4  UNL     1      42.578  42.884  33.453  1.00  0.00     0.252 S 
HETATM   31  O13 UNL     1      42.683  43.883  32.344  1.00  0.00    -0.572 OA
HETATM   32  O14 UNL     1      42.426  43.630  34.729  1.00  0.00    -0.572 OA
HETATM   33  O15 UNL     1      41.151  42.016  33.208  1.00  0.00    -0.572 OA
ENDBRANCH  29  30
ENDBRANCH   6  29
BRANCH   5  34
HETATM   34  O8  UNL     1      46.427  42.199  34.437  1.00  0.00    -0.248 OA
BRANCH  34  35
HETATM   35  S3  UNL     1      47.027  42.888  35.810  1.00  0.00     0.252 S 
HETATM   36  O9  UNL     1      47.561  44.254  35.646  1.00  0.00    -0.572 OA
HETATM   37  O10 UNL     1      48.170  42.014  36.304  1.00  0.00    -0.572 OA
HETATM   38  O11 UNL     1      45.821  42.800  37.002  1.00  0.00    -0.572 OA
ENDBRANCH  34  35
ENDBRANCH   5  34
BRANCH   4  39
HETATM   39  C10 UNL     1      47.325  39.591  33.591  1.00  0.00     0.179 C 
HETATM   40  O6  UNL     1      48.127  39.656  32.638  1.00  0.00    -0.648 OA
HETATM   41  O7  UNL     1      47.719  39.011  34.777  1.00  0.00    -0.648 OA
ENDBRANCH   4  39
TORSDOF 14
ENDMDL
MODEL 2
REMARK VINA RESULT: -7.759096516      1.162      1.613
REMARK  14 active torsions:
REMARK  status: ('A' for Active; 'I' for Inactive)
REMARK    1  A    between atoms: C2_2  and  O2_4 
REMARK    2  A    between atoms: O2_4  and  C3_5 
REMARK    3  A    between atoms: C4_6  and  S1_7 
REMARK    4  A    between atoms: C5_10  and  O4_11 
REMARK    5  A    between atoms: O4_11  and  C6_12 
REMARK    6  A    between atoms: C7_13  and  O5_14 
REMARK    7  A    between atoms: C9_17  and  C10_18 
REMARK    8  A    between atoms: C11_21  and  O8_22 
REMARK    9  A    between atoms: O8_22  and  S3_23 
REMARK   10  A    between atoms: C12_27  and  O12_28 
REMARK   11  A    between atoms: O12_28  and  S4_29 
REMARK   12  A    between atoms: C13_33  and  O16_34 
REMARK   13  A    between atoms: C14_36  and  O17_37 
REMARK   14  A    between atoms: O17_37  and  S5_38 
ROOT
HETATM    1  C6  UNL     1      43.141  39.624  34.399  1.00  0.00     0.186 C 
HETATM    2  C7  UNL     1      42.756  39.048  33.072  1.00  0.00     0.150 C 
HETATM    3  C8  UNL     1      43.914  38.381  32.414  1.00  0.00     0.052 C 
HETATM    4  C9  UNL     1      45.205  39.105  32.474  1.00  0.00     0.122 C 
HETATM    5  C11 UNL     1      45.449  39.870  33.740  1.00  0.00     0.192 C 
HETATM    6  C12 UNL     1      44.205  40.693  34.110  1.00  0.00     0.208 C 
ENDROOT
BRANCH   1   7
HETATM    7  O4  UNL     1      42.113  40.093  35.156  1.00  0.00    -0.348 OA
BRANCH   7   8
HETATM    8  C5  UNL     1      42.096  39.660  36.472  1.00  0.00     0.293 C 
HETATM    9  O3  UNL     1      43.309  39.193  36.871  1.00  0.00    -0.340 OA
HETATM   10  C4  UNL     1      43.449  38.687  38.127  1.00  0.00     0.230 C 
HETATM   11  C3  UNL     1      42.321  39.158  38.997  1.00  0.00     0.204 C 
HETATM   12  C14 UNL     1      42.152  40.652  38.763  1.00  0.00     0.211 C 
HETATM   13  C13 UNL     1      41.814  40.917  37.307  1.00  0.00     0.206 C 
BRANCH  10  14
HETATM   14  S1  UNL     1      43.372  36.853  38.086  1.00  0.00    -0.050 SA
HETATM   15  S2  UNL     1      43.788  36.179  36.112  1.00  0.00    -0.011 SA
ENDBRANCH  10  14
BRANCH  11  16
HETATM   16  O2  UNL     1      42.552  38.893  40.370  1.00  0.00    -0.310 OA
BRANCH  16  17
HETATM   17  C2  UNL     1      41.605  38.253  41.165  1.00  0.00     0.255 C 
HETATM   18  C1  UNL     1      40.736  38.983  42.119  1.00  0.00     0.126 C 
HETATM   19  O1  UNL     1      41.517  37.004  41.033  1.00  0.00    -0.266 OA
ENDBRANCH  16  17
ENDBRANCH  11  16
BRANCH  12  20
HETATM   20  O17 UNL     1      41.204  41.218  39.586  1.00  0.00    -0.246 OA
BRANCH  20  21
HETATM   21  S5  UNL     1      41.541  42.849  39.850  1.00  0.00     0.252 S 
HETATM   22  O18 UNL     1      40.709  43.693  38.917  1.00  0.00    -0.572 OA
HETATM   23  O19 UNL     1      41.250  43.264  41.255  1.00  0.00    -0.572 OA
HETATM   24  O20 UNL     1      43.189  43.087  39.582  1.00  0.00    -0.572 OA
ENDBRANCH  20  21
ENDBRANCH  12  20
BRANCH  13  25
HETATM   25  O16 UNL     1      42.421  42.038  36.791  1.00  0.00    -0.388 OA
ATOM     26  H16 UNL     1      42.749  42.618  37.468  1.00  0.00     0.210 HD
ENDBRANCH  13  25
ENDBRANCH   7   8
ENDBRANCH   1   7
BRANCH   2  27
HETATM   27  O5  UNL     1      41.737  38.100  33.156  1.00  0.00    -0.393 OA
ATOM     28  H5  UNL     1      41.533  37.692  32.322  1.00  0.00     0.210 HD
ENDBRANCH   2  27
BRANCH   6  29
HETATM   29  O12 UNL     1      43.838  41.374  32.967  1.00  0.00    -0.246 OA
BRANCH  29  30
HETATM   30  S4  UNL     1      43.098  42.835  33.256  1.00  0.00     0.252 S 
HETATM   31  O13 UNL     1      42.990  43.692  32.034  1.00  0.00    -0.572 OA
HETATM   32  O14 UNL     1      43.763  43.634  34.319  1.00  0.00    -0.572 OA
HETATM   33  O15 UNL     1      41.525  42.516  33.781  1.00  0.00    -0.572 OA
ENDBRANCH  29  30
ENDBRANCH   6  29
BRANCH   5  34
HETATM   34  O8  UNL     1      46.508  40.740  33.509  1.00  0.00    -0.248 OA
BRANCH  34  35
HETATM   35  S3  UNL     1      47.751  40.601  34.584  1.00  0.00     0.252 S 
HETATM   36  O9  UNL     1      47.883  41.718  35.539  1.00  0.00    -0.572 OA
HETATM   37  O10 UNL     1      49.045  40.536  33.787  1.00  0.00    -0.572 OA
HETATM   38  O11 UNL     1      47.600  39.098  35.357  1.00  0.00    -0.572 OA
ENDBRANCH  34  35
ENDBRANCH   5  34
BRANCH   4  39
HETATM   39  C10 UNL     1      46.301  38.127  32.301  1.00  0.00     0.179 C 
HETATM   40  O6  UNL     1      47.210  38.308  31.467  1.00  0.00    -0.648 OA
HETATM   41  O7  UNL     1      46.309  36.995  33.086  1.00  0.00    -0.648 OA
ENDBRANCH   4  39
TORSDOF 14
ENDMDL
MODEL 3
REMARK VINA RESULT: -7.747991991      1.154      1.832
REMARK  14 active torsions:
REMARK  status: ('A' for Active; 'I' for Inactive)
REMARK    1  A    between atoms: C2_2  and  O2_4 
REMARK    2  A    between atoms: O2_4  and  C3_5 
REMARK    3  A    between atoms: C4_6  and  S1_7 
REMARK    4  A    between atoms: C5_10  and  O4_11 
REMARK    5  A    between atoms: O4_11  and  C6_12 
REMARK    6  A    between atoms: C7_13  and  O5_14 
REMARK    7  A    between atoms: C9_17  and  C10_18 
REMARK    8  A    between atoms: C11_21  and  O8_22 
REMARK    9  A    between atoms: O8_22  and  S3_23 
REMARK   10  A    between atoms: C12_27  and  O12_28 
REMARK   11  A    between atoms: O12_28  and  S4_29 
REMARK   12  A    between atoms: C13_33  and  O16_34 
REMARK   13  A    between atoms: C14_36  and  O17_37 
REMARK   14  A    between atoms: O17_37  and  S5_38 
ROOT
HETATM    1  C6  UNL     1      43.175  39.661  34.456  1.00  0.00     0.186 C 
HETATM    2  C7  UNL     1      42.720  38.950  33.221  1.00  0.00     0.150 C 
HETATM    3  C8  UNL     1      43.847  38.236  32.561  1.00  0.00     0.052 C 
HETATM    4  C9  UNL     1      45.126  38.979  32.466  1.00  0.00     0.122 C 
HETATM    5  C11 UNL     1      45.432  39.870  33.631  1.00  0.00     0.192 C 
HETATM    6  C12 UNL     1      44.198  40.710  33.995  1.00  0.00     0.208 C 
ENDROOT
BRANCH   1   7
HETATM    7  O4  UNL     1      42.187  40.192  35.227  1.00  0.00    -0.348 OA
BRANCH   7   8
HETATM    8  C5  UNL     1      42.142  39.735  36.535  1.00  0.00     0.293 C 
HETATM    9  O3  UNL     1      43.338  39.237  36.942  1.00  0.00    -0.340 OA
HETATM   10  C4  UNL     1      43.450  38.706  38.191  1.00  0.00     0.230 C 
HETATM   11  C3  UNL     1      42.319  39.184  39.053  1.00  0.00     0.204 C 
HETATM   12  C14 UNL     1      42.184  40.686  38.843  1.00  0.00     0.211 C 
HETATM   13  C13 UNL     1      41.873  40.983  37.387  1.00  0.00     0.206 C 
BRANCH  10  14
HETATM   14  S1  UNL     1      43.337  36.875  38.116  1.00  0.00    -0.050 SA
HETATM   15  S2  UNL     1      43.828  36.223  36.152  1.00  0.00    -0.011 SA
ENDBRANCH  10  14
BRANCH  11  16
HETATM   16  O2  UNL     1      42.525  38.890  40.424  1.00  0.00    -0.310 OA
BRANCH  16  17
HETATM   17  C2  UNL     1      41.562  38.235  41.188  1.00  0.00     0.255 C 
HETATM   18  C1  UNL     1      40.664  38.948  42.128  1.00  0.00     0.126 C 
HETATM   19  O1  UNL     1      41.486  36.988  41.039  1.00  0.00    -0.266 OA
ENDBRANCH  16  17
ENDBRANCH  11  16
BRANCH  12  20
HETATM   20  O17 UNL     1      41.236  41.256  39.663  1.00  0.00    -0.246 OA
BRANCH  20  21
HETATM   21  S5  UNL     1      41.571  42.889  39.916  1.00  0.00     0.252 S 
HETATM   22  O18 UNL     1      40.751  43.726  38.966  1.00  0.00    -0.572 OA
HETATM   23  O19 UNL     1      41.265  43.317  41.315  1.00  0.00    -0.572 OA
HETATM   24  O20 UNL     1      43.222  43.123  39.665  1.00  0.00    -0.572 OA
ENDBRANCH  20  21
ENDBRANCH  12  20
BRANCH  13  25
HETATM   25  O16 UNL     1      42.510  42.101  36.901  1.00  0.00    -0.388 OA
ATOM     26  H16 UNL     1      42.187  42.903  37.294  1.00  0.00     0.210 HD
ENDBRANCH  13  25
ENDBRANCH   7   8
ENDBRANCH   1   7
BRANCH   2  27
HETATM   27  O5  UNL     1      41.726  38.002  33.463  1.00  0.00    -0.393 OA
ATOM     28  H5  UNL     1      41.990  37.331  34.082  1.00  0.00     0.210 HD
ENDBRANCH   2  27
BRANCH   6  29
HETATM   29  O12 UNL     1      43.748  41.268  32.816  1.00  0.00    -0.246 OA
BRANCH  29  30
HETATM   30  S4  UNL     1      42.887  42.677  33.017  1.00  0.00     0.252 S 
HETATM   31  O13 UNL     1      41.440  42.444  33.320  1.00  0.00    -0.572 OA
HETATM   32  O14 UNL     1      42.969  43.590  31.847  1.00  0.00    -0.572 OA
HETATM   33  O15 UNL     1      43.548  43.495  34.338  1.00  0.00    -0.572 OA
ENDBRANCH  29  30
ENDBRANCH   6  29
BRANCH   5  34
HETATM   34  O8  UNL     1      46.458  40.726  33.248  1.00  0.00    -0.248 OA
BRANCH  34  35
HETATM   35  S3  UNL     1      47.754  40.736  34.267  1.00  0.00     0.252 S 
HETATM   36  O9  UNL     1      49.072  40.646  33.608  1.00  0.00    -0.572 OA
HETATM   37  O10 UNL     1      47.628  39.531  35.187  1.00  0.00    -0.572 OA
HETATM   38  O11 UNL     1      47.618  42.103  35.264  1.00  0.00    -0.572 OA
ENDBRANCH  34  35
ENDBRANCH   5  34
BRANCH   4  39
HETATM   39  C10 UNL     1      46.227  38.003  32.322  1.00  0.00     0.179 C 
HETATM   40  O6  UNL     1      46.390  37.079  33.143  1.00  0.00    -0.648 OA
HETATM   41  O7  UNL     1      47.086  38.126  31.252  1.00  0.00    -0.648 OA
ENDBRANCH   4  39
TORSDOF 14
ENDMDL
MODEL 4
REMARK VINA RESULT: -7.672270829      1.186      1.672
REMARK  14 active torsions:
REMARK  status: ('A' for Active; 'I' for Inactive)
REMARK    1  A    between atoms: C2_2  and  O2_4 
REMARK    2  A    between atoms: O2_4  and  C3_5 
REMARK    3  A    between atoms: C4_6  and  S1_7 
REMARK    4  A    between atoms: C5_10  and  O4_11 
REMARK    5  A    between atoms: O4_11  and  C6_12 
REMARK    6  A    between atoms: C7_13  and  O5_14 
REMARK    7  A    between atoms: C9_17  and  C10_18 
REMARK    8  A    between atoms: C11_21  and  O8_22 
REMARK    9  A    between atoms: O8_22  and  S3_23 
REMARK   10  A    between atoms: C12_27  and  O12_28 
REMARK   11  A    between atoms: O12_28  and  S4_29 
REMARK   12  A    between atoms: C13_33  and  O16_34 
REMARK   13  A    between atoms: C14_36  and  O17_37 
REMARK   14  A    between atoms: O17_37  and  S5_38 
ROOT
HETATM    1  C6  UNL     1      43.155  39.593  34.401  1.00  0.00     0.186 C 
HETATM    2  C7  UNL     1      42.770  39.037  33.066  1.00  0.00     0.150 C 
HETATM    3  C8  UNL     1      43.926  38.376  32.401  1.00  0.00     0.052 C 
HETATM    4  C9  UNL     1      45.220  39.094  32.473  1.00  0.00     0.122 C 
HETATM    5  C11 UNL     1      45.464  39.840  33.749  1.00  0.00     0.192 C 
HETATM    6  C12 UNL     1      44.223  40.663  34.129  1.00  0.00     0.208 C 
ENDROOT
BRANCH   1   7
HETATM    7  O4  UNL     1      42.127  40.055  35.163  1.00  0.00    -0.348 OA
BRANCH   7   8
HETATM    8  C5  UNL     1      42.110  39.606  36.475  1.00  0.00     0.293 C 
HETATM    9  O3  UNL     1      43.320  39.128  36.866  1.00  0.00    -0.340 OA
HETATM   10  C4  UNL     1      43.459  38.607  38.116  1.00  0.00     0.230 C 
HETATM   11  C3  UNL     1      42.334  39.073  38.993  1.00  0.00     0.204 C 
HETATM   12  C14 UNL     1      42.173  40.571  38.776  1.00  0.00     0.211 C 
HETATM   13  C13 UNL     1      41.835  40.855  37.324  1.00  0.00     0.206 C 
BRANCH  10  14
HETATM   14  S1  UNL     1      43.372  36.774  38.054  1.00  0.00    -0.050 SA
HETATM   15  S2  UNL     1      43.769  36.121  36.069  1.00  0.00    -0.011 SA
ENDBRANCH  10  14
BRANCH  11  16
HETATM   16  O2  UNL     1      42.565  38.791  40.363  1.00  0.00    -0.310 OA
BRANCH  16  17
HETATM   17  C2  UNL     1      41.618  38.140  41.149  1.00  0.00     0.255 C 
HETATM   18  C1  UNL     1      40.734  38.858  42.097  1.00  0.00     0.126 C 
HETATM   19  O1  UNL     1      41.545  36.890  41.014  1.00  0.00    -0.266 OA
ENDBRANCH  16  17
ENDBRANCH  11  16
BRANCH  12  20
HETATM   20  O17 UNL     1      41.229  41.132  39.608  1.00  0.00    -0.246 OA
BRANCH  20  21
HETATM   21  S5  UNL     1      41.565  42.762  39.877  1.00  0.00     0.252 S 
HETATM   22  O18 UNL     1      41.220  43.120  41.301  1.00  0.00    -0.572 OA
HETATM   23  O19 UNL     1      43.003  43.088  39.639  1.00  0.00    -0.572 OA
HETATM   24  O20 UNL     1      40.652  43.666  38.783  1.00  0.00    -0.572 OA
ENDBRANCH  20  21
ENDBRANCH  12  20
BRANCH  13  25
HETATM   25  O16 UNL     1      42.447  41.979  36.821  1.00  0.00    -0.388 OA
ATOM     26  H16 UNL     1      42.250  42.758  37.328  1.00  0.00     0.210 HD
ENDBRANCH  13  25
ENDBRANCH   7   8
ENDBRANCH   1   7
BRANCH   2  27
HETATM   27  O5  UNL     1      41.748  38.091  33.135  1.00  0.00    -0.393 OA
ATOM     28  H5  UNL     1      42.062  37.208  33.287  1.00  0.00     0.210 HD
ENDBRANCH   2  27
BRANCH   6  29
HETATM   29  O12 UNL     1      43.860  41.361  32.996  1.00  0.00    -0.246 OA
BRANCH  29  30
HETATM   30  S4  UNL     1      43.121  42.819  33.305  1.00  0.00     0.252 S 
HETATM   31  O13 UNL     1      43.006  43.689  32.093  1.00  0.00    -0.572 OA
HETATM   32  O14 UNL     1      43.791  43.606  34.372  1.00  0.00    -0.572 OA
HETATM   33  O15 UNL     1      41.551  42.493  33.835  1.00  0.00    -0.572 OA
ENDBRANCH  29  30
ENDBRANCH   6  29
BRANCH   5  34
HETATM   34  O8  UNL     1      46.527  40.710  33.533  1.00  0.00    -0.248 OA
BRANCH  34  35
HETATM   35  S3  UNL     1      47.824  40.461  34.519  1.00  0.00     0.252 S 
HETATM   36  O9  UNL     1      47.763  39.236  35.340  1.00  0.00    -0.572 OA
HETATM   37  O10 UNL     1      47.910  41.641  35.476  1.00  0.00    -0.572 OA
HETATM   38  O11 UNL     1      49.223  40.532  33.561  1.00  0.00    -0.572 OA
ENDBRANCH  34  35
ENDBRANCH   5  34
BRANCH   4  39
HETATM   39  C10 UNL     1      46.313  38.116  32.287  1.00  0.00     0.179 C 
HETATM   40  O6  UNL     1      47.148  38.238  31.370  1.00  0.00    -0.648 OA
HETATM   41  O7  UNL     1      46.402  37.049  33.155  1.00  0.00    -0.648 OA
ENDBRANCH   4  39
TORSDOF 14
ENDMDL
MODEL 5
REMARK VINA RESULT: -7.607949984      1.716      3.268
REMARK  14 active torsions:
REMARK  status: ('A' for Active; 'I' for Inactive)
REMARK    1  A    between atoms: C2_2  and  O2_4 
REMARK    2  A    between atoms: O2_4  and  C3_5 
REMARK    3  A    between atoms: C4_6  and  S1_7 
REMARK    4  A    between atoms: C5_10  and  O4_11 
REMARK    5  A    between atoms: O4_11  and  C6_12 
REMARK    6  A    between atoms: C7_13  and  O5_14 
REMARK    7  A    between atoms: C9_17  and  C10_18 
REMARK    8  A    between atoms: C11_21  and  O8_22 
REMARK    9  A    between atoms: O8_22  and  S3_23 
REMARK   10  A    between atoms: C12_27  and  O12_28 
REMARK   11  A    between atoms: O12_28  and  S4_29 
REMARK   12  A    between atoms: C13_33  and  O16_34 
REMARK   13  A    between atoms: C14_36  and  O17_37 
REMARK   14  A    between atoms: O17_37  and  S5_38 
ROOT
HETATM    1  C6  UNL     1      43.148  41.717  35.184  1.00  0.00     0.186 C 
HETATM    2  C7  UNL     1      42.838  42.685  34.085  1.00  0.00     0.150 C 
HETATM    3  C8  UNL     1      43.136  42.101  32.749  1.00  0.00     0.052 C 
HETATM    4  C9  UNL     1      44.409  41.352  32.633  1.00  0.00     0.122 C 
HETATM    5  C11 UNL     1      44.806  40.578  33.853  1.00  0.00     0.192 C 
HETATM    6  C12 UNL     1      44.659  41.453  35.108  1.00  0.00     0.208 C 
ENDROOT
BRANCH   1   7
HETATM    7  O4  UNL     1      42.740  42.089  36.427  1.00  0.00    -0.348 OA
BRANCH   7   8
HETATM    8  C5  UNL     1      42.594  41.056  37.340  1.00  0.00     0.293 C 
HETATM    9  O3  UNL     1      43.728  40.315  37.456  1.00  0.00    -0.340 OA
HETATM   10  C4  UNL     1      43.736  39.233  38.281  1.00  0.00     0.230 C 
HETATM   11  C3  UNL     1      42.603  39.327  39.261  1.00  0.00     0.204 C 
HETATM   12  C14 UNL     1      42.595  40.744  39.817  1.00  0.00     0.211 C 
HETATM   13  C13 UNL     1      42.380  41.744  38.696  1.00  0.00     0.206 C 
BRANCH  10  14
HETATM   14  S1  UNL     1      43.485  37.692  37.313  1.00  0.00    -0.050 SA
HETATM   15  S2  UNL     1      42.296  38.125  35.604  1.00  0.00    -0.011 SA
ENDBRANCH  10  14
BRANCH  11  16
HETATM   16  O2  UNL     1      42.717  38.382  40.311  1.00  0.00    -0.310 OA
BRANCH  16  17
HETATM   17  C2  UNL     1      41.636  37.607  40.722  1.00  0.00     0.255 C 
HETATM   18  C1  UNL     1      40.879  37.886  41.966  1.00  0.00     0.126 C 
HETATM   19  O1  UNL     1      41.324  36.643  39.976  1.00  0.00    -0.266 OA
ENDBRANCH  16  17
ENDBRANCH  11  16
BRANCH  12  20
HETATM   20  O17 UNL     1      41.654  40.924  40.807  1.00  0.00    -0.246 OA
BRANCH  20  21
HETATM   21  S5  UNL     1      42.143  42.125  41.884  1.00  0.00     0.252 S 
HETATM   22  O18 UNL     1      41.687  41.769  43.278  1.00  0.00    -0.572 OA
HETATM   23  O19 UNL     1      43.627  42.299  41.899  1.00  0.00    -0.572 OA
HETATM   24  O20 UNL     1      41.465  43.583  41.375  1.00  0.00    -0.572 OA
ENDBRANCH  20  21
ENDBRANCH  12  20
BRANCH  13  25
HETATM   25  O16 UNL     1      43.125  42.893  38.827  1.00  0.00    -0.388 OA
ATOM     26  H16 UNL     1      43.427  43.228  37.991  1.00  0.00     0.210 HD
ENDBRANCH  13  25
ENDBRANCH   7   8
ENDBRANCH   1   7
BRANCH   2  27
HETATM   27  O5  UNL     1      41.502  43.085  34.063  1.00  0.00    -0.393 OA
ATOM     28  H5  UNL     1      40.968  42.579  33.461  1.00  0.00     0.210 HD
ENDBRANCH   2  27
BRANCH   6  29
HETATM   29  O12 UNL     1      45.296  42.643  34.826  1.00  0.00    -0.246 OA
BRANCH  29  30
HETATM   30  S4  UNL     1      46.455  43.073  35.938  1.00  0.00     0.252 S 
HETATM   31  O13 UNL     1      46.889  44.499  35.814  1.00  0.00    -0.572 OA
HETATM   32  O14 UNL     1      47.671  42.218  35.883  1.00  0.00    -0.572 OA
HETATM   33  O15 UNL     1      45.783  42.888  37.475  1.00  0.00    -0.572 OA
ENDBRANCH  29  30
ENDBRANCH   6  29
BRANCH   5  34
HETATM   34  O8  UNL     1      46.142  40.222  33.711  1.00  0.00    -0.248 OA
BRANCH  34  35
HETATM   35  S3  UNL     1      46.465  38.639  34.041  1.00  0.00     0.252 S 
HETATM   36  O9  UNL     1      46.765  38.340  35.454  1.00  0.00    -0.572 OA
HETATM   37  O10 UNL     1      47.687  38.238  33.228  1.00  0.00    -0.572 OA
HETATM   38  O11 UNL     1      45.176  37.712  33.439  1.00  0.00    -0.572 OA
ENDBRANCH  34  35
ENDBRANCH   5  34
BRANCH   4  39
HETATM   39  C10 UNL     1      44.300  40.411  31.498  1.00  0.00     0.179 C 
HETATM   40  O6  UNL     1      45.291  40.109  30.803  1.00  0.00    -0.648 OA
HETATM   41  O7  UNL     1      43.070  39.860  31.210  1.00  0.00    -0.648 OA
ENDBRANCH   4  39
TORSDOF 14
ENDMDL
