MODEL 1
REMARK VINA RESULT: -11.277701437      0.000      0.000
REMARK  4 active torsions:
REMARK  status: ('A' for Active; 'I' for Inactive)
REMARK    1  A    between atoms: C6_8  and  C7_9 
REMARK    2  A    between atoms: C7_9  and  C8_11 
REMARK       I    between atoms: C8_11  and  N2_13 
REMARK    3  A    between atoms: N2_13  and  N3_15 
REMARK       I    between atoms: N3_15  and  C9_17 
REMARK       I    between atoms: C9_17  and  N4_19 
REMARK    4  A    between atoms: N4_19  and  C11_21 
ROOT
HETATM    1  C1  UNL     1      14.630  -0.696  -3.719  1.00  0.00     0.049 C 
HETATM    2  C2  UNL     1      14.256   0.016  -4.980  1.00  0.00    -0.054 A 
HETATM    3  C3  UNL     1      14.084   1.384  -5.015  1.00  0.00     0.037 A 
HETATM    4  C4  UNL     1      13.739   2.063  -6.168  1.00  0.00     0.044 A 
HETATM    5  N1  UNL     1      13.514   3.347  -6.470  1.00  0.00    -0.354 N 
ATOM      6  H1  UNL     1      13.571   4.122  -5.810  1.00  0.00     0.166 HD
HETATM    7  C5  UNL     1      13.201   3.465  -7.773  1.00  0.00     0.059 A 
HETATM    8  C6  UNL     1      12.891   4.589  -8.535  1.00  0.00     0.053 A 
HETATM    9  C14 UNL     1      12.610   4.400  -9.863  1.00  0.00    -0.045 A 
HETATM   10  C15 UNL     1      12.274   5.580 -10.699  1.00  0.00     0.049 C 
HETATM   11  C16 UNL     1      12.628   3.148 -10.441  1.00  0.00     0.015 A 
HETATM   12  C17 UNL     1      12.939   2.010  -9.686  1.00  0.00    -0.048 A 
HETATM   13  C18 UNL     1      12.953   0.671 -10.333  1.00  0.00     0.049 C 
HETATM   14  C19 UNL     1      13.225   2.194  -8.340  1.00  0.00     0.010 A 
HETATM   15  C20 UNL     1      13.563   1.310  -7.327  1.00  0.00     0.004 A 
HETATM   16  C21 UNL     1      13.729  -0.052  -7.315  1.00  0.00     0.022 A 
HETATM   17  C22 UNL     1      14.080  -0.711  -6.130  1.00  0.00    -0.055 A 
HETATM   18  C23 UNL     1      14.236  -2.179  -6.198  1.00  0.00     0.049 C 
ENDROOT
BRANCH   8  19
HETATM   19  C7  UNL     1      12.856   5.917  -7.972  1.00  0.00     0.253 C 
HETATM   20  O1  UNL     1      13.719   6.175  -7.070  1.00  0.00    -0.281 OA
BRANCH  19  21
HETATM   21  C8  UNL     1      11.936   6.952  -8.345  1.00  0.00     0.311 C 
HETATM   22  O2  UNL     1      10.719   6.831  -8.073  1.00  0.00    -0.262 OA
HETATM   23  N2  UNL     1      12.354   8.128  -9.021  1.00  0.00    -0.259 N 
ATOM     24  H2  UNL     1      13.344   8.235  -9.245  1.00  0.00     0.190 HD
BRANCH  23  25
HETATM   25  N3  UNL     1      11.473   9.140  -9.391  1.00  0.00    -0.249 N 
HETATM   26  C9  UNL     1      11.409   9.692 -10.697  1.00  0.00     0.337 C 
HETATM   27  O3  UNL     1      12.202   9.221 -11.543  1.00  0.00    -0.245 OA
HETATM   28  N4  UNL     1      10.484  10.715 -10.980  1.00  0.00    -0.333 N 
HETATM   29  C10 UNL     1       9.608  11.196  -9.936  1.00  0.00     0.155 C 
ATOM     30  H3  UNL     1      10.836   9.506  -8.683  1.00  0.00     0.192 HD
BRANCH  28  31
HETATM   31  C11 UNL     1      10.370  11.314 -12.299  1.00  0.00     0.080 C 
HETATM   32  C12 UNL     1       9.672  10.401 -13.283  1.00  0.00     0.032 C 
HETATM   33  C13 UNL     1       9.615  12.615 -12.175  1.00  0.00     0.032 C 
ENDBRANCH  28  31
ENDBRANCH  23  25
ENDBRANCH  19  21
ENDBRANCH   8  19
TORSDOF 4
ENDMDL
MODEL 2
REMARK VINA RESULT: -11.182986617      1.071      1.313
REMARK  4 active torsions:
REMARK  status: ('A' for Active; 'I' for Inactive)
REMARK    1  A    between atoms: C6_8  and  C7_9 
REMARK    2  A    between atoms: C7_9  and  C8_11 
REMARK       I    between atoms: C8_11  and  N2_13 
REMARK    3  A    between atoms: N2_13  and  N3_15 
REMARK       I    between atoms: N3_15  and  C9_17 
REMARK       I    between atoms: C9_17  and  N4_19 
REMARK    4  A    between atoms: N4_19  and  C11_21 
ROOT
HETATM    1  C1  UNL     1      14.915   1.516  -2.442  1.00  0.00     0.049 C 
HETATM    2  C2  UNL     1      14.446   1.751  -3.843  1.00  0.00    -0.054 A 
HETATM    3  C3  UNL     1      14.360   3.021  -4.374  1.00  0.00     0.037 A 
HETATM    4  C4  UNL     1      13.928   3.262  -5.664  1.00  0.00     0.044 A 
HETATM    5  N1  UNL     1      13.754   4.361  -6.406  1.00  0.00    -0.354 N 
ATOM      6  H1  UNL     1      13.937   5.314  -6.092  1.00  0.00     0.166 HD
HETATM    7  C5  UNL     1      13.302   4.025  -7.627  1.00  0.00     0.059 A 
HETATM    8  C6  UNL     1      12.979   4.817  -8.727  1.00  0.00     0.053 A 
HETATM    9  C14 UNL     1      12.536   4.184  -9.859  1.00  0.00    -0.045 A 
HETATM   10  C15 UNL     1      12.182   5.004 -11.046  1.00  0.00     0.049 C 
HETATM   11  C16 UNL     1      12.405   2.813  -9.924  1.00  0.00     0.015 A 
HETATM   12  C17 UNL     1      12.727   2.006  -8.826  1.00  0.00    -0.048 A 
HETATM   13  C18 UNL     1      12.580   0.529  -8.922  1.00  0.00     0.049 C 
HETATM   14  C19 UNL     1      13.177   2.639  -7.676  1.00  0.00     0.010 A 
HETATM   15  C20 UNL     1      13.572   2.158  -6.437  1.00  0.00     0.004 A 
HETATM   16  C21 UNL     1      13.650   0.886  -5.929  1.00  0.00     0.022 A 
HETATM   17  C22 UNL     1      14.092   0.675  -4.617  1.00  0.00    -0.055 A 
HETATM   18  C23 UNL     1      14.144  -0.723  -4.142  1.00  0.00     0.049 C 
ENDROOT
BRANCH   8  19
HETATM   19  C7  UNL     1      13.095   6.255  -8.702  1.00  0.00     0.253 C 
HETATM   20  O1  UNL     1      14.275   6.729  -8.613  1.00  0.00    -0.281 OA
BRANCH  19  21
HETATM   21  C8  UNL     1      11.998   7.176  -8.769  1.00  0.00     0.311 C 
HETATM   22  O2  UNL     1      10.935   6.925  -8.155  1.00  0.00    -0.262 OA
HETATM   23  N2  UNL     1      12.068   8.382  -9.514  1.00  0.00    -0.259 N 
ATOM     24  H2  UNL     1      12.929   8.596 -10.016  1.00  0.00     0.190 HD
BRANCH  23  25
HETATM   25  N3  UNL     1      11.011   9.286  -9.589  1.00  0.00    -0.249 N 
HETATM   26  C9  UNL     1      10.918  10.313 -10.566  1.00  0.00     0.337 C 
HETATM   27  O3  UNL     1      11.855  10.384 -11.392  1.00  0.00    -0.245 OA
HETATM   28  N4  UNL     1       9.810  11.181 -10.564  1.00  0.00    -0.333 N 
HETATM   29  C10 UNL     1       8.777  11.020  -9.567  1.00  0.00     0.155 C 
ATOM     30  H3  UNL     1      10.259   9.205  -8.904  1.00  0.00     0.192 HD
BRANCH  28  31
HETATM   31  C11 UNL     1       9.660  12.246 -11.541  1.00  0.00     0.080 C 
HETATM   32  C12 UNL     1       9.391  11.713 -12.932  1.00  0.00     0.032 C 
HETATM   33  C13 UNL     1       8.530  13.146 -11.105  1.00  0.00     0.032 C 
ENDBRANCH  28  31
ENDBRANCH  23  25
ENDBRANCH  19  21
ENDBRANCH   8  19
TORSDOF 4
ENDMDL
MODEL 3
REMARK VINA RESULT: -11.064525047      1.110      1.529
REMARK  4 active torsions:
REMARK  status: ('A' for Active; 'I' for Inactive)
REMARK    1  A    between atoms: C6_8  and  C7_9 
REMARK    2  A    between atoms: C7_9  and  C8_11 
REMARK       I    between atoms: C8_11  and  N2_13 
REMARK    3  A    between atoms: N2_13  and  N3_15 
REMARK       I    between atoms: N3_15  and  C9_17 
REMARK       I    between atoms: C9_17  and  N4_19 
REMARK    4  A    between atoms: N4_19  and  C11_21 
ROOT
HETATM    1  C1  UNL     1      14.571   1.203  -2.226  1.00  0.00     0.049 C 
HETATM    2  C2  UNL     1      14.290   1.438  -3.676  1.00  0.00    -0.054 A 
HETATM    3  C3  UNL     1      14.085   2.705  -4.179  1.00  0.00     0.037 A 
HETATM    4  C4  UNL     1      13.824   2.945  -5.514  1.00  0.00     0.044 A 
HETATM    5  N1  UNL     1      13.591   4.042  -6.244  1.00  0.00    -0.354 N 
ATOM      6  H1  UNL     1      13.569   4.994  -5.878  1.00  0.00     0.166 HD
HETATM    7  C5  UNL     1      13.392   3.706  -7.530  1.00  0.00     0.059 A 
HETATM    8  C6  UNL     1      13.120   4.496  -8.645  1.00  0.00     0.053 A 
HETATM    9  C14 UNL     1      12.962   3.863  -9.850  1.00  0.00    -0.045 A 
HETATM   10  C15 UNL     1      12.669   4.681 -11.055  1.00  0.00     0.049 C 
HETATM   11  C16 UNL     1      13.065   2.494  -9.974  1.00  0.00     0.015 A 
HETATM   12  C17 UNL     1      13.339   1.689  -8.862  1.00  0.00    -0.048 A 
HETATM   13  C18 UNL     1      13.447   0.214  -9.022  1.00  0.00     0.049 C 
HETATM   14  C19 UNL     1      13.500   2.322  -7.637  1.00  0.00     0.010 A 
HETATM   15  C20 UNL     1      13.771   1.842  -6.365  1.00  0.00     0.004 A 
HETATM   16  C21 UNL     1      13.973   0.572  -5.887  1.00  0.00     0.022 A 
HETATM   17  C22 UNL     1      14.236   0.363  -4.528  1.00  0.00    -0.055 A 
HETATM   18  C23 UNL     1      14.438  -1.035  -4.089  1.00  0.00     0.049 C 
ENDROOT
BRANCH   8  19
HETATM   19  C7  UNL     1      12.998   5.931  -8.561  1.00  0.00     0.253 C 
HETATM   20  O1  UNL     1      13.764   6.520  -7.729  1.00  0.00    -0.281 OA
BRANCH  19  21
HETATM   21  C8  UNL     1      12.094   6.734  -9.333  1.00  0.00     0.311 C 
HETATM   22  O2  UNL     1      10.860   6.537  -9.249  1.00  0.00    -0.262 OA
HETATM   23  N2  UNL     1      12.548   7.759 -10.204  1.00  0.00    -0.259 N 
ATOM     24  H2  UNL     1      13.551   7.927 -10.278  1.00  0.00     0.190 HD
BRANCH  23  25
HETATM   25  N3  UNL     1      11.683   8.544 -10.961  1.00  0.00    -0.249 N 
HETATM   26  C9  UNL     1      11.248   9.839 -10.572  1.00  0.00     0.337 C 
HETATM   27  O3  UNL     1      11.684  10.271  -9.482  1.00  0.00    -0.245 OA
HETATM   28  N4  UNL     1      10.371  10.561 -11.403  1.00  0.00    -0.333 N 
HETATM   29  C10 UNL     1       9.919   9.977 -12.645  1.00  0.00     0.155 C 
ATOM     30  H3  UNL     1      11.342   8.168 -11.846  1.00  0.00     0.192 HD
BRANCH  28  31
HETATM   31  C11 UNL     1       9.896  11.891 -11.059  1.00  0.00     0.080 C 
HETATM   32  C12 UNL     1       9.488  12.686 -12.280  1.00  0.00     0.032 C 
HETATM   33  C13 UNL     1       8.727  11.757 -10.114  1.00  0.00     0.032 C 
ENDBRANCH  28  31
ENDBRANCH  23  25
ENDBRANCH  19  21
ENDBRANCH   8  19
TORSDOF 4
ENDMDL
MODEL 4
REMARK VINA RESULT: -10.992379347      4.869     10.469
REMARK  4 active torsions:
REMARK  status: ('A' for Active; 'I' for Inactive)
REMARK    1  A    between atoms: C6_8  and  C7_9 
REMARK    2  A    between atoms: C7_9  and  C8_11 
REMARK       I    between atoms: C8_11  and  N2_13 
REMARK    3  A    between atoms: N2_13  and  N3_15 
REMARK       I    between atoms: N3_15  and  C9_17 
REMARK       I    between atoms: C9_17  and  N4_19 
REMARK    4  A    between atoms: N4_19  and  C11_21 
ROOT
HETATM    1  C1  UNL     1      12.273   4.706 -11.060  1.00  0.00     0.049 C 
HETATM    2  C2  UNL     1      12.706   4.374  -9.667  1.00  0.00    -0.054 A 
HETATM    3  C3  UNL     1      12.715   3.076  -9.201  1.00  0.00     0.037 A 
HETATM    4  C4  UNL     1      13.110   2.747  -7.919  1.00  0.00     0.044 A 
HETATM    5  N1  UNL     1      13.210   1.603  -7.231  1.00  0.00    -0.354 N 
ATOM      6  H1  UNL     1      12.980   0.679  -7.597  1.00  0.00     0.166 HD
HETATM    7  C5  UNL     1      13.658   1.851  -5.988  1.00  0.00     0.059 A 
HETATM    8  C6  UNL     1      13.917   0.988  -4.926  1.00  0.00     0.053 A 
HETATM    9  C14 UNL     1      14.374   1.537  -3.756  1.00  0.00    -0.045 A 
HETATM   10  C15 UNL     1      14.657   0.641  -2.606  1.00  0.00     0.049 C 
HETATM   11  C16 UNL     1      14.576   2.895  -3.618  1.00  0.00     0.015 A 
HETATM   12  C17 UNL     1      14.320   3.773  -4.678  1.00  0.00    -0.048 A 
HETATM   13  C18 UNL     1      14.547   5.232  -4.504  1.00  0.00     0.049 C 
HETATM   14  C19 UNL     1      13.856   3.224  -5.866  1.00  0.00     0.010 A 
HETATM   15  C20 UNL     1      13.510   3.789  -7.084  1.00  0.00     0.004 A 
HETATM   16  C21 UNL     1      13.509   5.087  -7.526  1.00  0.00     0.022 A 
HETATM   17  C22 UNL     1      13.103   5.388  -8.832  1.00  0.00    -0.055 A 
HETATM   18  C23 UNL     1      13.126   6.811  -9.232  1.00  0.00     0.049 C 
ENDROOT
BRANCH   8  19
HETATM   19  C7  UNL     1      13.715  -0.437  -5.024  1.00  0.00     0.253 C 
HETATM   20  O1  UNL     1      12.618  -0.890  -4.561  1.00  0.00    -0.281 OA
BRANCH  19  21
HETATM   21  C8  UNL     1      14.644  -1.369  -5.595  1.00  0.00     0.311 C 
HETATM   22  O2  UNL     1      15.487  -1.936  -4.862  1.00  0.00    -0.262 OA
HETATM   23  N2  UNL     1      14.649  -1.679  -6.979  1.00  0.00    -0.259 N 
ATOM     24  H2  UNL     1      13.966  -1.223  -7.584  1.00  0.00     0.190 HD
BRANCH  23  25
HETATM   25  N3  UNL     1      15.546  -2.580  -7.548  1.00  0.00    -0.249 N 
HETATM   26  C9  UNL     1      15.165  -3.834  -8.095  1.00  0.00     0.337 C 
HETATM   27  O3  UNL     1      13.947  -4.117  -8.050  1.00  0.00    -0.245 OA
HETATM   28  N4  UNL     1      16.143  -4.681  -8.651  1.00  0.00    -0.333 N 
HETATM   29  C10 UNL     1      17.527  -4.267  -8.657  1.00  0.00     0.155 C 
ATOM     30  H3  UNL     1      16.533  -2.325  -7.574  1.00  0.00     0.192 HD
BRANCH  28  31
HETATM   31  C11 UNL     1      15.811  -5.972  -9.229  1.00  0.00     0.080 C 
HETATM   32  C12 UNL     1      15.739  -5.920 -10.740  1.00  0.00     0.032 C 
HETATM   33  C13 UNL     1      16.850  -6.976  -8.795  1.00  0.00     0.032 C 
ENDBRANCH  28  31
ENDBRANCH  23  25
ENDBRANCH  19  21
ENDBRANCH   8  19
TORSDOF 4
ENDMDL
MODEL 5
REMARK VINA RESULT: -10.935367035      2.065      3.389
REMARK  4 active torsions:
REMARK  status: ('A' for Active; 'I' for Inactive)
REMARK    1  A    between atoms: C6_8  and  C7_9 
REMARK    2  A    between atoms: C7_9  and  C8_11 
REMARK       I    between atoms: C8_11  and  N2_13 
REMARK    3  A    between atoms: N2_13  and  N3_15 
REMARK       I    between atoms: N3_15  and  C9_17 
REMARK       I    between atoms: C9_17  and  N4_19 
REMARK    4  A    between atoms: N4_19  and  C11_21 
ROOT
HETATM    1  C1  UNL     1      14.937   1.330  -2.106  1.00  0.00     0.049 C 
HETATM    2  C2  UNL     1      14.668   0.900  -3.513  1.00  0.00    -0.054 A 
HETATM    3  C3  UNL     1      13.863   1.638  -4.354  1.00  0.00     0.037 A 
HETATM    4  C4  UNL     1      13.600   1.260  -5.657  1.00  0.00     0.044 A 
HETATM    5  N1  UNL     1      12.877   1.775  -6.657  1.00  0.00    -0.354 N 
ATOM      6  H1  UNL     1      12.338   2.639  -6.604  1.00  0.00     0.166 HD
HETATM    7  C5  UNL     1      12.964   0.987  -7.743  1.00  0.00     0.059 A 
HETATM    8  C6  UNL     1      12.391   1.112  -9.006  1.00  0.00     0.053 A 
HETATM    9  C14 UNL     1      12.663   0.135  -9.928  1.00  0.00    -0.045 A 
HETATM   10  C15 UNL     1      12.063   0.242 -11.283  1.00  0.00     0.049 C 
HETATM   11  C16 UNL     1      13.473  -0.941  -9.633  1.00  0.00     0.015 A 
HETATM   12  C17 UNL     1      14.056  -1.078  -8.368  1.00  0.00    -0.048 A 
HETATM   13  C18 UNL     1      14.929  -2.246  -8.075  1.00  0.00     0.049 C 
HETATM   14  C19 UNL     1      13.785  -0.093  -7.428  1.00  0.00     0.010 A 
HETATM   15  C20 UNL     1      14.186   0.080  -6.112  1.00  0.00     0.004 A 
HETATM   16  C21 UNL     1      14.990  -0.671  -5.292  1.00  0.00     0.022 A 
HETATM   17  C22 UNL     1      15.237  -0.260  -3.976  1.00  0.00    -0.055 A 
HETATM   18  C23 UNL     1      16.110  -1.124  -3.154  1.00  0.00     0.049 C 
ENDROOT
BRANCH   8  19
HETATM   19  C7  UNL     1      11.533   2.217  -9.357  1.00  0.00     0.253 C 
HETATM   20  O1  UNL     1      10.307   1.941  -9.571  1.00  0.00    -0.281 OA
BRANCH  19  21
HETATM   21  C8  UNL     1      11.950   3.584  -9.483  1.00  0.00     0.311 C 
HETATM   22  O2  UNL     1      13.062   3.940  -9.029  1.00  0.00    -0.262 OA
HETATM   23  N2  UNL     1      11.141   4.567 -10.111  1.00  0.00    -0.259 N 
ATOM     24  H2  UNL     1      10.234   4.286 -10.484  1.00  0.00     0.190 HD
BRANCH  23  25
HETATM   25  N3  UNL     1      11.532   5.897 -10.239  1.00  0.00    -0.249 N 
HETATM   26  C9  UNL     1      10.970   6.797 -11.183  1.00  0.00     0.337 C 
HETATM   27  O3  UNL     1      10.075   6.340 -11.928  1.00  0.00    -0.245 OA
HETATM   28  N4  UNL     1      11.429   8.127 -11.239  1.00  0.00    -0.333 N 
HETATM   29  C10 UNL     1      12.470   8.563 -10.337  1.00  0.00     0.155 C 
ATOM     30  H3  UNL     1      12.263   6.245  -9.619  1.00  0.00     0.192 HD
BRANCH  28  31
HETATM   31  C11 UNL     1      10.888   9.093 -12.180  1.00  0.00     0.080 C 
HETATM   32  C12 UNL     1      10.936  10.506 -11.640  1.00  0.00     0.032 C 
HETATM   33  C13 UNL     1      11.673   9.005 -13.467  1.00  0.00     0.032 C 
ENDBRANCH  28  31
ENDBRANCH  23  25
ENDBRANCH  19  21
ENDBRANCH   8  19
TORSDOF 4
ENDMDL
