MODEL 1
REMARK VINA RESULT: -10.122237012      0.000      0.000
REMARK  5 active torsions:
REMARK  status: ('A' for Active; 'I' for Inactive)
REMARK       I    between atoms: N1_2  and  C2_4 
REMARK    1  A    between atoms: C2_4  and  C3_6 
REMARK    2  A    between atoms: C3_6  and  N2_7 
REMARK    3  A    between atoms: C3_6  and  C18_30 
REMARK       I    between atoms: N2_7  and  C4_9 
REMARK       I    between atoms: C4_9  and  N3_11 
REMARK    4  A    between atoms: N3_11  and  C5_13 
REMARK    5  A    between atoms: C7_17  and  C8_18 
ROOT
HETATM    1  C5  UNL     1      11.869   6.405  -8.580  1.00  0.00     0.153 A 
HETATM    2  N4  UNL     1      12.871   6.164  -7.738  1.00  0.00    -0.345 N 
ATOM      3  H4  UNL     1      13.265   6.914  -7.170  1.00  0.00     0.167 HD
HETATM    4  C6  UNL     1      13.340   4.954  -7.655  1.00  0.00     0.110 A 
HETATM    5  C7  UNL     1      12.767   3.992  -8.446  1.00  0.00     0.034 A 
HETATM    6  S1  UNL     1      11.573   4.879  -9.280  1.00  0.00    -0.052 SA
ENDROOT
BRANCH   1   7
HETATM    7  N3  UNL     1      11.273   7.557  -8.796  1.00  0.00    -0.289 N 
HETATM    8  C4  UNL     1      11.658   8.342  -9.897  1.00  0.00     0.322 C 
HETATM    9  N2  UNL     1      10.718   9.156 -10.543  1.00  0.00    -0.329 N 
HETATM   10  O2  UNL     1      12.835   8.320 -10.303  1.00  0.00    -0.247 OA
ATOM     11  H2  UNL     1       9.761   9.155 -10.188  1.00  0.00     0.165 HD
ATOM     12  H3  UNL     1      10.536   7.879  -8.168  1.00  0.00     0.172 HD
BRANCH   9  13
HETATM   13  C3  UNL     1      11.021  10.002 -11.688  1.00  0.00     0.185 C 
BRANCH  13  14
HETATM   14  C2  UNL     1      10.309  11.275 -11.520  1.00  0.00     0.240 C 
HETATM   15  N1  UNL     1       9.179  11.509 -10.703  1.00  0.00    -0.364 N 
HETATM   16  C1  UNL     1       8.580  12.844 -10.638  1.00  0.00     0.149 C 
ATOM     17  H1  UNL     1       8.779  10.746 -10.157  1.00  0.00     0.161 HD
HETATM   18  O1  UNL     1      10.744  12.285 -12.175  1.00  0.00    -0.271 OA
ENDBRANCH  13  14
BRANCH  13  19
HETATM   19  C18 UNL     1      10.742   9.272 -12.976  1.00  0.00    -0.022 C 
HETATM   20  C19 UNL     1       9.705   9.924 -13.829  1.00  0.00     0.017 C 
HETATM   21  C20 UNL     1      12.000   9.056 -13.758  1.00  0.00     0.017 C 
HETATM   22  C21 UNL     1      10.226   7.885 -12.598  1.00  0.00     0.017 C 
ENDBRANCH  13  19
ENDBRANCH   9  13
ENDBRANCH   1   7
BRANCH   5  23
HETATM   23  C8  UNL     1      13.118   2.555  -8.532  1.00  0.00    -0.017 A 
HETATM   24  C9  UNL     1      13.148   1.932  -9.759  1.00  0.00     0.015 A 
HETATM   25  C10 UNL     1      13.469   0.597  -9.879  1.00  0.00     0.039 A 
HETATM   26  C11 UNL     1      13.771  -0.140  -8.755  1.00  0.00     0.086 A 
HETATM   27  O3  UNL     1      14.110  -1.388  -8.505  1.00  0.00    -0.314 OA
HETATM   28  C16 UNL     1      13.737   0.507  -7.521  1.00  0.00     0.007 A 
HETATM   29  C12 UNL     1      14.293  -1.592  -7.235  1.00  0.00     0.056 A 
HETATM   30  C13 UNL     1      14.680  -2.862  -6.568  1.00  0.00     0.077 C 
HETATM   31  C14 UNL     1      14.068  -0.411  -6.555  1.00  0.00    -0.020 A 
HETATM   32  C15 UNL     1      14.157  -0.170  -5.109  1.00  0.00     0.052 C 
HETATM   33  C17 UNL     1      13.414   1.838  -7.421  1.00  0.00     0.027 A 
ENDBRANCH   5  23
TORSDOF 5
ENDMDL
MODEL 2
REMARK VINA RESULT: -10.093651595      5.086     12.305
REMARK  5 active torsions:
REMARK  status: ('A' for Active; 'I' for Inactive)
REMARK       I    between atoms: N1_2  and  C2_4 
REMARK    1  A    between atoms: C2_4  and  C3_6 
REMARK    2  A    between atoms: C3_6  and  N2_7 
REMARK    3  A    between atoms: C3_6  and  C18_30 
REMARK       I    between atoms: N2_7  and  C4_9 
REMARK       I    between atoms: C4_9  and  N3_11 
REMARK    4  A    between atoms: N3_11  and  C5_13 
REMARK    5  A    between atoms: C7_17  and  C8_18 
ROOT
HETATM    1  C5  UNL     1      14.076  -1.508  -7.165  1.00  0.00     0.153 A 
HETATM    2  N4  UNL     1      14.171  -1.451  -8.490  1.00  0.00    -0.345 N 
ATOM      3  H4  UNL     1      14.583  -2.222  -9.016  1.00  0.00     0.167 HD
HETATM    4  C6  UNL     1      13.728  -0.392  -9.104  1.00  0.00     0.110 A 
HETATM    5  C7  UNL     1      13.185   0.608  -8.339  1.00  0.00     0.034 A 
HETATM    6  S1  UNL     1      13.339  -0.023  -6.762  1.00  0.00    -0.052 SA
ENDROOT
BRANCH   1   7
HETATM    7  N3  UNL     1      14.467  -2.489  -6.382  1.00  0.00    -0.289 N 
HETATM    8  C4  UNL     1      15.780  -2.494  -5.879  1.00  0.00     0.322 C 
HETATM    9  N2  UNL     1      16.049  -3.054  -4.622  1.00  0.00    -0.329 N 
HETATM   10  O2  UNL     1      16.710  -2.005  -6.546  1.00  0.00    -0.247 OA
ATOM     11  H2  UNL     1      15.268  -3.449  -4.099  1.00  0.00     0.165 HD
ATOM     12  H3  UNL     1      13.822  -3.242  -6.142  1.00  0.00     0.172 HD
BRANCH   9  13
HETATM   13  C3  UNL     1      17.373  -3.106  -4.019  1.00  0.00     0.185 C 
BRANCH  13  14
HETATM   14  C2  UNL     1      17.852  -4.492  -4.082  1.00  0.00     0.240 C 
HETATM   15  N1  UNL     1      17.056  -5.658  -4.159  1.00  0.00    -0.364 N 
HETATM   16  C1  UNL     1      17.687  -6.978  -4.219  1.00  0.00     0.149 C 
ATOM     17  H1  UNL     1      16.039  -5.580  -4.172  1.00  0.00     0.161 HD
HETATM   18  O1  UNL     1      19.118  -4.680  -4.065  1.00  0.00    -0.271 OA
ENDBRANCH  13  14
BRANCH  13  19
HETATM   19  C18 UNL     1      17.353  -2.491  -2.644  1.00  0.00    -0.022 C 
HETATM   20  C19 UNL     1      17.179  -3.482  -1.541  1.00  0.00     0.017 C 
HETATM   21  C20 UNL     1      18.573  -1.657  -2.407  1.00  0.00     0.017 C 
HETATM   22  C21 UNL     1      16.162  -1.537  -2.600  1.00  0.00     0.017 C 
ENDBRANCH  13  19
ENDBRANCH   9  13
ENDBRANCH   1   7
BRANCH   5  23
HETATM   23  C8  UNL     1      12.618   1.899  -8.796  1.00  0.00    -0.017 A 
HETATM   24  C9  UNL     1      11.418   1.916  -9.470  1.00  0.00     0.015 A 
HETATM   25  C10 UNL     1      10.860   3.097  -9.911  1.00  0.00     0.039 A 
HETATM   26  C11 UNL     1      11.506   4.291  -9.677  1.00  0.00     0.086 A 
HETATM   27  O3  UNL     1      11.274   5.560  -9.944  1.00  0.00    -0.314 OA
HETATM   28  C16 UNL     1      12.719   4.254  -8.993  1.00  0.00     0.007 A 
HETATM   29  C12 UNL     1      12.222   6.327  -9.495  1.00  0.00     0.056 A 
HETATM   30  C13 UNL     1      12.317   7.807  -9.601  1.00  0.00     0.077 C 
HETATM   31  C14 UNL     1      13.176   5.544  -8.876  1.00  0.00    -0.020 A 
HETATM   32  C15 UNL     1      14.419   5.980  -8.227  1.00  0.00     0.052 C 
HETATM   33  C17 UNL     1      13.261   3.068  -8.562  1.00  0.00     0.027 A 
ENDBRANCH   5  23
TORSDOF 5
ENDMDL
MODEL 3
REMARK VINA RESULT: -9.973333679      2.070      2.919
REMARK  5 active torsions:
REMARK  status: ('A' for Active; 'I' for Inactive)
REMARK       I    between atoms: N1_2  and  C2_4 
REMARK    1  A    between atoms: C2_4  and  C3_6 
REMARK    2  A    between atoms: C3_6  and  N2_7 
REMARK    3  A    between atoms: C3_6  and  C18_30 
REMARK       I    between atoms: N2_7  and  C4_9 
REMARK       I    between atoms: C4_9  and  N3_11 
REMARK    4  A    between atoms: N3_11  and  C5_13 
REMARK    5  A    between atoms: C7_17  and  C8_18 
ROOT
HETATM    1  C5  UNL     1      11.869   4.273 -10.715  1.00  0.00     0.153 A 
HETATM    2  N4  UNL     1      10.902   3.428 -10.367  1.00  0.00    -0.345 N 
ATOM      3  H4  UNL     1       9.950   3.557 -10.711  1.00  0.00     0.167 HD
HETATM    4  C6  UNL     1      11.193   2.433  -9.581  1.00  0.00     0.110 A 
HETATM    5  C7  UNL     1      12.491   2.316  -9.155  1.00  0.00     0.034 A 
HETATM    6  S1  UNL     1      13.238   3.651  -9.909  1.00  0.00    -0.052 SA
ENDROOT
BRANCH   1   7
HETATM    7  N3  UNL     1      11.761   5.325 -11.495  1.00  0.00    -0.289 N 
HETATM    8  C4  UNL     1      10.959   6.408 -11.092  1.00  0.00     0.322 C 
HETATM    9  N2  UNL     1      11.296   7.713 -11.477  1.00  0.00    -0.329 N 
HETATM   10  O2  UNL     1       9.946   6.214 -10.395  1.00  0.00    -0.247 OA
ATOM     11  H2  UNL     1      12.130   7.842 -12.049  1.00  0.00     0.165 HD
ATOM     12  H3  UNL     1      12.256   5.357 -12.387  1.00  0.00     0.172 HD
BRANCH   9  13
HETATM   13  C3  UNL     1      10.529   8.895 -11.110  1.00  0.00     0.185 C 
BRANCH  13  14
HETATM   14  C2  UNL     1      10.492   9.796 -12.268  1.00  0.00     0.240 C 
HETATM   15  N1  UNL     1       9.572  10.845 -12.495  1.00  0.00    -0.364 N 
HETATM   16  C1  UNL     1       9.669  11.663 -13.705  1.00  0.00     0.149 C 
ATOM     17  H1  UNL     1       8.836  11.032 -11.813  1.00  0.00     0.161 HD
HETATM   18  O1  UNL     1      11.379   9.626 -13.175  1.00  0.00    -0.271 OA
ENDBRANCH  13  14
BRANCH  13  19
HETATM   19  C18 UNL     1      11.063   9.500  -9.838  1.00  0.00    -0.022 C 
HETATM   20  C19 UNL     1      12.196   8.738  -9.236  1.00  0.00     0.017 C 
HETATM   21  C20 UNL     1      11.447  10.933 -10.040  1.00  0.00     0.017 C 
HETATM   22  C21 UNL     1       9.917   9.499  -8.829  1.00  0.00     0.017 C 
ENDBRANCH  13  19
ENDBRANCH   9  13
ENDBRANCH   1   7
BRANCH   5  23
HETATM   23  C8  UNL     1      13.068   1.282  -8.264  1.00  0.00    -0.017 A 
HETATM   24  C9  UNL     1      13.343   0.029  -8.762  1.00  0.00     0.015 A 
HETATM   25  C10 UNL     1      13.879  -0.959  -7.965  1.00  0.00     0.039 A 
HETATM   26  C11 UNL     1      14.151  -0.699  -6.639  1.00  0.00     0.086 A 
HETATM   27  O3  UNL     1      14.646  -1.377  -5.624  1.00  0.00    -0.314 OA
HETATM   28  C16 UNL     1      13.868   0.575  -6.152  1.00  0.00     0.007 A 
HETATM   29  C12 UNL     1      14.702  -0.657  -4.545  1.00  0.00     0.056 A 
HETATM   30  C13 UNL     1      15.197  -1.067  -3.205  1.00  0.00     0.077 C 
HETATM   31  C14 UNL     1      14.215   0.605  -4.824  1.00  0.00    -0.020 A 
HETATM   32  C15 UNL     1      14.089   1.748  -3.909  1.00  0.00     0.052 C 
HETATM   33  C17 UNL     1      13.333   1.547  -6.962  1.00  0.00     0.027 A 
ENDBRANCH   5  23
TORSDOF 5
ENDMDL
MODEL 4
REMARK VINA RESULT: -9.802961644      1.200      1.436
REMARK  5 active torsions:
REMARK  status: ('A' for Active; 'I' for Inactive)
REMARK       I    between atoms: N1_2  and  C2_4 
REMARK    1  A    between atoms: C2_4  and  C3_6 
REMARK    2  A    between atoms: C3_6  and  N2_7 
REMARK    3  A    between atoms: C3_6  and  C18_30 
REMARK       I    between atoms: N2_7  and  C4_9 
REMARK       I    between atoms: C4_9  and  N3_11 
REMARK    4  A    between atoms: N3_11  and  C5_13 
REMARK    5  A    between atoms: C7_17  and  C8_18 
ROOT
HETATM    1  C5  UNL     1      12.032   7.275  -9.094  1.00  0.00     0.153 A 
HETATM    2  N4  UNL     1      13.267   7.097  -8.633  1.00  0.00    -0.345 N 
ATOM      3  H4  UNL     1      13.855   7.897  -8.399  1.00  0.00     0.167 HD
HETATM    4  C6  UNL     1      13.711   5.883  -8.485  1.00  0.00     0.110 A 
HETATM    5  C7  UNL     1      12.871   4.852  -8.818  1.00  0.00     0.034 A 
HETATM    6  S1  UNL     1      11.471   5.682  -9.331  1.00  0.00    -0.052 SA
ENDROOT
BRANCH   1   7
HETATM    7  N3  UNL     1      11.420   8.419  -9.306  1.00  0.00    -0.289 N 
HETATM    8  C4  UNL     1      11.605   9.089 -10.528  1.00  0.00     0.322 C 
HETATM    9  N2  UNL     1      10.571   9.868 -11.066  1.00  0.00    -0.329 N 
HETATM   10  O2  UNL     1      12.686   8.997 -11.137  1.00  0.00    -0.247 OA
ATOM     11  H2  UNL     1       9.697   9.927 -10.544  1.00  0.00     0.165 HD
ATOM     12  H3  UNL     1      10.815   8.818  -8.588  1.00  0.00     0.172 HD
BRANCH   9  13
HETATM   13  C3  UNL     1      10.669  10.598 -12.322  1.00  0.00     0.185 C 
BRANCH  13  14
HETATM   14  C2  UNL     1       9.962  11.875 -12.166  1.00  0.00     0.240 C 
HETATM   15  N1  UNL     1      10.192  13.062 -12.899  1.00  0.00    -0.364 N 
HETATM   16  C1  UNL     1       9.397  14.262 -12.627  1.00  0.00     0.149 C 
ATOM     17  H1  UNL     1      10.914  13.084 -13.619  1.00  0.00     0.161 HD
HETATM   18  O1  UNL     1       9.042  11.936 -11.279  1.00  0.00    -0.271 OA
ENDBRANCH  13  14
BRANCH  13  19
HETATM   19  C18 UNL     1      10.206   9.740 -13.470  1.00  0.00    -0.022 C 
HETATM   20  C19 UNL     1       9.494   8.497 -13.048  1.00  0.00     0.017 C 
HETATM   21  C20 UNL     1       9.362  10.525 -14.426  1.00  0.00     0.017 C 
HETATM   22  C21 UNL     1      11.454   9.319 -14.243  1.00  0.00     0.017 C 
ENDBRANCH  13  19
ENDBRANCH   9  13
ENDBRANCH   1   7
BRANCH   5  23
HETATM   23  C8  UNL     1      13.139   3.397  -8.740  1.00  0.00    -0.017 A 
HETATM   24  C9  UNL     1      13.208   2.653  -9.896  1.00  0.00     0.015 A 
HETATM   25  C10 UNL     1      13.455   1.298  -9.863  1.00  0.00     0.039 A 
HETATM   26  C11 UNL     1      13.640   0.662  -8.654  1.00  0.00     0.086 A 
HETATM   27  O3  UNL     1      13.886  -0.571  -8.262  1.00  0.00    -0.314 OA
HETATM   28  C16 UNL     1      13.567   1.431  -7.495  1.00  0.00     0.007 A 
HETATM   29  C12 UNL     1      13.976  -0.656  -6.969  1.00  0.00     0.056 A 
HETATM   30  C13 UNL     1      14.243  -1.871  -6.156  1.00  0.00     0.077 C 
HETATM   31  C14 UNL     1      13.780   0.598  -6.424  1.00  0.00    -0.020 A 
HETATM   32  C15 UNL     1      13.792   0.978  -5.005  1.00  0.00     0.052 C 
HETATM   33  C17 UNL     1      13.320   2.781  -7.546  1.00  0.00     0.027 A 
ENDBRANCH   5  23
TORSDOF 5
ENDMDL
MODEL 5
REMARK VINA RESULT: -9.794402571      2.407     10.734
REMARK  5 active torsions:
REMARK  status: ('A' for Active; 'I' for Inactive)
REMARK       I    between atoms: N1_2  and  C2_4 
REMARK    1  A    between atoms: C2_4  and  C3_6 
REMARK    2  A    between atoms: C3_6  and  N2_7 
REMARK    3  A    between atoms: C3_6  and  C18_30 
REMARK       I    between atoms: N2_7  and  C4_9 
REMARK       I    between atoms: C4_9  and  N3_11 
REMARK    4  A    between atoms: N3_11  and  C5_13 
REMARK    5  A    between atoms: C7_17  and  C8_18 
ROOT
HETATM    1  C5  UNL     1      12.086   5.805  -9.963  1.00  0.00     0.153 A 
HETATM    2  N4  UNL     1      11.787   5.426 -11.203  1.00  0.00    -0.345 N 
ATOM      3  H4  UNL     1      11.878   4.450 -11.484  1.00  0.00     0.167 HD
HETATM    4  C6  UNL     1      11.378   6.325 -12.050  1.00  0.00     0.110 A 
HETATM    5  C7  UNL     1      11.278   7.619 -11.608  1.00  0.00     0.034 A 
HETATM    6  S1  UNL     1      11.782   7.483  -9.984  1.00  0.00    -0.052 SA
ENDROOT
BRANCH   1   7
HETATM    7  N3  UNL     1      12.511   5.043  -8.980  1.00  0.00    -0.289 N 
HETATM    8  C4  UNL     1      12.055   3.716  -8.885  1.00  0.00     0.322 C 
HETATM    9  N2  UNL     1      12.887   2.724  -8.349  1.00  0.00    -0.329 N 
HETATM   10  O2  UNL     1      10.912   3.416  -9.273  1.00  0.00    -0.247 OA
ATOM     11  H2  UNL     1      13.819   2.999  -8.037  1.00  0.00     0.165 HD
ATOM     12  H3  UNL     1      13.167   5.411  -8.291  1.00  0.00     0.172 HD
BRANCH   9  13
HETATM   13  C3  UNL     1      12.505   1.326  -8.209  1.00  0.00     0.185 C 
BRANCH  13  14
HETATM   14  C2  UNL     1      12.976   0.849  -6.903  1.00  0.00     0.240 C 
HETATM   15  N1  UNL     1      12.528  -0.299  -6.210  1.00  0.00    -0.364 N 
HETATM   16  C1  UNL     1      13.103  -0.645  -4.909  1.00  0.00     0.149 C 
ATOM     17  H1  UNL     1      11.803  -0.888  -6.619  1.00  0.00     0.161 HD
HETATM   18  O1  UNL     1      13.885   1.536  -6.318  1.00  0.00    -0.271 OA
ENDBRANCH  13  14
BRANCH  13  19
HETATM   19  C18 UNL     1      12.976   0.527  -9.396  1.00  0.00    -0.022 C 
HETATM   20  C19 UNL     1      13.868  -0.616  -9.040  1.00  0.00     0.017 C 
HETATM   21  C20 UNL     1      11.820   0.049 -10.218  1.00  0.00     0.017 C 
HETATM   22  C21 UNL     1      13.774   1.477 -10.285  1.00  0.00     0.017 C 
ENDBRANCH  13  19
ENDBRANCH   9  13
ENDBRANCH   1   7
BRANCH   5  23
HETATM   23  C8  UNL     1      10.841   8.812 -12.372  1.00  0.00    -0.017 A 
HETATM   24  C9  UNL     1      10.976   8.832 -13.741  1.00  0.00     0.015 A 
HETATM   25  C10 UNL     1      10.581   9.923 -14.485  1.00  0.00     0.039 A 
HETATM   26  C11 UNL     1      10.037  11.022 -13.856  1.00  0.00     0.086 A 
HETATM   27  O3  UNL     1       9.569  12.194 -14.236  1.00  0.00    -0.314 OA
HETATM   28  C16 UNL     1       9.907  10.984 -12.470  1.00  0.00     0.007 A 
HETATM   29  C12 UNL     1       9.156  12.897 -13.225  1.00  0.00     0.056 A 
HETATM   30  C13 UNL     1       8.566  14.261 -13.250  1.00  0.00     0.077 C 
HETATM   31  C14 UNL     1       9.348  12.171 -12.066  1.00  0.00    -0.020 A 
HETATM   32  C15 UNL     1       9.030  12.568 -10.688  1.00  0.00     0.052 C 
HETATM   33  C17 UNL     1      10.306   9.888 -11.745  1.00  0.00     0.027 A 
ENDBRANCH   5  23
TORSDOF 5
ENDMDL
