MODEL 1
REMARK VINA RESULT: -10.230942306      0.000      0.000
REMARK  5 active torsions:
REMARK  status: ('A' for Active; 'I' for Inactive)
REMARK    1  A    between atoms: C6_6  and  C7_7 
REMARK    2  A    between atoms: C7_7  and  N1_8 
REMARK    3  A    between atoms: N1_8  and  C8_9 
REMARK    4  A    between atoms: C11_16  and  N4_17 
REMARK    5  A    between atoms: N4_17  and  C12_19 
ROOT
HETATM    1  C8  UNL     1      14.512   3.831  -5.523  1.00  0.00     0.160 A 
HETATM    2  C9  UNL     1      13.816   5.227  -5.100  1.00  0.00     0.152 A 
HETATM    3  C10 UNL     1      13.483   6.082  -6.213  1.00  0.00     0.050 A 
HETATM    4  N2  UNL     1      12.720   7.243  -6.197  1.00  0.00    -0.302 N 
ATOM      5  H2  UNL     1      12.356   7.740  -5.384  1.00  0.00     0.186 HD
HETATM    6  N3  UNL     1      12.567   7.564  -7.498  1.00  0.00    -0.284 N 
ATOM      7  H3  UNL     1      12.047   8.388  -7.800  1.00  0.00     0.188 HD
HETATM    8  C11 UNL     1      13.109   6.778  -8.309  1.00  0.00     0.135 A 
HETATM    9  C18 UNL     1      13.764   5.755  -7.507  1.00  0.00     0.056 A 
HETATM   10  C19 UNL     1      14.338   4.614  -7.660  1.00  0.00     0.023 A 
HETATM   11  C20 UNL     1      14.483   4.263  -9.213  1.00  0.00     0.069 C 
HETATM   12  N7  UNL     1      14.686   3.698  -6.851  1.00  0.00    -0.337 N 
ATOM     13  H7  UNL     1      15.106   2.843  -7.216  1.00  0.00     0.168 HD
ENDROOT
BRANCH   1  14
HETATM   14  N1  UNL     1      14.903   3.289  -4.552  1.00  0.00    -0.403 NA
BRANCH  14  15
HETATM   15  C7  UNL     1      15.404   2.618  -3.435  1.00  0.00     0.197 C 
BRANCH  15  16
HETATM   16  C6  UNL     1      15.820   1.208  -3.694  1.00  0.00     0.005 A 
HETATM   17  C4  UNL     1      16.916   0.864  -4.373  1.00  0.00    -0.048 A 
HETATM   18  C3  UNL     1      17.450  -0.462  -4.452  1.00  0.00     0.014 A 
HETATM   19  C5  UNL     1      17.668   1.924  -5.077  1.00  0.00     0.049 C 
HETATM   20  C2  UNL     1      16.719  -1.432  -3.762  1.00  0.00    -0.061 A 
HETATM   21  C1  UNL     1      17.341  -2.797  -3.491  1.00  0.00     0.048 C 
HETATM   22  C23 UNL     1      15.570  -1.107  -3.113  1.00  0.00     0.014 A 
HETATM   23  C21 UNL     1      15.121   0.196  -3.060  1.00  0.00    -0.048 A 
HETATM   24  C22 UNL     1      13.800   0.476  -2.548  1.00  0.00     0.049 C 
ENDBRANCH  15  16
ENDBRANCH  14  15
ENDBRANCH   1  14
BRANCH   8  25
HETATM   25  N4  UNL     1      13.255   6.638  -9.676  1.00  0.00    -0.337 N 
ATOM     26  H4  UNL     1      14.142   6.457 -10.148  1.00  0.00     0.167 HD
BRANCH  25  27
HETATM   27  C12 UNL     1      11.978   6.784 -10.351  1.00  0.00     0.081 A 
HETATM   28  C13 UNL     1      10.936   5.948 -10.514  1.00  0.00     0.051 A 
HETATM   29  C14 UNL     1      10.585   4.687  -9.858  1.00  0.00     0.072 C 
HETATM   30  N5  UNL     1      10.053   6.598 -11.360  1.00  0.00    -0.301 N 
HETATM   31  N6  UNL     1      10.544   7.787 -11.679  1.00  0.00    -0.299 N 
ATOM     32  H5  UNL     1       9.164   6.221 -11.687  1.00  0.00     0.187 HD
HETATM   33  C15 UNL     1       9.821   8.693 -12.599  1.00  0.00     0.177 C 
HETATM   34  C16 UNL     1      11.705   7.944 -11.114  1.00  0.00     0.053 A 
HETATM   35  C17 UNL     1      12.481   9.218 -11.131  1.00  0.00     0.072 C 
ENDBRANCH  25  27
ENDBRANCH   8  25
TORSDOF 5
ENDMDL
MODEL 2
REMARK VINA RESULT: -10.192803037      1.900      2.787
REMARK  5 active torsions:
REMARK  status: ('A' for Active; 'I' for Inactive)
REMARK    1  A    between atoms: C6_6  and  C7_7 
REMARK    2  A    between atoms: C7_7  and  N1_8 
REMARK    3  A    between atoms: N1_8  and  C8_9 
REMARK    4  A    between atoms: C11_16  and  N4_17 
REMARK    5  A    between atoms: N4_17  and  C12_19 
ROOT
HETATM    1  C8  UNL     1      16.723   2.775  -5.750  1.00  0.00     0.160 A 
HETATM    2  C9  UNL     1      15.535   3.195  -4.738  1.00  0.00     0.152 A 
HETATM    3  C10 UNL     1      14.713   4.282  -5.211  1.00  0.00     0.050 A 
HETATM    4  N2  UNL     1      13.519   4.744  -4.672  1.00  0.00    -0.302 N 
ATOM      5  H2  UNL     1      13.079   4.464  -3.795  1.00  0.00     0.186 HD
HETATM    6  N3  UNL     1      13.072   5.647  -5.569  1.00  0.00    -0.284 N 
ATOM      7  H3  UNL     1      12.203   6.165  -5.436  1.00  0.00     0.188 HD
HETATM    8  C11 UNL     1      13.799   5.804  -6.577  1.00  0.00     0.135 A 
HETATM    9  C18 UNL     1      14.941   4.920  -6.395  1.00  0.00     0.056 A 
HETATM   10  C19 UNL     1      15.940   4.467  -7.066  1.00  0.00     0.023 A 
HETATM   11  C20 UNL     1      16.025   5.178  -8.495  1.00  0.00     0.069 C 
HETATM   12  N7  UNL     1      16.764   3.520  -6.869  1.00  0.00    -0.337 N 
ATOM     13  H7  UNL     1      17.472   3.320  -7.576  1.00  0.00     0.168 HD
ENDROOT
BRANCH   1  14
HETATM   14  N1  UNL     1      17.437   2.012  -5.204  1.00  0.00    -0.403 NA
BRANCH  14  15
HETATM   15  C7  UNL     1      18.250   1.114  -4.510  1.00  0.00     0.197 C 
BRANCH  15  16
HETATM   16  C6  UNL     1      17.718  -0.279  -4.441  1.00  0.00     0.005 A 
HETATM   17  C4  UNL     1      17.971  -1.222  -5.350  1.00  0.00    -0.048 A 
HETATM   18  C3  UNL     1      17.656  -2.610  -5.201  1.00  0.00     0.014 A 
HETATM   19  C5  UNL     1      18.657  -0.829  -6.598  1.00  0.00     0.049 C 
HETATM   20  C2  UNL     1      17.022  -2.944  -4.002  1.00  0.00    -0.061 A 
HETATM   21  C1  UNL     1      16.929  -4.405  -3.575  1.00  0.00     0.048 C 
HETATM   22  C23 UNL     1      16.706  -1.986  -3.091  1.00  0.00     0.014 A 
HETATM   23  C21 UNL     1      17.057  -0.666  -3.289  1.00  0.00    -0.048 A 
HETATM   24  C22 UNL     1      16.529   0.352  -2.411  1.00  0.00     0.049 C 
ENDBRANCH  15  16
ENDBRANCH  14  15
ENDBRANCH   1  14
BRANCH   8  25
HETATM   25  N4  UNL     1      13.814   6.556  -7.737  1.00  0.00    -0.337 N 
ATOM     26  H4  UNL     1      14.656   6.940  -8.166  1.00  0.00     0.167 HD
BRANCH  25  27
HETATM   27  C12 UNL     1      12.471   6.725  -8.261  1.00  0.00     0.081 A 
HETATM   28  C13 UNL     1      11.530   7.668  -8.065  1.00  0.00     0.051 A 
HETATM   29  C14 UNL     1      11.596   9.001  -7.466  1.00  0.00     0.072 C 
HETATM   30  N5  UNL     1      10.401   7.226  -8.734  1.00  0.00    -0.301 N 
HETATM   31  N6  UNL     1      10.662   6.067  -9.322  1.00  0.00    -0.299 N 
ATOM     32  H5  UNL     1       9.508   7.716  -8.769  1.00  0.00     0.187 HD
HETATM   33  C15 UNL     1       9.623   5.345 -10.088  1.00  0.00     0.177 C 
HETATM   34  C16 UNL     1      11.886   5.712  -9.058  1.00  0.00     0.053 A 
HETATM   35  C17 UNL     1      12.570   4.537  -9.673  1.00  0.00     0.072 C 
ENDBRANCH  25  27
ENDBRANCH   8  25
TORSDOF 5
ENDMDL
MODEL 3
REMARK VINA RESULT: -10.172068988      1.590      2.238
REMARK  5 active torsions:
REMARK  status: ('A' for Active; 'I' for Inactive)
REMARK    1  A    between atoms: C6_6  and  C7_7 
REMARK    2  A    between atoms: C7_7  and  N1_8 
REMARK    3  A    between atoms: N1_8  and  C8_9 
REMARK    4  A    between atoms: C11_16  and  N4_17 
REMARK    5  A    between atoms: N4_17  and  C12_19 
ROOT
HETATM    1  C8  UNL     1      16.682   2.757  -5.707  1.00  0.00     0.160 A 
HETATM    2  C9  UNL     1      15.445   3.253  -4.793  1.00  0.00     0.152 A 
HETATM    3  C10 UNL     1      14.660   4.309  -5.384  1.00  0.00     0.050 A 
HETATM    4  N2  UNL     1      13.443   4.814  -4.944  1.00  0.00    -0.302 N 
ATOM      5  H2  UNL     1      12.954   4.598  -4.075  1.00  0.00     0.186 HD
HETATM    6  N3  UNL     1      13.053   5.655  -5.924  1.00  0.00    -0.284 N 
ATOM      7  H3  UNL     1      12.183   6.186  -5.874  1.00  0.00     0.188 HD
HETATM    8  C11 UNL     1      13.835   5.738  -6.899  1.00  0.00     0.135 A 
HETATM    9  C18 UNL     1      14.957   4.863  -6.595  1.00  0.00     0.056 A 
HETATM   10  C19 UNL     1      15.987   4.359  -7.177  1.00  0.00     0.023 A 
HETATM   11  C20 UNL     1      16.156   4.969  -8.645  1.00  0.00     0.069 C 
HETATM   12  N7  UNL     1      16.790   3.423  -6.872  1.00  0.00    -0.337 N 
ATOM     13  H7  UNL     1      17.534   3.171  -7.523  1.00  0.00     0.168 HD
ENDROOT
BRANCH   1  14
HETATM   14  N1  UNL     1      17.359   2.030  -5.072  1.00  0.00    -0.403 NA
BRANCH  14  15
HETATM   15  C7  UNL     1      18.167   1.135  -4.369  1.00  0.00     0.197 C 
BRANCH  15  16
HETATM   16  C6  UNL     1      17.652  -0.265  -4.327  1.00  0.00     0.005 A 
HETATM   17  C4  UNL     1      17.949  -1.198  -5.232  1.00  0.00    -0.048 A 
HETATM   18  C3  UNL     1      17.647  -2.592  -5.101  1.00  0.00     0.014 A 
HETATM   19  C5  UNL     1      18.673  -0.789  -6.453  1.00  0.00     0.049 C 
HETATM   20  C2  UNL     1      16.977  -2.941  -3.928  1.00  0.00    -0.061 A 
HETATM   21  C1  UNL     1      16.889  -4.406  -3.513  1.00  0.00     0.048 C 
HETATM   22  C23 UNL     1      16.617  -1.993  -3.022  1.00  0.00     0.014 A 
HETATM   23  C21 UNL     1      16.956  -0.668  -3.200  1.00  0.00    -0.048 A 
HETATM   24  C22 UNL     1      16.384   0.338  -2.336  1.00  0.00     0.049 C 
ENDBRANCH  15  16
ENDBRANCH  14  15
ENDBRANCH   1  14
BRANCH   8  25
HETATM   25  N4  UNL     1      13.919   6.408  -8.105  1.00  0.00    -0.337 N 
ATOM     26  H4  UNL     1      14.645   7.086  -8.341  1.00  0.00     0.167 HD
BRANCH  25  27
HETATM   27  C12 UNL     1      12.838   6.017  -8.991  1.00  0.00     0.081 A 
HETATM   28  C13 UNL     1      12.345   4.817  -9.350  1.00  0.00     0.051 A 
HETATM   29  C14 UNL     1      12.533   3.478  -8.789  1.00  0.00     0.072 C 
HETATM   30  N5  UNL     1      11.395   5.070 -10.325  1.00  0.00    -0.301 N 
HETATM   31  N6  UNL     1      11.313   6.377 -10.532  1.00  0.00    -0.299 N 
ATOM     32  H5  UNL     1      10.845   4.361 -10.810  1.00  0.00     0.187 HD
HETATM   33  C15 UNL     1      10.394   6.936 -11.548  1.00  0.00     0.177 C 
HETATM   34  C16 UNL     1      12.168   6.992  -9.769  1.00  0.00     0.053 A 
HETATM   35  C17 UNL     1      12.251   8.475  -9.626  1.00  0.00     0.072 C 
ENDBRANCH  25  27
ENDBRANCH   8  25
TORSDOF 5
ENDMDL
MODEL 4
REMARK VINA RESULT: -10.072454461      1.273      2.137
REMARK  5 active torsions:
REMARK  status: ('A' for Active; 'I' for Inactive)
REMARK    1  A    between atoms: C6_6  and  C7_7 
REMARK    2  A    between atoms: C7_7  and  N1_8 
REMARK    3  A    between atoms: N1_8  and  C8_9 
REMARK    4  A    between atoms: C11_16  and  N4_17 
REMARK    5  A    between atoms: N4_17  and  C12_19 
ROOT
HETATM    1  C8  UNL     1      15.512   3.175  -5.216  1.00  0.00     0.160 A 
HETATM    2  C9  UNL     1      14.557   4.288  -4.539  1.00  0.00     0.152 A 
HETATM    3  C10 UNL     1      14.107   5.313  -5.450  1.00  0.00     0.050 A 
HETATM    4  N2  UNL     1      13.142   6.287  -5.226  1.00  0.00    -0.302 N 
ATOM      5  H2  UNL     1      12.667   6.508  -4.351  1.00  0.00     0.186 HD
HETATM    6  N3  UNL     1      12.973   6.876  -6.428  1.00  0.00    -0.284 N 
ATOM      7  H3  UNL     1      12.319   7.646  -6.572  1.00  0.00     0.188 HD
HETATM    8  C11 UNL     1      13.675   6.410  -7.355  1.00  0.00     0.135 A 
HETATM    9  C18 UNL     1      14.483   5.355  -6.761  1.00  0.00     0.056 A 
HETATM   10  C19 UNL     1      15.262   4.399  -7.126  1.00  0.00     0.023 A 
HETATM   11  C20 UNL     1      15.517   4.456  -8.703  1.00  0.00     0.069 C 
HETATM   12  N7  UNL     1      15.748   3.392  -6.523  1.00  0.00    -0.337 N 
ATOM     13  H7  UNL     1      16.330   2.733  -7.041  1.00  0.00     0.168 HD
ENDROOT
BRANCH   1  14
HETATM   14  N1  UNL     1      15.966   2.494  -4.368  1.00  0.00    -0.403 NA
BRANCH  14  15
HETATM   15  C7  UNL     1      16.523   1.650  -3.405  1.00  0.00     0.197 C 
BRANCH  15  16
HETATM   16  C6  UNL     1      17.093   0.382  -3.946  1.00  0.00     0.005 A 
HETATM   17  C4  UNL     1      16.555  -0.823  -3.752  1.00  0.00    -0.048 A 
HETATM   18  C3  UNL     1      16.954  -2.019  -4.431  1.00  0.00     0.014 A 
HETATM   19  C5  UNL     1      15.438  -0.948  -2.792  1.00  0.00     0.049 C 
HETATM   20  C2  UNL     1      18.001  -1.857  -5.340  1.00  0.00    -0.061 A 
HETATM   21  C1  UNL     1      18.300  -2.956  -6.355  1.00  0.00     0.048 C 
HETATM   22  C23 UNL     1      18.598  -0.647  -5.507  1.00  0.00     0.014 A 
HETATM   23  C21 UNL     1      18.150   0.471  -4.835  1.00  0.00    -0.048 A 
HETATM   24  C22 UNL     1      18.930   1.686  -4.872  1.00  0.00     0.049 C 
ENDBRANCH  15  16
ENDBRANCH  14  15
ENDBRANCH   1  14
BRANCH   8  25
HETATM   25  N4  UNL     1      13.887   6.625  -8.703  1.00  0.00    -0.337 N 
ATOM     26  H4  UNL     1      14.772   6.934  -9.108  1.00  0.00     0.167 HD
BRANCH  25  27
HETATM   27  C12 UNL     1      12.682   6.354  -9.466  1.00  0.00     0.081 A 
HETATM   28  C13 UNL     1      11.972   5.230  -9.675  1.00  0.00     0.051 A 
HETATM   29  C14 UNL     1      11.990   3.927  -9.008  1.00  0.00     0.072 C 
HETATM   30  N5  UNL     1      10.993   5.562 -10.596  1.00  0.00    -0.301 N 
HETATM   31  N6  UNL     1      11.105   6.843 -10.916  1.00  0.00    -0.299 N 
ATOM     32  H5  UNL     1      10.295   4.919 -10.971  1.00  0.00     0.187 HD
HETATM   33  C15 UNL     1      10.202   7.467 -11.908  1.00  0.00     0.177 C 
HETATM   34  C16 UNL     1      12.112   7.363 -10.279  1.00  0.00     0.053 A 
HETATM   35  C17 UNL     1      12.446   8.818 -10.281  1.00  0.00     0.072 C 
ENDBRANCH  25  27
ENDBRANCH   8  25
TORSDOF 5
ENDMDL
MODEL 5
REMARK VINA RESULT: -10.066283213      1.706      2.908
REMARK  5 active torsions:
REMARK  status: ('A' for Active; 'I' for Inactive)
REMARK    1  A    between atoms: C6_6  and  C7_7 
REMARK    2  A    between atoms: C7_7  and  N1_8 
REMARK    3  A    between atoms: N1_8  and  C8_9 
REMARK    4  A    between atoms: C11_16  and  N4_17 
REMARK    5  A    between atoms: N4_17  and  C12_19 
ROOT
HETATM    1  C8  UNL     1      15.465   3.066  -4.940  1.00  0.00     0.160 A 
HETATM    2  C9  UNL     1      14.696   4.199  -4.082  1.00  0.00     0.152 A 
HETATM    3  C10 UNL     1      14.157   5.277  -4.876  1.00  0.00     0.050 A 
HETATM    4  N2  UNL     1      13.296   6.287  -4.467  1.00  0.00    -0.302 N 
ATOM      5  H2  UNL     1      12.985   6.498  -3.519  1.00  0.00     0.186 HD
HETATM    6  N3  UNL     1      12.962   6.927  -5.607  1.00  0.00    -0.284 N 
ATOM      7  H3  UNL     1      12.335   7.732  -5.619  1.00  0.00     0.188 HD
HETATM    8  C11 UNL     1      13.476   6.462  -6.650  1.00  0.00     0.135 A 
HETATM    9  C18 UNL     1      14.313   5.348  -6.230  1.00  0.00     0.056 A 
HETATM   10  C19 UNL     1      14.968   4.370  -6.747  1.00  0.00     0.023 A 
HETATM   11  C20 UNL     1      14.962   4.472  -8.342  1.00  0.00     0.069 C 
HETATM   12  N7  UNL     1      15.493   3.319  -6.262  1.00  0.00    -0.337 N 
ATOM     13  H7  UNL     1      15.945   2.652  -6.888  1.00  0.00     0.168 HD
ENDROOT
BRANCH   1  14
HETATM   14  N1  UNL     1      16.016   2.334  -4.199  1.00  0.00    -0.403 NA
BRANCH  14  15
HETATM   15  C7  UNL     1      16.668   1.425  -3.363  1.00  0.00     0.197 C 
BRANCH  15  16
HETATM   16  C6  UNL     1      17.289   0.266  -4.071  1.00  0.00     0.005 A 
HETATM   17  C4  UNL     1      16.862  -0.993  -3.959  1.00  0.00    -0.048 A 
HETATM   18  C3  UNL     1      17.296  -2.081  -4.783  1.00  0.00     0.014 A 
HETATM   19  C5  UNL     1      15.842  -1.302  -2.937  1.00  0.00     0.049 C 
HETATM   20  C2  UNL     1      18.249  -1.745  -5.747  1.00  0.00    -0.061 A 
HETATM   21  C1  UNL     1      18.548  -2.714  -6.886  1.00  0.00     0.048 C 
HETATM   22  C23 UNL     1      18.735  -0.479  -5.835  1.00  0.00     0.014 A 
HETATM   23  C21 UNL     1      18.259   0.529  -5.021  1.00  0.00    -0.048 A 
HETATM   24  C22 UNL     1      18.937   1.804  -4.994  1.00  0.00     0.049 C 
ENDBRANCH  15  16
ENDBRANCH  14  15
ENDBRANCH   1  14
BRANCH   8  25
HETATM   25  N4  UNL     1      13.473   6.716  -8.009  1.00  0.00    -0.337 N 
ATOM     26  H4  UNL     1      14.301   6.692  -8.604  1.00  0.00     0.167 HD
BRANCH  25  27
HETATM   27  C12 UNL     1      12.132   7.020  -8.476  1.00  0.00     0.081 A 
HETATM   28  C13 UNL     1      11.411   8.157  -8.490  1.00  0.00     0.051 A 
HETATM   29  C14 UNL     1      11.791   9.556  -8.289  1.00  0.00     0.072 C 
HETATM   30  N5  UNL     1      10.150   7.802  -8.940  1.00  0.00    -0.301 N 
HETATM   31  N6  UNL     1      10.123   6.503  -9.199  1.00  0.00    -0.299 N 
ATOM     32  H5  UNL     1       9.364   8.443  -9.053  1.00  0.00     0.187 HD
HETATM   33  C15 UNL     1       8.886   5.841  -9.669  1.00  0.00     0.177 C 
HETATM   34  C16 UNL     1      11.282   5.981  -8.923  1.00  0.00     0.053 A 
HETATM   35  C17 UNL     1      11.661   4.571  -9.231  1.00  0.00     0.072 C 
ENDBRANCH  25  27
ENDBRANCH   8  25
TORSDOF 5
ENDMDL
